# total energy = -381174.2927262362 ev
CRYSTAL
PRIMVEC
9.15122149155195 0.00000000000000 0.00000000000000
0.00000000000000 9.15122149155195 0.00000000000000
0.00000000000000 0.00000000000000 13.39373767252714
PRIMCOORD
 96 1
Ni 6.384898596181233 4.61745917268056 4.615642655257358 -0.03064780679284399 -0.027261406819114337 -0.09780322159341866
Ni 2.3925410463926307 4.643375431332987 11.393650263773454 -0.5536850089003883 0.6430326435272862 0.026966758396830978
Ni 4.672384802776559 1.915231647101205 8.866373041174153 -2.1761277225459943 -2.9920529126023694 0.46411343118814263
Ni 3.884812397358048 4.004025356914959 4.33678481030379 0.3829362481871792 0.8495099679903564 0.6033574364248512
Ni 5.497751752063194 8.494703510043706 2.619480352561353 -0.44394801198386125 0.974208214202406 -0.7926993867592155
Ni 3.4771437919737456 0.620635826909477 12.224691885373073 1.8445230347532555 0.8520980404325067 -0.3653375612688095
Ni 4.288472767823649 4.041911412995839 8.984827364487321 -0.7055143070012753 1.546201277383363 0.20537714942035595
Ni 5.1963379769095885 5.969369091721211 2.1933848480165534 0.01662166771708105 0.34753832830385956 0.4539202927052247
Ni 0.8183809069648608 2.8172858306771555 11.795100614301003 0.23362123186771375 0.04735560646582812 1.1486645056741893
Ni 0.11170438250030273 4.6171937872635676 10.582204152291224 -0.17567165193612325 1.8146586430936553 1.142481259681613
Ni 3.3828953640566017 9.031422637856165 9.85065186303327 -0.1778303501503389 0.11945628108682008 -0.6949496441115515
Ni 0.26354876688165885 1.5884872914568098 2.155280077747188 0.6100721294408655 0.7573904270452761 -0.07548193238839904
Ni 3.1278874319914367 8.139508007453552 7.489135287009094 1.718419423553247 -0.8808861683087927 -0.4237951911850701
Ni 1.9721156385501772 1.938210363724173 0.10567555792395411 0.677507280265388 0.5813606204387858 1.819190469525738
Ni 4.93226118456033 3.0175145521867304 6.414073604729892 0.6149399990561281 0.9336686022171469 0.4220648387575247
Ni 1.4295488803426282 8.85197633986342 12.650639140133206 -1.6332829987942195 -0.8844803134179541 -0.05356199238685615
Ni 1.0173687228694674 1.2313700323987824 6.375834311507776 0.22637997692426817 0.5002896239983836 0.9865495093765784
Ni 8.256213532380956 2.4474666764886304 10.561832618609666 -2.383283561133328 -0.982435744318521 -0.4370399720101183
Ni 9.016579356947183 1.804950279509254 8.455493272244253 0.8305341982188019 -0.4994169915854431 -0.36992055265380164
Ni 6.586399337448112 2.699271681107344 8.288714094741158 1.6909865241532747 0.15814804123006312 0.19709074104184765
Ni 2.921124738491102 5.424944635594721 2.5935494519548845 -0.8368642542018878 -2.2256913924067345 0.5946331691779759
Ni 5.3977472059637135 3.8122615150852917 2.551962641990163 -0.17910098933264637 -2.0696729959251647 -0.4327889100432482
Ni 2.5452200221543193 2.007649830763234 10.532486482223153 0.6652971113524413 1.0501452318503528 -0.9733643781448719
Ni 3.581220631540857 1.1888077022460841 6.484082277732295 -1.3560198618668389 -1.3628291714791885 0.6763536262769191
P 8.519631436798372 7.353747543847604 7.235631815721633 -1.5398177424545223 1.1527921546893178 1.9898970641471019
Ni 6.372324818148593 5.172242811291 9.955765535970905 1.1307158916155688 0.32526794694143335 -0.13538760760509586
P 6.270938437636501 0.8520409290606797 10.512490148613896 0.21582071335118314 0.7132242740510233 -0.4151141184713044
Ni 6.910800980445961 6.9502244417011365 3.764912181083341 0.7023950446460032 0.47915901266735544 -1.5671490832796235
P 4.466875826590978 6.19171631505385 8.840536398146824 -0.04545658967090236 0.5191970024258478 0.4065610866949708
P 3.2633621117550446 8.812662693263551 0.8349116730770589 0.5980941311433828 0.6508115161417566 -0.42637683586931735
P 2.097761906663818 1.5044882313683094 8.30834987023216 1.095979516575648 -0.05744358682944946 0.7291797689390151
Ni 7.0195449428636145 7.0739947094532845 1.1757196255777573 -0.8410206995724226 1.032202531329003 -0.703106468890731
Ni 8.623616764152729 8.077261400337092 5.262894809246844 1.5691668850406009 0.03923606268248726 -1.431662231092502
Ni 3.3134375945749897 7.5452460002602795 11.737454326119776 -1.0821942898660974 -0.8140333723503013 -0.2457761220626929
Ni 5.773780039398353 4.435221752198765 0.2217899139569563 0.14104506300118935 0.7406160358004148 0.15965753589605408
Ni 0.6219746505820936 4.499747013412842 2.9175978578114954 -1.2386366612589634 -0.3517037725354588 -1.387686082621868
Ni 1.2059662421377868 6.768892992125624 3.5510417340182667 -0.25027940924968506 0.9884009607630203 1.4853347809152935
Ni 7.786819939492902 0.46379030010101935 6.955180743143988 -0.1445222229165124 -1.774344259745325 0.2893900020979016
Ni 6.450558608833481 6.789153796029746 8.34168685421695 0.7957898527590811 0.16334295516744127 -0.2015904286844141
Ni 8.328883380530295 6.002450756632414 12.957556459761943 2.2390169058710474 0.3736393962662855 -0.4036819653749628
Ni 3.520310102730632 4.529323760575499 0.5685791046833703 -0.908643540927719 -0.20618627558521263 -0.3628996412512782
Ni 4.296013374154723 2.0468262090439695 0.6919082835700356 0.8015288121253873 -0.3801219186668357 1.3401039619675308
Ni 6.815994328031007 0.19277596690274668 4.455105525786333 0.0918122941173064 0.22958228591164975 -1.063522424488207
Ni 2.440347026336233 6.78740591276611 9.553806377540434 -0.3169859094382992 -0.21650539812303357 0.6265410736301661
Ni 0.15433534681256755 6.591103065183757 1.5497895220487872 -0.0774969059358988 -1.4087007372003224 -0.3741551595604395
Ni 5.543754941415508 7.990251588448927 10.77056007931787 0.2749810257614232 -0.5621470236248125 -1.1322847787645853
Ni 9.0725848311537 1.1373686874560787 4.428076478626796 -0.6195458732592556 0.3492702233933017 -0.8623680548999471
Ni 2.2513468533317886 2.1705598719110153 4.534757755768936 -1.2701866681511027 0.687910477876583 -0.12814635266165028
Ni 1.2493887870903888 8.619279085268106 1.7058535345603105 0.6995107811196727 0.5219007745102561 0.21603951423020856
Ni 1.104524954298041 6.466371919197675 6.62238651511431 -0.9317148209248858 1.3022552665508735 -3.245797654692836
Ni 4.914260732311274 5.260222652634376 6.376463915531536 -1.043161601443668 1.9828504417129658 0.11958457913456826
Ni 4.583471536863075 7.120949625818258 0.3383261412907625 0.6543748080129826 -0.48486557613382947 -0.2515163669805797
Ni 4.599229939899615 5.543013692492186 11.48659006704819 0.6785496054869733 -0.264695327564699 0.41045682220495117
Ni 1.5855863543124527 3.8422317647627993 8.770527725144422 1.3458938291764306 -1.571906909679583 1.2700015487234901
Ni 5.740652618380773 8.938720766334592 8.138892130261704 -0.9088566853797897 1.090646791508825 -0.177524645984462
Ni 4.045269911203976 3.151168138916499 12.120971028313582 0.09908131697489388 -0.16967789624653357 -0.8284446626796248
P 9.032420120975202 1.3771398360974119 13.336666848911559 -0.13133426347132865 0.08823666095090611 -0.4719010455533615
Ni 0.310341706630055 5.656223450892321 8.41582089777038 -1.563430753887772 1.786687097581394 1.8124140700338527
P 4.851620622679965 6.491345602058718 4.2899470295711435 -0.5810076079747413 -0.8200559243952975 0.26231525736829664
Ni 0.894250937194268 4.419207114966508 0.42339497914637747 0.4874091684912896 -0.0824881885029031 0.06360934932052917
P 1.1186086838411506 6.554086375124058 11.694835258395168 0.28832890782323894 0.14371772473734604 0.13565911609892767
P 8.486687040206304 3.8396968764694646 8.791997405379048 -2.094314705733245 -0.29363180809339107 -0.11221322637116159
P 6.564848211344134 6.584889385937642 12.107175562240652 -1.600262835114457 0.006484322172763026 -0.1746144143162025
Ni 7.447675679020103 0.2993373630461764 1.0240289817138308 0.40222826364757175 0.9305966481600425 1.5340031926552742
Ni 7.358615993566209 2.6953183535162957 3.36113192961903 0.2797491365740279 -0.18540739116664842 -0.05542012864151745
Ni 6.884262438746794 6.692452840810748 6.002296100992857 -1.0393874791132163 0.46300194329151867 0.572722999368446
Ni 4.4921240460902885 1.7253895617394075 4.206651698398735 1.47935722317562 -0.20607391837706446 -0.716207010828431
Ni 5.863150866375617 3.092554566646443 10.669504973015952 -0.2389896952684787 -1.4286985204784879 0.5209594936429093
Ni 8.60428023359744 5.6722014832394745 4.709519543590713 0.49336461474377613 -1.3240736479775455 0.47470226244758246
Ni 7.994049345278291 8.817274908786441 9.272484108697352 -1.129820633494809 1.376682789532829 -1.244294116655057
Ni 0.68286230133913 0.5438259662550683 10.536599041064397 0.9236988925989448 -0.08028012510799076 -0.9720582577389387
Ni 7.045854704030892 4.647969344413326 7.082568488666371 0.20649892172962503 -0.03503719410979127 0.8033753784158228
Ni 7.41970039558067 2.4143850115774277 6.026566054937809 -0.28504226665216714 1.1841907236052571 -1.4881413971261532
Ni 1.8484917903384386 8.967007191297395 4.711769828902377 1.1733113576885923 -1.3228102078840898 -0.3697542022792665
Ni 7.935801821859258 3.1159999955544655 0.9208315745113024 0.33936350580255104 -0.4230336304286972 -0.18474558921293344
Ni 2.5310356291771785 3.4267937725155337 6.723990694692762 1.2690510118847629 -1.146022182955336 0.21354168750901936
Ni 7.541576360528774 5.0066606135307525 2.0606537043913624 -0.30436770645365646 0.011334965396844995 0.8264708267827058
Ni 7.476328152833927 4.124016170280296 12.168063212997687 0.2003069339863002 -0.6476961104412264 -1.0034213454312526
Ni 6.404061253532286 2.127402712375405 12.942475247099795 -0.46407563597167173 -0.46291863954909307 -1.1167666285243283
Ni 4.82048816790046 8.151624224422411 5.703012730152207 -0.005648970755661239 0.4525128708347368 -0.0008962865620242629
Ni 3.2745815090388994 7.571336132116944 2.7345990557195727 0.5694913798050256 1.6577241625557193 0.714437320522518
Ni 8.297888194069921 7.158963798996996 10.57491794991161 0.5542812477234905 -2.3652483008981715 1.475928399999729
Ni 1.7030788842695563 4.485910366844173 4.910144512981521 -0.0382929820429276 1.486653499726717 0.5179631300187466
Ni 2.8236184757998535 5.609305139412449 7.508247612643131 1.3040465541233413 -1.1341010060377177 0.9707269405220249
Ni 0.08603520682231566 3.8339865143935064 6.716463815193601 1.2979065026638745 0.5059455367325802 0.4565489885773234
Ni 2.9635314978821152 1.0535892566781921 2.611912292566453 -0.47771302424944817 -0.12609641211115702 -1.1435420968459598
Ni 5.793674794451453 8.978345554457832 12.94640020590489 -0.9102278546957033 -0.42694736366080666 -0.4709168272632212
Ni 1.1063643497744318 8.589995177186266 8.083281073692165 -1.9072342977395476 0.2314172822378595 1.2160898863066991
P 5.642935877600186 1.1119465947525322 5.874908355470475 0.8505484365571996 -1.0467120377990877 2.06566130366261
Ni 2.2547968637526803 6.803017896262241 0.5185750013893748 -0.3654941414513318 -1.3059563695515444 -0.8270986901746917
P 2.1901068805556427 3.215784912343332 2.248727773802719 0.7664643643220863 -0.6142565998358582 -1.0518097640369692
Ni 2.8301066916842355 6.635934898212798 5.354240469775376 2.177396819066405 0.49133087214319887 -1.73362904141415
P 8.574364891247585 8.268293144464714 2.6307848562030705 -1.8351058552044137 0.5171293212635416 1.7698741397891133
P 9.044902386795085 3.327356602135139 4.6944108772647395 -0.5321651325507416 -0.6012843559459063 -0.8750610769865834
P 5.748431156465012 1.560210017715284 2.3207863203708494 0.19087021405343257 -0.2415939656605452 -0.3936685470030188
Ni 7.996968584865199 0.002598946842263219 11.907956220437773 -0.5248565147044701 0.6564694857584823 0.27657896637616236
