# total energy = -340870.3368047754 ev
CRYSTAL
PRIMVEC
9.21815329673987 0.00000000000000 0.00000000000000
0.00000000000000 9.21815329673987 0.00000000000000
0.00000000000000 0.00000000000000 13.49169913499004
PRIMCOORD
 96 1
Ni 0.9288948612967391 8.059117922420361 8.39372582166653 -0.17269894246104453 1.8682671724477309 1.5589791458743214
Ni 8.738634085294379 8.20983472718181 11.971319653471614 0.28920256867744387 -1.13274937710583 -0.2707783005339853
Ni 8.3655938617417 2.998075272990496 10.173159398459811 0.6212880527613429 2.1265619958027244 -0.9701222170584906
Ni 4.476823754300425 3.67230021592977 9.94833325107575 0.3634611701817031 0.5205897690083163 0.5656964315389676
Ni 4.858621223389703 8.5112867730111 3.0498527176794608 0.517707819474831 -1.879120313112151 -0.0508780177967898
Ni 7.5578255334459055 2.666212539766219 2.8989211299485356 1.1393784523865733 -0.2563981205529133 -1.3474020382908407
Ni 6.406395235834418 2.65315963484009 11.512143162820957 -0.9740194952303677 -0.7226368256141749 -0.7823023597956076
Ni 5.993882880294672 5.614878511623909 0.7203922195928991 0.4208908730540816 -3.292979454584961 0.05734074270299802
Ni 0.4224430719782476 1.1317311042307405 6.5436360224380214 -0.1100604416942169 -0.9571759413104677 -0.8556338214999071
Ni 3.6997795306082946 2.8827746128096883 7.9599812938694745 -1.0271138039521859 0.3953847583631771 -0.03746123017025161
Ni 2.3633040257318942 9.072847447583744 10.885170473166525 -0.5923063208170122 2.137164196798603 -4.58052929660486
Ni 3.993525200365379 6.2590246206832685 10.741335019766202 1.0074842026467166 -0.7500933791632307 -0.3577080697480098
Ni 7.436809618283317 6.1128523654476545 11.360334006905731 2.5000566389610297 1.8367475045728947 -1.2275688334805763
Ni 1.1296570197615463 8.21035094376081 5.544845436344756 0.30543882803064815 0.042058876843263045 0.11941462921560725
Ni 1.5378460614521714 3.4205524521355697 5.00761976439534 0.3999579795561563 -1.1376056767568665 -0.1802137627808509
Ni 2.4363486716603173 4.301752588794038 11.258985021587703 0.9954370416741953 0.7093424224981139 -0.5658892642760641
Ni 3.000425902055582 6.995739424141067 2.1634074518522306 0.6233930149194877 -0.6766631870975378 -0.6616605430411185
Ni 3.5698773157643595 4.487138867727218 1.4723354121311814 1.5934229293744882 -1.1895679287567706 -2.221257010784465
Ni 7.092825013605751 6.329543492635874 3.220711187175085 -1.6091200283947709 -0.9979068433709264 -0.7567566501160192
Ni 3.4786175991198123 7.777457251503781 5.027263648856908 0.651056285162711 0.11178822301860103 0.8857908046992616
Ni 6.865726591458775 1.1073214345666231 6.607478186030461 0.718974032050607 -0.7820545054508596 -0.6300472870112116
Ni 6.797954729158703 0.6381072969003855 3.724693433252256 0.41418646445071244 -1.4910156333501547 0.8449161779720867
Ni 7.635018348312717 4.359476664110013 12.86745135467764 0.15642385945010479 1.1968487786889002 -0.9021995850745881
Ni 4.1245889025120634 1.0368486533800008 9.474626185541577 0.4036176877959307 -0.016617296841706868 3.7215003333804746
P 0.648791136455035 5.029783891940809 10.13035029501564 -0.5121341820417954 -1.0914407481650301 -0.15039822208131517
P 4.666948163976565 6.269809859923079 4.06104171982191 0.6049890584910032 -0.4603267104522008 -1.0272014785699857
P 9.268392131339377 4.395833060316689 6.398464858639539 -1.175692199215943 1.6731155574101249 -1.8506656573158837
P 7.5567838821347095 4.6587993165509305 1.8409960911002425 0.5272808078752467 -1.1333404737226096 0.47354963690037805
P 1.6730118417712616 8.257759905649992 12.620782793294666 -0.6938967773670051 1.2945488990455511 3.863543241518559
P 5.410447528186927 0.164454618470072 11.55862201305262 0.93564218100375 1.5161201417272663 -0.17249042599466424
P 4.866650234823784 7.196363310307927 0.5776629445761471 -2.9955562977699377 3.2607187947790424 0.9009070915154097
P 6.647846322508217 6.376712782541949 6.631992942641016 0.4034145706461891 -1.9949243421583644 2.141189258797596
Ni 1.0414024210590318 5.145093770274813 1.4058485603866901 0.6165189135074737 0.5312017401962077 -1.1072013534333964
Ni 1.2926063138146429 1.238449663785682 12.363711546029537 0.07478824875548411 1.3523400990224064 1.457768955481883
Ni 2.5937578556423664 -0.17352067213875 3.298869142681562 -0.49630827075313233 0.9284531194544783 -0.4159420136892385
Ni 2.5627664245960062 5.380396348766602 8.990840913117761 0.050196932569365166 -0.8568504675158275 0.41135310876697545
Ni 4.119316118883711 3.431558927052094 5.551119311410238 0.4135341755786943 -0.6545804962658855 -0.8849089163149405
Ni 3.7978791169245842 8.103033204248101 12.102849794170035 2.27022264204989 -1.1590715599401265 2.2872451447498157
Ni 2.4347170585445514 6.936992133820289 7.237554627866126 1.0501673433375398 -0.7847744754851839 -1.4546445509202883
Ni 5.615044438381445 0.314499419863502 0.9213415065675935 -0.4864257215320978 -0.17081612361603485 0.013682639693415145
Ni 8.260562224221703 2.7919850219781583 5.106526860931636 0.4803010966915987 -0.27055230056610824 0.22827102329939397
Ni 0.741031664599681 7.946610362658069 1.1095623676086728 0.1452400749191434 -1.8402303209151727 -0.6991276867486411
Ni 5.392997564186107 8.115007585250249 7.2769502491816604 -0.5141820657097596 1.1501822278702964 0.3407521586199615
Ni 4.494965079790978 3.8374065578308287 12.702393868988523 0.24169038202909343 -0.43707828144722144 0.047292100217744354
Ni 2.9348387420630617 0.20046441211656277 7.692467722663439 -1.0250831466754022 -0.09653978149996277 -1.7480007367547894
Ni 7.411496569605952 4.925259252846615 9.044376259621284 0.4482096154736926 -0.05041830455155187 0.2376028422232811
Ni 2.9883685576746664 0.42933548512321 0.4689578730073774 1.4159029113757162 -0.3123532957622943 0.23519577544368528
Ni 6.501074887314836 7.74330399391105 5.118723399425818 -0.5220421851841268 1.234180425259823 -1.3693795710031964
Ni 1.5587712692080422 2.3089353581794154 9.901774202911279 1.8806706883184063 0.9246800255652915 -0.407693143416885
Ni 4.928135316643898 0.7165500933406317 5.338908206675479 -1.8743241772750883 -0.0587039415991118 0.10051779231110429
Ni 0.12131366151083157 5.879835888948578 8.15709490729914 0.4205262906258113 -0.4049821722436251 -0.6219030606375224
Ni 3.263253885991878 4.586243232741918 3.47316782695009 -0.7044046188768643 0.29577456546800673 3.25627130053065
Ni 8.853354001823813 7.974522930536825 3.174057192032689 -0.9140341158156711 2.002124202340913 0.4810220340180232
Ni 6.714963695931344 2.713833519178919 0.33631141395686837 -2.888871200305857 -1.2590954433339476 2.744337407425119
Ni 9.227186986551384 4.585828415848079 3.471805383907659 -0.920738267308724 -0.861719879792987 -0.07492348878176774
Ni 8.692091629805661 6.472046922899313 4.879111334314703 -0.143635706546501 -0.7362590443832997 2.5625866391744507
P 8.253731572703156 7.797313153488868 9.518892679006102 0.16617039731390737 -1.2817954560346247 1.8226077227374031
P 1.0920561728733535 6.496659391933751 3.144388565970015 0.9215931591098515 -0.1801731393509026 -0.3976712404045087
P 2.4330209183564104 0.9118947431719034 5.4280071882107865 0.4687902678385216 -0.12892848224331344 -0.8338678905777251
P -0.06552447655078479 1.6325164947793935 8.494441519859965 -0.3152894955724828 0.507742480732003 1.1075690211854603
P 8.543937471632816 2.300629802149442 12.156304020925429 0.48680161681427775 0.7570047615710834 1.1607708020194203
P 3.1299317363120713 7.74106398268432 9.142582776514653 0.5925243503650892 -0.2998975864974448 1.0378057364483932
P 1.414562480603265 2.992498290306662 2.416889150262677 0.1736160549586752 0.07118073390988387 1.127656793074271
P 8.371788460689693 9.061693482216077 5.096853330967314 -0.5615124753646071 -0.060527625071411885 1.1013685488017033
Ni 7.5354807300977855 0.6960562951543533 13.042277317309004 -0.2621046840193873 -1.0005684493634897 0.22317972481941561
Ni 1.2693304769936853 3.1132100064137678 7.443060447965809 1.0146421538477366 0.08811916153643533 1.3899013451056321
Ni 4.482197937613938 5.831274657909843 6.314371334289888 0.8605099186452858 1.4066577386283645 -1.6236318488577006
Ni 1.0029627222299649 0.9492116709416464 1.368786975460488 -1.5305126630035126 1.3457099953003984 1.4133698605412175
Ni 5.776417428237955 4.200177758722698 7.510923569982526 -0.8413780829118414 -0.6931239037567224 -0.7347338659880249
Ni 1.8092745823207257 5.886952303216213 5.0664159109280575 0.49683251868771855 -0.507084792543346 0.7203390307189336
Ni 6.606171051907207 4.5807584315900485 5.1235131518266765 0.1410052109021894 1.11105569418248 0.8905339758112019
Ni 2.1348689713714375 3.004795306670685 0.31468562655806964 1.042415724416579 0.20719260536253994 -0.7120127702414254
Ni 8.1781980254117 7.920965460465632 7.187756320668432 -0.8688585477202971 -0.2607196307464026 -1.4515155183730033
Ni 5.660655860397325 4.006181724704063 3.0172296735173343 -1.3156993078709212 1.065449723417907 -0.9355812458588275
Ni 9.157626802531208 0.8888272366131849 10.577828949260043 -1.3413432336912705 -2.5492768094394225 -0.9330533372306512
Ni 8.992907623064399 3.065284827945586 0.9210889291700116 0.1546125172729789 0.14987860213241927 -0.4083300056699355
Ni 6.2039830279474515 7.5865953895719285 12.440924640833378 -0.4426848290007215 0.8877397008955162 -0.15965059391751862
Ni 0.6716945598868573 1.0072583816194962 3.938793337576962 -0.5734619344169996 1.3265748171328442 -0.16296526011304835
Ni 4.6245262229666455 1.621620637701226 3.034444574611647 -0.4460959115647995 0.6980028291155785 0.060282856050457474
Ni 0.6224585600341448 4.887105316766638 12.366356234181588 0.4421762647954191 -0.7534265573015219 0.15677970012762676
Ni 6.411216329956145 2.202530215833152 8.935080304432624 -2.2746043160573537 1.358603563433615 0.8677745706274991
Ni 5.832141164310307 8.055688769431294 9.865225147302798 0.12151290650553266 0.17286297884273455 0.5686637416974076
Ni 1.5629102199932343 6.881213088828758 11.182406135723772 -0.1010968047430259 -2.5086235546944344 -2.0753805878329037
Ni 3.176354355809237 5.834169158013519 13.243087410170432 -0.5068464512802948 1.2729950841341755 -1.0223500640149554
Ni 5.401810118641883 6.115442666495849 8.636657343743677 -1.0544464303288679 0.15455646722406283 0.5854612728707207
Ni 7.744216591077495 3.169357777533155 7.4041367960939315 2.485755134736693 0.24015080545611545 0.0614503939959974
Ni 7.432725976417304 0.31724366407007587 8.79974491009472 0.20731704675554619 -0.3861393285055092 -0.33302959316472325
Ni 7.287116028526672 7.577450981601081 1.1079178490784316 0.7428492960063077 0.5993303175433291 -0.16290381074749363
P 6.066033365363043 2.4953817247301844 4.578637334539553 -0.32477583779636326 0.4548299490036876 0.7535407142818829
P 4.461060712334549 2.276487458928021 0.9910270574712418 -0.18088096405120463 0.701234962899631 -0.6589225752846651
P 7.915139587645495 0.31226033045209184 1.9591838768621683 0.5104305690871274 1.1186288785440477 -2.314489582288066
P 8.726115833253644 6.329322256959159 13.271865562634332 -0.9208858486301819 1.7695149566774815 0.8825386163105511
P 3.365391023408199 2.437252050673566 11.411035693116675 -0.5983918648894597 -1.64830878277909 -0.3340400367071086
P 4.853837001880762 1.2218016791129496 7.574145351864845 2.3669796817669813 -0.7162898003502245 -1.900858990340823
P 6.1209735584136995 4.777759583550716 10.72471376773774 -2.021902670519421 -1.502671215311212 0.04246459692211396
P 2.9512194002930987 4.62708886955525 6.958505459750092 -1.6617870197711833 -0.17901177205294977 0.027092485341417852
