# total energy = -340871.32680403703 ev
CRYSTAL
PRIMVEC
9.25838208090479 0.00000000000000 0.00000000000000
0.00000000000000 9.25838208090479 0.00000000000000
0.00000000000000 0.00000000000000 13.55057802700516
PRIMCOORD
 96 1
Ni 0.7773235497748779 3.8746605488094263 3.484653068130704 1.6301416249517604 0.2932893371523078 -0.7549784751696739
Ni 0.1824317837244066 6.590671651757522 11.739244796198909 0.8960379363485664 -0.17092102462501532 0.11653113702022512
Ni 1.818772066559658 6.076488903009654 5.257054529560382 1.7185050412885177 -0.33901357866230003 -0.12391920195418013
Ni 0.7225981809293557 6.142519681843041 7.544297936520449 0.434730092930019 -3.460442345458046 0.4467142618750888
Ni 5.1043402996637095 0.9972017844344382 0.8028609442303084 0.1418423620915041 0.722741212402523 0.2885104277064257
Ni 8.167411101903495 3.456246501162589 11.882352529163791 -0.4681390074077679 -0.2513962964629477 -1.6675383204326635
Ni 5.144642035538883 8.420933370102405 12.658150297621823 0.2238181297343629 -0.5647086137044016 -0.04084634459240062
Ni 3.6743462006827925 8.161744972255986 0.8664993572125248 0.6309903676507713 0.14394063938142954 1.1920387588947663
Ni 7.663977334398695 3.1135845332149623 6.2237804986995515 -0.7167106899377269 -0.927344459771332 0.008840738220081547
Ni 7.664819847140401 3.702806466265214 8.547013087303075 1.7550640713594743 0.9543778097400404 -0.21172777422873212
Ni 3.1052982815245693 0.7095336784038659 12.835663103108123 -0.31097209914405155 0.07646795045075218 0.1675906747002017
Ni 2.5113638321498373 4.04764415393043 11.07406061818311 0.8491484708858794 -1.1762706974272323 2.0190029803741227
Ni 5.85468585077866 6.091570806924346 1.7025627101714216 -0.0638219795519675 -0.01244825306568179 1.406826402995745
Ni 3.6456452171741693 6.895115019729796 3.0270769914054396 -1.5187953745665843 -1.6170608805084024 -2.0925560711709252
Ni 0.6358508470318094 -0.002248860933627261 11.446823436964037 -0.46763378563657526 -0.2126891097007369 0.003628340781206655
Ni 4.482862164502477 2.6535910930077296 10.142065616603906 0.9600581479542692 -1.5501731175469173 -0.28170960273450835
Ni 5.079074175794345 3.383114543506262 12.12405369550986 0.3538843251265454 0.24247379716233725 1.836965791231288
Ni 4.245106920469755 3.9975655668987713 2.9240654582402814 0.9176141198574456 1.3008853827865403 0.22856490039072894
Ni 0.5297034999587894 4.657854838469084 13.237816654840058 1.4065500094059067 -0.4258281624546989 -0.03392956286790931
Ni 7.448942159246672 5.053567333998779 -0.006117938678225171 -0.6569271421211913 -1.6966038703400523 1.6384758558490684
Ni 0.25384168237021587 0.2620131301265741 5.704495455754392 0.5761559363093948 0.6570263867032168 0.209266200062117
Ni 8.936153057609296 7.975447814139693 7.807435960032926 -1.9509721049471305 2.8618730744504584 0.06751588346378695
Ni 0.4781972704571213 0.09319394512885404 1.5303614383105724 0.39899895807699676 -0.10431402612874292 -0.0738186857533632
Ni 1.0677136200478807 2.546397548793911 1.1698511619732928 0.9117453197814943 -0.05835427156917692 3.139041337671187
P 2.3242797115825007 5.732271526923495 12.334291177225056 -0.9548586060312008 0.8408612911764227 0.6446920335075801
P 8.748772668825096 0.11571866215405685 3.4956149921546427 -0.9913055360043249 -0.6357106559445761 0.5282915085279483
P 2.632046838612708 0.7657987161388993 1.589116980743612 -0.23399301338483575 1.3673322015558647 -0.998525707901848
P 5.717652542097651 1.3000804858864028 11.961325599883212 0.3716835580914954 0.4580528268163595 0.9489772075497592
P 2.8241027101942806 0.31597745999002913 5.5044616365956 -0.07568376398655999 0.4303322209726395 0.6381336635637719
P 5.969147224687404 7.369607085799771 6.212492679637063 0.20726433914073983 0.23737864202761702 0.06330621625781356
P 0.8605841770952154 3.932210649935104 8.172651345989264 -1.1439359898502688 -0.03312249358558167 -0.38785579697598366
P 4.438644133135644 4.49087066473956 8.883908009241825 0.07148875206860592 0.9693668269497048 0.35427667546895764
Ni 8.150857115286264 5.434429385158205 6.075361232109219 0.4482571808821764 1.079648126405476 -0.6531645897549655
Ni 9.023931775236797 6.660137290230166 0.875992901886635 0.12268790065024032 -0.6112877470155215 1.0138546249494347
Ni 5.5024229409283105 3.6682356687099884 0.9363705128070007 0.13113063210095482 0.5532435504875955 -1.4832876685782779
Ni 7.745821429307156 4.191343497490861 3.997718330198092 -1.0335790999615555 -0.10564637178692128 -0.15834267373937244
Ni 6.212392689113872 0.4726866816234657 4.042529823836829 0.6065695156042457 0.7808784828648875 -2.174090123290675
Ni 2.9574696996916074 4.0368211056331464 6.912529110014108 1.471393488243853 2.544680448317992 -0.1897258160363442
Ni 3.623378809000544 5.695950895212421 0.7847654370472106 -1.0758112691578892 -0.30641713278351745 -0.6592298221124389
Ni 1.59083070721053 0.27864488715073227 8.808512377241028 -0.13942321112705022 0.8347279245851753 0.5722738276461692
Ni 9.164770278828144 1.8246418806062603 7.666266006373964 0.23846184778946675 0.15702369781763278 -0.0522162769922391
Ni 7.2262688191286415 1.7050698799566264 10.159410269024892 -0.9135998564917299 1.1840030330744835 -0.44162347761574267
Ni 7.429906926313211 0.49877587563280396 6.521662451506483 -2.1800000610172066 -0.08923527741874955 0.5512139216520765
Ni 7.624888446536307 0.8963428250324265 0.22051243381128308 -1.063899862432284 0.37240655230044895 -0.3656142119689639
Ni 1.0677969454838736 2.20420775831691 12.626889371551867 0.15074583522872104 -0.10489355278129678 -3.085794819642221
Ni 6.973061335910149 8.900721230548813 11.207547040805359 1.6292723349729297 0.5120087122075246 -0.23514641026298858
Ni 7.50673297829855 8.322507513431384 1.969820713574652 -0.9681941467978421 -0.3928280533795944 0.14088745437740252
Ni 2.111883175236914 7.902454732210022 7.169651037047906 1.2610366262207187 1.0818459053877432 -0.734897902369715
Ni 2.331279048205894 1.8743593907486167 7.060176227564241 -0.4351535536206828 -1.8537841483402073 -2.1517287248763393
Ni 3.189993958020338 3.262959264804679 0.36636712864939397 0.8798165893936977 -1.3441639909695173 -2.2690335068377956
Ni 8.482149790411766 2.131242451532569 2.694532583063691 -1.8944620856755439 -0.1917220205307666 -0.6041681052516046
Ni 2.8266302484193946 3.2059924417309507 4.592697125037266 0.4315000160284956 -0.2731804822175747 0.5865138825049512
Ni 5.567240871748914 3.0880591746558417 4.7563612430615665 0.5537834821514656 -0.8500578700740263 -0.13751648102264058
Ni 4.532394507009294 0.049492531465176 10.600575864050468 -0.4909927720774898 0.3055853809108415 -0.30107412330404926
Ni 0.12505759185249168 6.188107953712866 3.448703697528887 1.2173206733900066 1.3106352630844524 0.7516797498137442
Ni 0.48260426018296143 4.5798529719980685 10.215740115432363 -1.7140937995946997 0.6031589472608 -0.18518216252971978
P 2.4613500537906177 1.2407620338413232 10.822128014135306 -0.011831188306973172 0.9151453466019788 -0.6350995047231386
P 5.461158333348332 6.376562314783195 13.289268259889242 -0.59222610239838 -0.3991226281390546 -1.5566792940965513
P 9.103831609972092 2.4966892970333316 4.82972373442414 0.4872207066295674 -0.4315465529957148 0.5435533197830251
P 7.777614712329289 5.850797330432331 10.17290621214119 0.7386033762457602 0.9078945785768363 0.01727061415498961
P 8.700082839059984 0.2303985338727371 9.457666593048172 -0.1807449526939726 -0.675009967764831 0.29127307805322744
P 6.067887866338844 2.643092088072639 2.578566722116189 0.7998074585589063 -1.6392140195666736 2.0052182678852044
P 3.390419406728296 7.839173692764397 9.12947084662707 0.026632000765231555 -0.34165847248431486 -0.45291576270011025
P 2.3761266495335613 4.170576947165106 1.9703484413359396 -1.4695770038604046 0.8655114856249351 1.5516147350894502
Ni 2.766126723506862 7.70002021465646 11.335370111294633 0.28400354097500763 -0.223804245777292 -0.1908416748083423
Ni 6.01678159892994 4.895693407937798 6.551799410028714 -0.9145437084622379 -0.9054800555980728 0.21288451354099466
Ni 1.563685131840439 7.835572182253153 13.474694204280324 0.20902477347527226 -0.026554610560076852 -1.231861290208343
Ni 0.45207196875885286 2.133557046976813 10.001220632145317 0.3384682476817913 0.5412053883761389 1.1177140800392622
Ni 0.9671027852774919 7.505566422194652 9.695004284062753 0.042393891585178596 -1.0973735687096973 -0.05737236727188184
Ni 1.3898960475048387 1.2548255157605483 3.667653316496217 0.09046657872268936 1.1186011106299059 -0.2818654115860823
Ni 5.699626472777881 7.090781660204389 10.249561909901832 0.5658339855580965 -0.6528426876391725 -0.003744297533780648
Ni 1.0154685716804102 4.077345042670966 5.992092272245282 -3.022926976473407 -1.3998443152509568 -0.40701668617515063
Ni 2.568413980659558 3.024944786082202 9.004358630322093 -0.6614849366952028 -0.9346721037809967 0.4724466336441863
Ni 5.624392862458181 8.240913394830901 8.24054028204529 -0.9312227117798156 1.2865332278299264 -0.9121476974262355
Ni 3.847329805803796 0.6928732203961993 8.488867672229139 0.45979654898034367 0.21493753941528143 -0.9636337811206696
Ni 7.236665981864186 6.814705973996766 12.198473494071363 -0.497349053312821 0.9916238385756921 -0.5868244717668346
Ni 4.099750326571246 7.639794441197237 4.937776456466861 0.5146821452746297 1.4972441307583697 2.9791503456080886
Ni 6.349481548085543 4.302277427942577 10.262191268483804 -1.5874638835775758 0.5143013648964433 0.8951745599070067
Ni 5.8419926093624275 6.067387913722888 4.083534270888874 0.16892019214490264 -0.537838528786435 0.57597030266115
Ni 4.984194279343904 0.8200843118500154 5.8455561605083854 -1.169994377500217 0.011728344180521738 1.4584657244385915
Ni 4.3439123707936345 5.716745220683507 11.548818399810083 0.11725027457443676 -0.5717907173621637 0.21123386531144908
Ni 2.487292039529702 5.540771158248541 9.162791762642403 0.8832094171253305 1.1022108421973404 -0.14548484394009784
Ni 6.930861631770697 6.357240072014648 8.078840792634063 1.152916081861692 -0.4133529128058236 1.188293175809405
Ni 1.58042428609321 8.206490731384108 4.291468267217959 0.39658109266412345 -1.0295123860913495 -1.4413051534989048
Ni 7.458876402893366 7.800519948845524 4.446283223939826 0.9701348154639808 -0.3323569925777308 1.122352350142222
Ni 3.9277481099186016 6.2532962198045485 6.914765009213248 0.33858857530973946 0.13545137096349574 0.7340160139853938
Ni 3.634877719167547 0.39098886914708164 3.466969558936681 1.4445948799937702 -0.07130620374415461 -0.18597843317877003
Ni 4.692083075898561 2.7975311544943615 7.617186398736042 0.14967059988667128 -0.7530740590581095 -1.0598064090892005
P 7.797622075349333 5.581887631720088 2.331079067159511 -0.8425962715896586 -0.7251341381147318 -0.6212088627839754
P 6.519030293567289 1.9943943104870994 8.016060631642572 1.3803589528328357 -1.7229651339424006 -0.6097209167490337
P 4.387380473236533 4.8465962093745 5.2004811877121755 -2.0377478650817937 -0.11751278420720405 -0.6419520088685977
P 1.686210556276928 7.402613216834688 2.0303640495288255 0.06042041006958627 -0.8078889500154602 0.9780142182120576
P 0.05823336970081822 7.264404093668003 5.710891145885926 -0.10823238734654264 -0.038737525779513934 -0.2638499488452682
P 8.644773266324334 8.39425997220294 13.295541739381322 -0.02239456564511627 -0.2552251832907346 -1.8041613431067574
P 5.3032195986149135 8.131470063845278 2.5148653521378894 0.7819658023917951 1.3066598233764721 0.5498926317374917
P 8.434191372807035 2.862987913657576 0.32397577600715793 -0.48594826767504706 1.1781432318595968 0.13455919816652956
