# total energy = -340871.949950578 ev
CRYSTAL
PRIMVEC
9.20710497517939 0.00000000000000 0.00000000000000
0.00000000000000 9.20710497517939 0.00000000000000
0.00000000000000 0.00000000000000 13.47552879960702
PRIMCOORD
 96 1
Ni 4.966920124629451 0.6195820054921011 3.6607348339664267 1.861341648972491 -0.014313074188562447 -1.497470130726247
Ni 0.8675413133121177 4.996373653635336 2.3710735347091125 -0.08311862299805041 1.3779932808141366 -2.472884706531928
Ni 3.070716842740628 1.524899150050937 13.223576627274593 1.0323331433695964 0.49988416102984873 1.5241463544658524
Ni 0.6074442789249049 9.02070719323614 10.217025020231034 0.26247929374998663 1.2354081270193369 -1.2947666714833121
Ni 8.911013743853166 7.431708177933879 1.6540536573456777 -0.5599705847987839 0.9324239311767685 -0.4429211133812437
Ni 3.7867902297065 5.949529995243778 12.35115738971511 -0.7033093289301565 -2.5776075380633157 -1.3515656827502274
Ni 6.970496665432512 8.877472260211889 6.429282775863951 -0.6070837362365029 1.0930068071005692 0.2956064153212587
Ni 6.342028882871457 8.543079412457967 1.2287618237160398 -0.3164112678817519 -0.7253850777832733 -1.0339655367666967
Ni 8.15314930713496 3.4171617909849235 11.92403702502559 1.1144284673094549 0.7483121188930919 0.2687445579334081
Ni 0.6912602388974551 1.7702592921196685 12.367180514606936 -0.8673958471318417 -0.2775081630586511 0.23103855874220208
Ni 9.262531806971559 0.12105777912725807 5.949621145583621 -0.6396290171623759 0.085499207415085 -0.29255605853070904
Ni 3.1699970563293984 5.624795400671218 3.758945181950169 0.8266207220970087 -1.7196957191625095 1.333476429348684
Ni 2.7856464566573957 0.47279128850346364 2.8554243435835955 -2.067698388697297 -0.4390546884473019 -1.125845708007461
Ni 6.5711661058691115 2.5653572615980513 4.707811012612457 -0.5233915001231695 1.1943658643660462 -1.4144574371784415
Ni 0.7142687943790776 6.53696171066534 7.833001692290668 0.6284578310369048 -0.005099268899778315 -0.09045089499340551
Ni 7.407208071436641 7.639641438036707 10.466685801061457 -0.6949712413781064 1.865411962387123 -0.6134806409017821
Ni 0.15139150737445842 6.504718428833951 10.03285437751217 1.1528877997269176 -0.6687752997090289 2.2258649418701215
Ni 6.8444329832979065 6.106584792925058 2.341306043421544 0.6266403182121918 0.013230896867977213 -0.4187668847325433
Ni 4.34450141007617 8.687317919930996 6.912555432738874 -1.6105755298943747 -0.09692827518763306 -0.8403139033133851
Ni 6.68675210247427 1.9947377199697844 13.318794666122072 0.041415843942625444 1.9595976418326124 0.47706947712817843
Ni 8.930882676517967 3.3367101071920393 6.064958550352843 -0.34265400362836473 1.6460945487365908 -1.2523480973077852
Ni 7.668864789416727 0.8231529392295045 11.49618929903833 1.8398839933193476 -0.8378600424562538 0.5599942389478678
Ni 0.983143882706338 4.381606043365861 8.80881856081042 -1.0158418305827925 -0.29446947350333796 -0.4182279815099378
Ni 7.448814979088283 3.263191373490256 7.878009704542114 -0.2319908953531424 0.8182101294358103 0.7978341368826195
P 1.5771034355974758 4.82955011751228 6.70629878646286 0.45335722111290305 -0.6629458375114453 -1.014165471321634
P 3.122120110149151 5.858830803547313 1.5573799751922208 0.40291320552973836 -0.016014887371017583 -1.2874670524981053
P 8.083064823611107 0.3917696849089337 0.410565989837198 1.4511733045422361 0.06926166251030007 -0.6115551417442953
P 1.59719333878311 9.173784521542444 4.515151419051633 -0.245312552162713 -0.23690607326657265 0.7297742079899046
P 9.113210977519397 2.6721780942102105 9.897008146278235 -2.6869059047805273 -0.2760351780575504 0.05109913266866039
P 1.5882716540045216 2.8781042054154806 2.317629052114405 -0.8017311579441805 -1.1405796717835262 1.1951719052071093
P 5.022457382198537 3.8661370608952246 3.496778390351164 -0.20323053539099842 -0.10286083862198413 0.4632148306332733
P 4.215003477763636 0.2824104534387183 1.3909035469289708 1.309784742158699 0.018524026946116483 -1.0495039987219281
Ni 2.1628042152725206 7.289946381715175 2.7275818487562944 -2.5507081425693108 1.8224362301565455 -0.5063718256367215
Ni 8.80109932394936 2.8335878525728857 3.436246278300773 -0.978125289868625 -0.9955689392663692 0.726098301800214
Ni 6.825162512460357 3.7740199750234225 2.1427032635608447 0.9679792025735586 0.676149480685913 -0.10644238532565539
Ni 4.988842241716982 2.470662186316544 1.6756820677826043 -0.7889422337096283 -1.3293487803335557 -0.36287727265377506
Ni 5.697770915175956 8.346111814451424 8.654119861307512 2.4450802827251503 -0.44795970424641557 1.5020104417987614
Ni 1.632106681074552 7.061656212380708 5.826966854443353 -1.6900745538619668 0.9774560317157426 -2.4019052899995725
Ni 4.394974759876192 1.5058036142090463 5.682509217870499 -0.15536919293334533 0.3794017526713595 1.3039395962318316
Ni 2.5393563969801636 5.89170016852106 9.90425782078253 0.7012619594828245 -0.7489993747681037 0.045143172195541606
Ni 7.460885493788726 0.8724707973476762 8.861804529574403 1.30312815607413 -0.6053215021297574 -0.2373999821838556
Ni 5.188885012805104 4.559892425257074 7.392796189925884 2.11953054287724 -0.0456440230913601 -0.2611387205616922
Ni 1.1874127150053688 6.611594504076317 0.1556507141634935 1.7537713206899797 0.22741021796099542 0.18215237456446048
Ni 8.00028374224445 6.4584343118247 12.346750869245522 0.41830948548015057 -1.5310214843191308 0.7062036197588161
Ni 4.954287976521893 6.084856025043253 9.182683188558446 0.4802681865711342 -0.7378117335824003 0.8559279557015582
Ni 0.15170178681412658 0.5016887083652566 2.686751100059075 0.5476871394457407 -0.32648125052324417 0.12294166853225924
Ni 2.5886144089156105 7.902016310209494 11.755458614682926 -1.0149707408317485 0.9460304662166094 -0.6763238014802482
Ni 1.2446440799008334 4.0891423519397945 4.293437884843426 1.670402015133704 0.09951814740199635 3.102198457811225
Ni 5.5000483345565705 5.648697045341203 4.6736904020645 -0.6586518381217817 0.8342589553685568 0.3590980081170009
Ni 5.351270724301453 2.0183355301736254 8.59029897133874 -0.7956903510667394 0.8482544983167005 -1.5135366972708062
Ni 4.124589706323247 7.688954692602361 0.15754921922164097 -0.4788715633339236 1.1065110122345911 0.9473481565867684
Ni 0.1425839906982999 8.350144526456607 12.287876956811875 -0.5332074577723268 0.7162813157097923 1.5813171472498897
Ni 1.643274899481598 8.91828735683055 0.6742510330564189 0.06593954011560256 0.2709801321321462 -0.08351225889204326
Ni 3.3159020498137015 3.60106450694728 8.100867681906129 -1.294332412159371 -0.38376311496384874 0.24611087969429227
Ni 7.304576471615254 8.264242236483202 3.336420083383447 -0.49640057335662247 -0.6673455092410377 0.5044406700522797
Ni 3.148940407115124 3.7163466690862945 1.1569362766301312 -1.9454650590859723 1.421252348613088 0.5790507413586866
P 8.046678344514117 4.836602759968832 0.3714984017541164 -1.029931475906639 -0.7624593569277515 1.2092065289233047
P 7.7198997726238625 0.8250707792082247 4.323569977490368 1.3328251689179305 0.9227072181096366 0.5140131442320632
P 5.821054051590092 0.5157341470956348 10.537621021090514 0.8208761063037475 -0.5577319252762524 -1.5641696889363255
P 5.5724161801290215 7.932749626815199 4.69649087697234 1.1369680431728677 -0.8081835984377436 1.0880764596784873
P -0.2666810351975002 6.476167196121461 3.542285427695489 -0.19265687364021014 -0.25165777765445047 0.5885885056457928
P 2.39088262119119 1.0860609027837997 11.325306350305489 0.09007294282869649 -2.318261390625672 -1.3426272426100168
P 3.2944771163980406 7.427482116722969 8.713600521962945 -0.018859041688032038 1.4892515994711966 -1.252785956176152
P 4.4111608505271285 3.4778550273734217 13.027184473332717 0.5988297237578267 -1.174504092445113 -1.7764703049493922
Ni 3.823416093534389 3.826362367145481 5.581765995291721 -0.5843037622275099 0.9366269135145224 -0.30285152691944617
Ni 6.56918657828666 2.6029314572445106 10.522973437690867 0.4864858853460719 1.6876579740006743 -0.658932088366362
Ni 4.396245340370975 2.046150194483342 11.129520023874894 -1.3246968833838413 1.5446509021771075 0.3708201816499356
Ni 3.505724934313346 6.267534196035999 6.557488951340121 1.3512849182850146 -0.7439170751491898 0.8311890581939815
Ni 9.052711090336627 2.4976205898580366 1.1836267534151155 -0.6577213558877124 0.05698464491515993 -1.9325234113236394
Ni 3.9896503749352275 0.32170913985816985 9.341533371721486 -4.044553789169092 0.0025111964576279336 0.5361665404006508
Ni 8.02721452447084 6.980771794651195 5.459367661671416 0.42074766260799795 -0.11754877965146207 0.1531485311329427
Ni 1.9027403264634328 2.4293222847109073 9.70658495853033 1.8106117267177917 -1.901710796818157 -0.9407936432977023
Ni 0.3834206820635014 1.962245846302459 7.718904484569616 0.6369375863731418 -0.8255827677507976 1.282985619687984
Ni 4.6984409418186805 7.167731269485059 2.4124023877887075 0.2627361469557991 0.24477930536706227 1.2225531254335396
Ni 4.984386002880206 7.7856569167814245 10.95215527319765 -1.3710654433460516 -0.48223482337920176 -0.3082053350321918
Ni 0.8555361690574208 4.365714580076033 13.32741896140804 -0.4488109965031174 -1.3780716994605557 0.716268974414618
Ni 1.5203508401638137 8.88166149300266 7.793733389317831 1.1160557185002327 0.04411164560723371 0.528620866842909
Ni 3.2445009502698903 2.431624060969573 3.6794390678443443 0.525061945847057 2.0496541296010764 0.07087374419242633
Ni 2.242804750918707 3.611219943800513 11.619342615271478 1.8479032640793982 -0.0263167835176579 0.5442650011380691
Ni 7.629126924087122 4.811946132686005 4.2772140450618465 1.3946054354495208 -0.18817364105787593 0.6723794721205194
Ni 1.772754417584062 2.0799218557504853 5.672443089936102 0.5536500418973949 -0.7842288873943591 0.0635484141756067
Ni 5.353287080304044 0.3484760356149419 12.60457835224169 -0.6013820578660353 -0.9702119485588195 0.8160095222400655
Ni 7.036161738539726 1.4439594896912156 2.1666896135971485 0.3618760850827703 -1.0413744276362582 1.2417474389738035
Ni 3.5177309992785464 8.107159817486819 4.543894159548843 -0.7895927228094337 -0.6634793414174123 0.9628444524501547
Ni 5.8982556273057405 6.835778304565324 7.0473106220262 -0.6312410502089967 -0.5730382166160196 -2.3646705740178304
Ni 7.549973442104124 6.135393824578517 8.555505321412749 -0.051503310085614526 0.021157607914221624 -1.0107456470068077
Ni 6.0640019321397425 4.685597030295326 12.052526779336828 0.06987487061426675 -0.7364472491347058 -0.769273037415475
Ni 5.262790444918343 5.164449356043108 0.6271161795419656 -0.6626766430104588 1.0140405157079955 2.0966721502218277
P 4.897977322129894 3.8971465906519693 9.799687204640842 -0.7445991888178789 0.3628916708314782 -0.8963603526849917
P 8.527740375470218 8.138132518823424 8.029649803752509 -0.4157101001840905 1.3492082382616442 0.2796115825548991
P 2.9318276632927387 1.4719398818915563 7.5365531658056 -0.024859482245841058 -0.030779961495334084 0.029414448606375147
P 5.908530756524424 6.94239658086672 12.620897025205128 0.124070897040696 0.10017969224539522 1.1757855302606977
P 1.5368775937010335 5.642997847324747 11.73622865510753 -0.5019415577795098 1.2736167768785742 -0.4004639726582974
P 7.218637353221711 5.361509025099998 10.429142909572116 1.2385315031396669 -0.051051567260176595 0.2165305949340142
P 6.415354267367513 1.822491198981311 6.628585295707284 -0.2193459528956222 -0.572929201841981 1.469085666046283
P 7.272609402934905 5.232278098833469 6.628356959502425 0.24040328778655368 -2.1119951537321433 -1.4043275478332913
