# total energy = -340872.76704816223 ev
CRYSTAL
PRIMVEC
9.17416860318629 0.00000000000000 0.00000000000000

0.00000000000000 9.17416860318629 0.00000000000000

0.00000000000000 0.00000000000000 13.42732308993929

PRIMCOORD
 96 1
Ni 7.343252182786554 7.127420694278249 4.83006302858299 -0.4817769099061767 0.9832564404476034 -2.078400091385517
Ni 1.8101276673938618 6.5129348870740404 13.003515995141903 2.1826441835082733 -0.7607847974388059 -0.3723312189778233
Ni 5.998126420796582 2.821616442961088 6.391097342096801 -0.10040466377200773 0.22687619983439636 0.08596534841822615
Ni 4.25938295862601 5.675929622513335 12.930766673643426 0.1523067519579377 -0.5584405213075028 0.03980581914302822
Ni 1.773999791777705 3.4884959265603888 2.296851251593174 2.778372642632957 -1.687197746534804 -0.6948691685826033
Ni 3.8087478011182347 3.3351130031407537 7.518468709857507 -1.9647025671593454 -0.5089367581504203 -0.6612843906486223
Ni 4.222888116269211 1.0826344524090996 7.117515344531483 -0.2751802862564228 -1.646100976494494 -0.8072011799198163
Ni 3.7575926374728086 8.030810242221003 12.020139624158372 -0.03898486590362963 -0.024162456178816454 0.6503937118780476
Ni 1.9088967656375242 7.490974644231793 9.639757568226674 0.13775919316106597 1.3202892412344487 2.3332779186391623
Ni 4.853190189995069 9.175544641315163 0.925827729299279 1.6420923695557332 -0.8934953724323709 -0.6513013112939815
Ni 1.6959000952006755 1.9255295331571005 11.504556858058157 0.4882414345845979 0.6710265576370508 -0.3457354707671659
Ni 7.8043550665711265 8.379226814123085 11.237004159706988 0.11376617268057825 -2.2982800624077386 -0.04842518538092305
Ni 5.834927137064787 0.30538054739334874 12.105442877854193 0.42165577624456413 0.11099066681797012 0.03850766915689497
Ni 1.5202422906241004 7.603092157666291 2.125934657305687 0.4677816240683492 -0.6406057792533483 0.16049880085042684
Ni 5.975548792078612 2.7964333503845644 12.51967585210718 0.5261644348826164 0.6851645397003296 -0.5043131433354798
Ni 1.1676514720472215 7.0606143991444625 7.59070703016964 0.3862180042622445 -0.013378992410067281 -2.4889913822858034
Ni 2.7921398395190593 5.696865075066933 6.222368787000389 1.038456739768831 -0.06596987913290574 1.4651526495404636
Ni 2.398063430912657 4.054441208146242 13.24618834847758 -1.9658091699599627 -0.7744769502139178 0.38601591555376746
Ni 1.3320892685286823 3.2002435517864822 7.526967659570764 0.4077224539929236 0.33811652076932736 1.256759081891287
Ni 4.223273431346884 8.415143683863372 8.74851828906656 0.31369901115691134 0.29085810200299583 0.5715060962422093
Ni 8.859283530061793 3.1144925986670775 1.9756159061704086 -2.1419474771198592 -1.0362083100542863 0.39870071011028757
Ni 1.7751832595162738 1.575039599170394 5.970821343042298 0.30569850944993804 -1.2662528803143354 -0.42040236345343723
Ni 3.0733923237152285 1.2945393967925398 1.3584292237550784 -1.2649434174742926 1.857148693937066 1.3008684135056756
Ni 7.228400767134277 4.230777901193004 8.06634363171732 0.5090306034158072 -0.046525654365365036 -0.12103725242069478
P 6.256498528713753 1.533709970005644 2.821242136885634 -1.2300908285714816 -1.3696407950843832 -0.963728654827321
P -0.02561978299788704 5.098810203674948 7.564766151273691 0.5298794218403584 -0.5078203851577899 0.14979298439714847
P 5.191790401584991 4.720806938308645 10.992707978543972 -0.7425870434838566 -0.5079139733128607 1.0584056720869321
P 6.9156717107595815 8.330677114336213 0.5484428028909564 0.19777645425496262 0.8302472631060023 -0.4489012422240785
P 5.853587395826406 7.965370898196105 10.46704096641093 -0.7994444187925328 0.8527636990409636 -0.7554397310768086
P 2.581308272851995 8.64404836250703 6.529532792753256 0.06811212228688913 0.033272131789568504 0.5108049217074107
P 0.7351004355182604 7.703806179635353 11.688390681616227 -0.44560457375067775 0.8170652171980896 -2.072703555221372
P 3.809876223845708 6.392762453682462 8.033661573795788 -0.7156477958908514 -0.3188296475152574 0.6002816257130048
Ni 2.1551131002709454 1.0738180764651872 9.117139132291511 0.06475117623445623 0.44305275386310145 -1.6762510177153132
Ni 0.6774095942220086 1.6361212131501734 3.7093787122536233 0.3232128641846176 -0.40100313299121904 0.4713408021745173
Ni 8.968593747930383 8.775046314747534 6.2502711031250655 1.265446582362956 -0.4769789742969011 -1.7602718408126588
Ni -0.11003405976450524 0.7190428883646396 10.305134323023045 2.026504688067807 0.3198012673999073 -1.381167821887376
Ni 7.612862647135871 4.728751768243533 5.617065405063882 0.06173398667468723 -0.3976928376710635 0.1996785563736819
Ni 0.9719022384205239 4.402353200779942 5.554078316283323 -1.402066005492624 -3.0925002566868547 -0.22478177919921288
Ni 8.519582418249946 5.7224977019007435 12.038534749449877 0.6633083630571867 2.4996007823705337 0.9278807918907761
Ni 0.5312375672559791 6.385524034723308 5.015857371952935 -0.8167451148545096 3.039634261925759 -0.4314604210398118
Ni 8.426464607812163 2.2009839428511344 6.7385827358945045 -0.18935403451922228 0.8824244593301899 -0.4942395611495617
Ni 6.415596959118879 3.7986929124246576 1.4592138868217142 -0.6298770799819345 -0.09288547257682714 -0.21208130091340893
Ni 4.458939472186863 2.5083919814865276 10.53186839339581 -0.37305164208361563 0.6939240310605146 -1.1740672620180104
Ni 8.680891823267437 8.06075472825735 8.885450093503236 -0.2699298364907609 1.054492195965139 -0.28925810450572764
Ni 3.764106297119195 5.2959630850846 1.887841131476366 -0.3856413058231681 -1.0059968194679125 0.2646367064126216
Ni 7.050614555461981 0.9559575335396503 5.133950021341928 -0.012853716034216573 -0.5379999940649638 -0.9404259755456384
Ni 4.6216250024817604 1.5442602637990874 4.680066290762624 -0.28507363411073483 0.18636898374896935 -0.47926828455171006
Ni 6.301149206881308 8.389630321220272 2.9619197543274085 -2.5153619018595323 2.5627213649801024 1.261833153980085
Ni 0.7499222221727712 5.38264980339264 1.2915486178563114 -1.264152546141881 0.1346018784790069 0.42715973678192887
Ni 1.8557416332556012 5.215056092941663 9.000522606616748 1.1188841890879635 0.31980332428243635 -1.8981418485199764
Ni 6.72775721704558 1.3408047286189182 9.932607118843965 -0.4077607634300268 -0.9087021620797963 0.37775521820687197
Ni 7.238125385761276 4.4402241684141455 10.775091196842448 0.16970977792573355 -1.1568267297700077 -1.0901400270757353
Ni 3.79977546430955 8.29864091787821 2.773494259427064 -0.41520822084700754 0.5290132171853212 2.315268369435619
Ni 1.6917992418740064 8.514408187206902 4.5041011515407625 0.14550644120665263 0.5541997437532779 -0.29298928941338576
Ni 0.6627428510154192 4.179209899964356 10.804805411249042 -0.5779413103445917 -1.717961510080222 0.9057039986834208
Ni 6.20188470353778 7.006257450686938 12.390357690121965 -0.1641140290055109 -1.095793368706771 0.5487580039124162
P 4.173742095528797 3.259793079624084 0.5003875907870989 1.8065666101141402 0.5515445655186179 1.323930694641778
P 2.7710667744377204 1.0423690267922099 3.4527423570196865 0.7874304250507922 0.32495915745176296 0.7813703348996414
P 1.0417268349960873 2.0370323773010233 0.16710747951962773 0.5932103206885203 1.2559175598265984 2.0684728049694763
P 5.6807368868157395 6.28533294035966 3.724900487965908 -1.2596888539435724 -0.9134867279526333 0.41026784612259665
P 8.526655702175812 8.856778982056914 3.9364614010299963 0.8631478704887652 0.3439711797778915 0.6273059768206487
P 1.181642079034179 5.0677739915851925 3.4057871277209024 -0.20027556652773248 1.853423422566679 0.4848300949102038
P 8.445491833314426 2.908560037987578 4.647612669637141 1.0570594424716828 0.05631332987974818 0.5246531404444125
P 5.509932217384148 2.213836952942103 8.475890440692318 0.54710607013129 0.46034445106401367 -0.7532519793968705
Ni 6.7188857960905715 6.536448280980645 9.072063690121663 -0.6658277870449307 -0.10761583680846629 0.43725491623440177
Ni 2.8568635983997055 4.763494344413768 11.131814978335802 0.8968794584132554 -0.6197831860810423 -0.17394464194268752
Ni 9.001767541284375 7.512176147672356 0.20817839713222558 -0.8869884245517885 0.8582419485467154 -0.044339188237007505
Ni 0.0751080002239495 0.31063826336989003 1.8554682430338234 0.1825778921376533 1.1762303311076001 -1.1067912624791711
Ni 8.984584323653836 5.98516332068342 9.725423201578877 -0.5952301793320265 0.2819888245378241 -0.2638383788810424
Ni 4.679110342403253 4.329611218616279 4.596884104827709 -0.6658059326680597 0.8602137275611056 0.42339538464349014
Ni 4.333225841011598 8.16643197539359 5.249358309023127 0.27174117866788683 -0.05626525025063213 -0.19261085089362312
Ni 5.455556920589593 5.6255542631917725 6.7274911661586145 0.023210119567876157 0.029650990097213455 -1.3170717627384154
Ni 7.846547067576385 6.766325421487003 6.897494930678755 1.0451228389350968 -0.713487812125055 2.4749629292171957
Ni 8.557535953400794 3.7829225167455887 13.199783569289757 0.05148942612854359 -1.8402380342246565 -0.784882461817958
Ni 2.009225472528913 9.11338047545049 0.01769880590114004 -0.5880308333701099 -1.6540467137041321 -1.1487362394523892
Ni 7.872482441971224 5.217303764228092 3.2100433985953143 0.32353476630041056 0.025214294482098512 -0.8172711625613087
Ni 8.98117153296587 0.677279321029081 12.623281571992498 -0.9281268464633112 -0.081218320651544 0.6767374919788991
Ni 3.9302229664390906 1.5080681690033184 12.679716469618905 -0.7170184509861328 -0.03722880244447137 -0.8316958226270709
Ni 7.262088313925167 0.28544783145855357 7.614890138377915 -2.373274770747074 0.1808313417601918 0.48396877535117294
Ni 7.1723007266587055 1.317685823958503 0.77765389876305 -0.3836003641337394 0.3841539226443642 0.6202207878390932
Ni 2.9551005948694375 6.3270570587706 4.0597778219720215 0.12541044178772592 -0.006633189045801479 -0.9818562176659672
Ni 5.939751186529033 6.482339035073054 1.5956090024002023 -0.6321381081019694 -0.23886216855167894 -1.0164144152568106
Ni 4.17014582147051 6.470229132631884 10.282979623473667 0.6258653877193802 0.5285175084958253 -0.8432503602338898
Ni 8.803715591360152 2.7326728791981023 9.141052519945415 -0.4506249097834046 0.25121554791070927 0.07326461302210607
Ni 8.141625023726222 7.502066213967683 2.2918559168361914 1.7604615882259618 -2.3944927995855863 0.35046604347361576
Ni 4.04796424517392 2.9351743008526037 2.7472432936352735 1.4155136463570976 -0.1262617340444277 -0.1841231251375861
Ni 5.013325301442508 4.613937049265321 8.69439344707249 0.7225000429259943 0.7757005382083737 3.685909580760059
Ni 6.623557011040424 3.2197111373775145 3.8424702097494863 -1.4622462745269462 1.2258796187036114 0.26953234394202613
P 5.996264064587826 7.72194351079156 6.606511405937625 -0.25921759227957936 1.611723784566205 0.45885578233362906
P 8.014223345544007 2.3593759622805264 11.336420036831031 0.28929589972219855 0.8505538358738384 0.7345739433713929
P 7.736411174541351 5.542161071380989 0.8021305803638388 0.3399828845541048 -0.48651853835622016 -0.39565292442289923
P 3.5026608427491515 7.2632442591581885 1.0340553952829765 -0.4339451351348784 -0.09085301552783062 -2.3178903804394984
P 3.29441639160361 0.5197735262783383 10.736258776347762 0.9268158409613715 -0.7805902622005072 1.2549973620051742
P 2.8543957470688914 3.4580009904130793 5.6066857508048376 1.5320887492413806 -0.12095523422984976 -0.2774310299638125
P 2.4185401750404534 3.2482703239679407 9.474050984239444 0.2276794124619821 -0.5005040540020348 1.2439732429805286
P 9.550676391935946 0.7922701840428014 7.91273502375219 -0.54283109690502 0.4551014574975194 1.1149665992011122
