# total energy = -340896.1421353475 ev
CRYSTAL
PRIMVEC
9.00766640811922 0.00000000000000 0.00000000000000
0.00000000000000 9.00766640811922 0.00000000000000
0.00000000000000 0.00000000000000 13.18363029716307
PRIMCOORD
 96 1
Ni 6.202291899131503 1.863821336953651 11.35660394089485 1.5163029471620337 0.20724171343292053 0.5413439708365322
Ni 4.607502540868594 0.4054125550247273 5.83196330479257 0.06688287786547835 -0.7956875228532619 0.32534713691880096
Ni 2.763939446124588 1.4280754646141256 4.7320668601413916 -0.4949026486548573 0.565233118749304 0.6402784778209167
Ni 3.3644805791246117 4.502563224842641 4.922583512811513 0.49765835702312355 -0.326838890972979 -0.45874111113263577
Ni 5.202053575571857 4.525920104366701 2.8444211457665354 0.05250038389156119 -0.05456575106102215 -1.1740580060466297
Ni 7.218149516595786 6.17879990460827 2.7059138593455336 0.5262641936852743 -0.06108015514077222 -1.0744544980196786
Ni 5.10340161084085 4.605574900213697 11.33181844544618 -0.17410687855216467 -0.28011551877451113 0.9512958283806068
Ni 5.604597188780767 7.731658574793856 12.355513633629275 -0.15089470210175948 1.5259821221230105 -0.20166344801419464
Ni 1.9392605448263855 6.420502622799204 0.4481431238971664 0.4351036742193539 0.2872148488234537 -0.27962803761513133
Ni 2.708623365462324 1.620425177439722 0.3148089404112469 0.4358855466907009 -0.6796348681313521 0.20878771776380173
Ni 0.4057674570892271 0.26232036629838595 4.685962920122883 0.9375347700407723 -0.6590737561505489 0.5632708528166106
Ni 8.68684054996193 2.3510009856458107 1.2388883435358866 0.22706748990959605 0.2722543708588795 0.04134770970885137
Ni 7.031564710401658 0.6997092370278799 4.817931541350473 -1.0437632395834089 0.2916425455775042 0.12207932053196394
Ni 0.9172506910663331 7.644842683990583 2.6541017609952093 -0.35087510598657634 -0.7998113152136483 -0.04303923847866136
Ni 7.539074662636357 3.911525180117929 3.63294687635214 1.088177504032726 -0.15829099456583062 0.04560777053678597
Ni 7.791703680427247 3.7798871402549867 12.43888769502023 -0.39838523575239776 -0.597576568077016 0.2710919751196622
Ni 7.734315836444298 8.726348175720714 7.047797426402548 -0.4443151655152928 0.3214280043700529 -0.6085562070169713
Ni 6.884379437966974 0.7286121368847446 0.5545497888141603 0.0228355098372768 0.01835202014462646 -1.3809323088378023
Ni 1.6890455816874226 6.379851023380739 9.406098225070455 0.9080074500056169 0.07758586610527929 -1.597775292805913
Ni 0.08593133794200729 4.85503321935728 1.3559762995209985 -0.16545974440012795 -0.6658205879560791 0.6451507183115534
Ni 6.171017280655787 2.132393924647197 6.698036037238039 1.2686512053431829 -0.6960017395251497 2.5112514792355847
Ni 3.395584051934708 4.236008354470109 0.25474581944463287 0.6457711255043717 0.0637823845632837 1.0508831384576418
Ni 6.065420404967182 5.744396174593883 4.80276983690971 -0.4366784749056415 -0.08120803623889886 0.7826360889859425
Ni 5.337411781745419 2.8568084888909038 9.287288003229193 0.016214919196965626 -0.1476736240613005 -0.7021618455892745
P 0.3421354986110695 5.417778183254736 12.382237578932779 0.3881926114901121 0.4686295738909413 0.056827036291373104
P 4.1271236804682445 6.157388681072329 12.663720855180829 -0.8722791433660719 -0.5718706786704796 -1.063942285634445
P 2.484107275166455 8.44764196308904 1.4130218521727034 -0.213481009474413 0.4805582070077272 -0.7507929763334166
P 6.058781754674381 7.773120864207372 5.939422965936467 1.1418281994786463 -0.3872495308505524 -0.9174176875759232
P 4.634894855034681 1.0701288087995924 12.52981468486507 -0.17878860029855015 -0.9052342581358538 0.17331497877848862
P 3.8463907428489446 5.985765609120185 8.362838385006814 -0.3774348587529758 1.3639787117025992 -1.0205459209266812
P 4.671844303475751 1.1108794925507866 3.6227294801145233 0.5107301026054172 -0.5762772923786076 0.4197055944967288
P 0.21857373263215055 5.638339907908082 3.5481892373696335 -0.3042103549401858 -0.08748821282065578 0.00714355302331673
Ni 1.6734983491156805 1.1958398040320557 2.6182692632139872 -0.6137097261934528 -0.2577176106952852 -0.9196067248074421
Ni 1.804001422985552 6.470729371825875 4.779276941619814 -0.1119895403961297 0.4689859287890955 0.414771390419905
Ni 5.83010412240392 5.550452104778021 9.283477760252458 0.2762321245597049 0.4933373610502665 -0.6296197125554898
Ni 8.365293874925156 2.2326762770349164 10.123591298289755 0.9656358991523628 0.1804803861786763 0.31439063790729727
Ni 2.1948981232655735 5.289229773039597 6.927418069037532 -0.40021123321754304 -0.2917677583014588 1.2301954724701458
Ni 0.4488223019596863 9.094320364474036 8.92128398963052 0.4756857094067743 -0.8392165564841483 0.8947346441561107
Ni 1.503109327489335 1.1576022592655175 11.249407303616014 -0.5029568864179015 -0.6120202543061718 -0.0687024475727204
Ni 4.189339633755048 6.887135783950145 1.5135068770591853 0.5048564174334595 0.07204205346891464 0.43011367720393023
Ni 5.311595809236373 7.855973381701511 7.985166740846045 0.5558105398838235 0.10309403767871275 0.857043300252924
Ni 5.302038674961391 2.9680801945448603 4.7729616665583725 -0.9001524727375723 -0.3030047646678588 -1.1475705012790622
Ni 0.5960832387939085 7.407787921771269 6.9101602805762345 0.9318873419470081 -0.024323921457345205 -0.15709106072045848
Ni 5.001560932129311 4.690517196361743 6.965900622335908 0.5955500245652904 -1.0241305529541458 0.14674159916533439
Ni 8.123239857736365 7.032087155065135 9.35290254912858 0.9967187366000962 0.12068989638360506 -0.7792350337241934
Ni 4.632669961381599 0.2348127539996688 10.363151092593775 -0.4062764655750164 -0.5088714521301236 0.03253293963069881
Ni 8.112790964466827 7.29833576477287 4.827213041027137 -0.21438372379434048 -0.6483985358248898 0.09657012051726595
Ni 7.110084540255583 6.201481209136454 7.131883093455825 0.12303988467302035 -0.3426660878132228 -0.511303458610384
Ni 2.350775793980519 5.4302718168451225 2.63274458345894 -0.36784592951296 -1.269962982176071 -0.40753939144784
Ni 2.5350726528552823 5.007001562762761 11.42997048468024 -0.6234405803279714 0.47782769545044157 -1.0482994368908656
Ni 1.1332365210809507 3.2485429021658105 3.9658864481193556 0.21663523883267854 1.2333970101265792 -1.399264531488087
Ni 3.5552449426265547 2.8358296333523247 2.8618897136265464 -0.2501742511303885 0.3664958432429688 -0.2975547972968811
Ni 0.9527949435159818 3.3347192486396553 8.000077131388343 -0.29865162990548566 0.11344992699174009 0.5208975300567222
Ni 3.6618146463092196 2.5769402872663236 6.898664696446421 0.5461300793712659 -0.08300600867958607 0.32487893903313075
Ni 3.9756687740596295 6.650261175063065 6.110652402857681 0.28164352538326337 1.5064077995355087 -0.7254598968852667
Ni 0.8673572257042941 7.366965176687182 11.427558231561633 0.6137117830759818 -0.5146590053461783 0.6159635552246359
P 0.07136774256425961 5.62575619765158 8.032127309959325 0.9410366125464439 -1.0617416784387004 -0.3858498222895484
P 8.273532775152075 1.601500069888604 7.979655850413026 0.33014327275586364 1.6320429557395313 -1.300760941393534
P 1.7566030812749458 3.0707495785846723 10.262388631575654 0.09549745627837747 0.45624971216934973 -0.422455389327724
P 4.116053258202503 6.195887448170606 3.681792750087242 -0.1282913628799468 0.33840731253686884 0.6835786832704486
P 6.9209865950768 3.8575242187809686 10.355200926042315 0.11932541193591063 0.8627755747510109 0.7138338826105641
P 6.267849696731236 7.5805909980495425 10.143537875234637 -1.6806784573590474 -0.3175296977569112 0.6661538029257817
P 2.2964505566455387 8.446687150428204 5.692019295547007 0.1240600984074186 0.10728107917686684 0.8677689142005441
P 6.8075440417694315 3.9093453247979046 1.4250317740660428 0.8652140089891746 0.13684285199438367 -0.09161097673977771
Ni 5.077900906663213 2.664954197728949 0.7929575025585465 0.08203875967031032 0.3825858068262959 -0.6322309249260918
Ni 1.3266311232335009 1.1367405033928903 6.875856383819012 0.26610197810423847 -0.1356416325974309 -0.11424619764079033
Ni 6.8582662124597435 0.4473621592019346 9.206050560358527 -0.693167098289832 0.6844639140888793 0.05241990836261295
Ni 2.822867601098132 1.4879944629149533 9.081530378652127 -1.1995245257488503 -0.17226853979184525 0.14145463973478217
Ni 6.451389911610621 1.9354593095162609 2.567103014559719 0.345915705098772 0.012084184858043705 1.0079277179420383
Ni 3.965228888456704 6.793104752190924 10.454830222600688 0.26382552336523596 0.6280395125525636 -0.30248205939516937
Ni 8.565921633366875 7.136125704429921 0.5138612579625867 -1.317662345134563 -0.6927626637625618 -0.14279932668813472
Ni 7.518032753431496 4.003538494556135 8.253163738643106 0.2000804197977909 -0.7602299533766003 -0.7897536738673301
Ni 3.0486177417197995 8.350881608346484 12.323517501057964 0.38503118304299494 0.03688247484864615 0.19271009547564877
Ni 0.2274670018778521 4.728709702795222 10.226173307963434 -0.7229502430895356 -0.9179933575737351 0.07401049004919513
Ni 8.54129467285057 2.516480828968796 5.641724088254087 0.05971078559707137 -0.4612170834769541 0.9873869176762091
Ni 3.7613944007012288 2.6167361583566806 11.263764623428353 -0.7322512087754873 0.1917204778688698 0.10125595602870949
Ni 1.295257420425055 3.2782141559846503 12.513255891332838 -1.3320535808592286 0.11572329640694909 -0.04942097363528908
Ni 3.004011776658811 8.185870163687305 7.888280278770925 -1.1843012810411926 0.2348857004024342 0.32337484368377856
Ni 5.748017256571774 7.8733761935952575 3.6910868604971627 -1.2310225963571315 0.9080167059769974 -0.46729979933592425
Ni 3.122021216938297 8.236168974046869 3.5971405008040915 1.2149863688298752 0.059887420384251704 -0.21688180762584583
Ni 3.3559232958435254 4.080427936753349 9.020978141388499 -0.8130113588436901 -0.4566744584115941 0.47718080589506207
Ni 7.351111683450643 6.012338225624611 11.45438666579783 0.1074723692520665 -0.5892143121552498 -0.4802576450481728
Ni 0.5989819059095437 9.117289914333794 0.17517659643044792 1.1255682859763583 -0.06036615979288314 0.9110372379708762
Ni 4.6191134231310365 0.30458523880700167 1.4967769378613311 -0.08405244766622944 -0.25350871482026016 0.378276895038297
Ni 6.201607316469017 5.715967978767453 0.29079269969121296 -0.09621865071511816 -0.7254056466085635 1.245503820692442
Ni 7.88299638153652 8.384786465472807 11.355232073269892 -0.5212001488988056 2.2243248510765112 0.8436979892942695
Ni -0.002982438415123862 4.9424526238235345 5.782142801530085 -0.3599004494136383 0.0255038006980593 -0.10603023748890125
Ni 7.862954323325555 8.748984441915841 2.7679163309336405 0.03589619967597688 0.26418342092528696 -0.8412528701878866
P 8.622967186018581 1.7448750993465516 3.3866502481892535 -1.1565487935182728 0.1697876823515205 0.4745963329973375
P 1.8789001708615862 3.264873801732768 1.5269021780773997 -0.5739139343527535 0.4940387579926653 0.5572925237459886
P 4.699542878306636 1.0749569181034473 8.242814830472959 0.9830903471833844 -0.839787855606586 -1.4627262994871582
P 8.398324988390147 1.435407705236025 12.291270054588187 -0.23699683320816603 1.0179331658941826 -0.955988862980902
P 6.575956933183401 7.768175655237566 1.259508693943321 -0.78537842761777 -0.8643385483627567 0.5944524206257374
P 1.906895998690656 3.2119357450559844 5.950260089636967 -1.2844426638494848 0.015737208229598704 0.4908852999653481
P 6.894044664241295 3.997125035928627 5.837223782093784 0.21919862868448056 0.7897637011696592 0.7534576676497733
P 2.2308206977129124 8.399982399046694 10.053375636285129 0.8955931355016641 0.6906720997821202 0.3525506939167864
