# total energy = -340885.51166809804 ev
CRYSTAL
PRIMVEC
9.13018924965081 0.00000000000000 0.00000000000000

0.00000000000000 9.13018924965081 0.00000000000000

0.00000000000000 0.00000000000000 13.36295486053478

PRIMCOORD
 96 1
Ni 8.975779368905627 7.566388594060968 11.719404853773604 -0.5599199340665066 1.7073428540241111 -0.33994406089636936
Ni 5.063584629693704 5.401273804760781 11.609040040620158 -0.5697595458647478 -0.35093629824181494 0.09622816379681491
Ni 1.9242877906860008 3.193867979422344 8.40042132764354 1.2657247757250072 -1.649307913467566 0.2731154333075942
Ni 2.588855996893281 2.6324709103550084 12.756810724131824 -0.18066627693723722 -0.6137639764701559 0.30468446636312685
Ni 3.0230330106590255 7.214766750385435 8.695782032896945 -0.6680736456563139 -0.4125021347697541 -1.1417585225829754
Ni 8.562236582567872 5.257875054325386 6.961538215879461 1.567186107165146 0.06216773177799616 -1.9095644885346208
Ni 5.108450379065888 5.862047059454726 7.247037403856331 -1.2514690371369415 -1.0774596033945896 -0.5834894938563306
Ni 3.177451899371227 7.017545535043847 12.943959514828032 -0.6220570697168836 -1.5058470419360326 -0.29444941889868004
Ni 1.0970561349844505 8.811143798559833 9.478276674893008 -0.10143156237462532 0.38177976598523283 0.02194102304746544
Ni 5.777428466621716 0.6440672795405519 1.4925887102494402 0.9643392918281263 -0.7882974010367778 1.5121315893931635
Ni 3.14030115981172 1.1711841405100443 5.853093995996369 0.0504967231979711 1.6015746119473449 0.18334073844560683
Ni 3.711239276517219 4.513737249872564 0.25019457265892875 0.25410315387114946 0.45357216533718664 2.074336719949421
Ni 0.3916988088503825 1.0807861379593726 7.37453319086957 0.6044462986136558 -0.44276144787492777 -0.8278584511588517
Ni 8.534599500079146 5.044639487254289 1.7573751511718256 -0.5500682380834075 -0.04356682884735722 0.5305833898859186
Ni 5.944638750301446 7.955206828241647 3.8974659181115565 -0.07735420971044743 -0.5389459029180008 -0.5442557451666885
Ni 1.56388270506988 8.535421217100614 0.7130595536819669 -1.2847306274035486 0.653577508922668 -1.2136871904024775
Ni 6.663257676143104 1.7445326271451842 3.9942139672003547 -0.25201001878754664 1.3690180738987197 -2.3681564756839024
Ni 4.450519820354248 2.9739673742882236 7.141269640928546 -0.3017433814569319 1.5900244452159003 -0.5781937926750301
Ni 4.272307658775968 0.5071308769695508 3.5397533252691145 -0.3773099031393373 -0.26787475373394515 0.7606953230487932
Ni 7.468293842075875 5.7330648776515405 12.809554913702067 -1.1338690925325698 0.14245582730578693 0.2987873841524015
Ni 6.020693225732926 3.9988767547877324 0.6528897812943864 1.1061759974926757 -0.11749118694064925 -0.007589125201167574
Ni 0.7555204112379869 5.723496439445995 12.694111889355947 1.5990222778391365 -1.785419800833196 0.42458323430400424
Ni 4.296411358072379 7.891596800590852 1.447916520886757 -0.7270223562763802 -0.22526257549037335 1.928262836275073
Ni 6.276356781679184 1.5814674493293077 12.594023104065421 0.9145668483906894 0.5074766286651261 0.25556096936359857
P 4.966567240025646 6.928727055212221 9.35365415839817 1.8178282990708885 -1.8123464500207112 -0.2770731324037615
P 2.694419243584612 4.695300190860611 11.826669054699375 0.054274959293480717 0.7445158850754533 -1.8571852036019565
P 0.9221217113029166 1.8453207849228699 0.6277141977944143 -0.6444853168134127 -0.7297839781819173 0.2989030837946594
P 6.857246804533582 4.214002271008208 7.3834196039472975 -1.755955987046124 -0.187945841317786 0.09612891921478928
P 4.761886660166949 2.24997076705051 0.7077211320991593 -2.632935364101343 0.40913681784194694 -0.7965601552662024
P 2.215111704961987 8.436596049985326 11.450569173973204 -2.8323074449781998 1.5739666204220892 0.8151199205462607
P 2.881076830105764 4.733692636141449 2.7862826414902355 0.3207268645379702 -0.08076940603958348 0.19419310777907847
P 7.339585565946512 0.01445765448328335 11.45961536536066 -0.11366795653981714 0.2589023750320057 1.0726123026046173
Ni 8.373049933658422 3.3307203842533726 13.285957226144342 0.2061451379346321 -0.2152123903432229 -0.6908495059002489
Ni 1.7983459618622493 6.316374400624705 1.6201383653785322 0.21330386046660038 0.3719715216455594 0.48908938440718996
Ni 4.3693889597679165 2.9079287163295318 2.9926203506755606 1.1161572770751036 0.9067890042174833 -0.8383125566126401
Ni 1.2365562946624338 3.6996165457580017 6.030514570177302 -0.36952023189158945 -0.020176989168507187 0.16124982008383842
Ni 1.4302806475682157 3.9177824149579106 1.3958141836121725 -0.030066223257761125 -1.078770351786213 -0.8913186764960264
Ni 8.139654908993963 2.033147035652333 2.0146529245558136 -0.09026037624915423 0.9745352585245217 -0.539838075714967
Ni 1.7020681175135135 8.693209145600836 5.0722966561590965 -1.6098898166812594 -0.08311219524014718 -1.5436450866204126
Ni 2.9434999331699943 1.0821008851937224 1.6954779470013355 -0.19399513283565945 1.5015957228588463 -0.40297516911592535
Ni 2.5558138424411165 1.6558784907178516 10.501839352496221 0.5051996597054912 -0.34363899324945335 -0.3147382510547031
Ni 0.797394197633113 3.77994394970112 11.36725072007194 -0.1708168949469832 -1.1282820853630955 -1.1009013793572975
Ni 6.959231017086959 7.154827058763866 6.090126488009196 -0.16724331866311198 0.2152401582573648 -0.4352160314275021
Ni 6.29590451660101 1.7626377921848755 8.269009602513545 0.04056815123034949 -0.785486413950544 0.16490412900697407
Ni 7.924575043719124 5.03135506207388 10.436293724750412 1.1540334832955867 -0.16918964375620538 -0.15705403683493596
Ni 3.6145049227121113 4.473226600714163 5.125174146490599 -0.28041505229280095 -0.4053035601387859 -0.19879383977588344
Ni 3.7357994852700016 4.801091692280128 9.440272262650087 -1.059246937041305 0.37596598751693316 3.316723078058804e-05
Ni 8.382773585079134 0.34819345765818466 5.088893513954936 -0.028874002721872852 -0.5793261065072602 -0.09355935871540016
Ni 0.45034566569150797 1.0735002470356845 11.813706925195163 0.14376760413867498 -0.17050964811920957 0.14393806827826824
Ni 6.929046611831681 7.040097102188596 1.9040069015772432 0.8981436698376597 1.2314902800221694 -1.7733384441886295
Ni 7.512365264993973 5.952454192194525 3.9533764572711916 -0.9170883292609626 -1.1851142638607914 0.24069433666441128
Ni 8.090634923568796 0.0888458703990087 0.35722412772412443 0.45149445687255146 -0.548821767270816 0.2537768808799823
Ni 5.782906580098174 0.4366339476599356 5.562262777569081 -0.348924924238741 -0.4159728669271739 1.956576338507785
Ni 4.079624147430712 7.9541203357354835 5.745562280529165 0.4956151013408497 -0.8670772874501583 -0.581187070975399
Ni 2.0585015708592027 2.7940661277213685 3.4866484932283384 0.086322988867961 0.4119544897964002 0.4605635090533552
Ni 7.578449573898302 2.1540033491321067 10.39079342723387 0.0872699261622626 -0.2835700529820149 0.6053556978018027
P 6.822150357527746 3.8645077613993646 2.77921404906778 0.6502402170193189 0.12265833296388554 0.3842624231977705
P 4.394204813816268 2.4052478935406896 9.156831019302539 -1.500229952859571 -0.7557935148718016 2.1074826105737703
P 9.112376128441088 6.63752880318201 5.283739054085566 -1.1676479887552278 0.6877418135092026 0.7639647378286842
P 5.271880764446862 6.0912056763640585 0.3770074215254369 0.37147092786005703 1.6231438534776885 -0.03516163550279751
P 8.94186071629723 6.984923369291545 0.6927047100412773 -0.6825954934215728 1.0867245736362834 0.6114021611061987
P 2.47214478927736 8.561551818383315 7.000972415739739 -1.3130657269028159 -0.03853286596787557 2.0631123119885113
P 2.2966260334916706 8.297908477139684 2.741316460037649 1.1614410886135673 -0.024272499394119487 0.48931281327190573
P 5.071938752745301 6.153993986993386 4.872654114660914 0.7472924193793258 0.5034865336691264 0.16985941612972036
Ni 7.137141882424035 6.2495779369684366 8.42646519212953 -1.9574042337257191 0.7455723513644256 0.6914051212934027
Ni 5.45418325075423 8.348727109822953 7.791991915324081 0.4041769027335104 -0.09720878254252935 0.11348695087726261
Ni 0.1627456211964166 7.452434703561531 3.3430233141025827 -0.11081968845774463 1.0512281805018864 -1.3237800279965266
Ni 0.955565594076688 5.202482196889275 4.0482537306077795 -1.0596408300456137 -2.1706538439156167 -0.7087384703655277
Ni 2.6755380124690893 6.5906726725800455 4.095545371231123 2.3545139451998027 0.9564758299196496 -1.5826507784596484
Ni 1.9044387595229706 6.541415302237568 6.263631124073375 0.5371132205846363 -0.6828325491330434 1.0103458404652277
Ni 5.135877467204684 5.6012523372188525 2.5522174609438224 -0.7307579120594124 -1.0577271579626688 0.9330127138007028
Ni 7.616248556885857 8.935314370692863 9.318643535170132 0.7942528472892644 -0.7841070171045141 -0.6253971898337101
Ni 6.070690141394726 4.085084000528914 5.198336178006511 -1.0228036066126063 1.7394888426290367 -0.23461007814354431
Ni 4.76820475104313 2.8514219758198758 11.306849953899436 -1.0578474855906168 0.35187500800600047 -0.2645523742289315
Ni 3.783020823437063 0.47318848586942186 12.84143844715396 0.2835052611823505 -0.07091591028427142 -0.8441150222270302
Ni 3.602562635333435 0.4307751052968645 8.506562515306637 -0.36558798671671877 1.125620222260216 0.3574288479446941
Ni 8.21351813903486 3.4971363414790155 4.536856714781039 2.698510578898991 1.1028569604217715 -2.346404171608475
Ni 9.05687370873545 7.734292772114382 7.26812448866504 0.26568365961989726 0.6062051902862915 0.564807344065795
Ni 7.4111845090838075 2.4958376300630376 6.230798050952228 -0.10986478074364306 -2.502196825232484 1.7204840193917597
Ni 5.764481858439022 8.21291554655245 13.05086307328327 0.8328222229220301 -0.8669731577721262 -1.2713230957483912
Ni 0.8311101600428819 0.7608314422534121 3.0536620561248107 -0.831912052402935 -0.18582750942320253 -0.6115299449333145
Ni 5.312966615520291 0.3797154356206323 10.371790764602952 1.3686853731496493 2.063103313127447 -0.4476964232827
Ni 4.082536677762362 7.879234524512313 10.996950335479513 0.8794795177692529 -1.3289140067889822 0.06667333295783356
Ni 8.615867313502388 3.0426081361482327 8.206350940569829 -0.8897929838801193 1.9015704145855508 -0.02075934403453844
Ni 6.573918775531214 7.077640439880582 10.867917024617215 0.3009705078466494 0.7618659463181267 -0.7564206069328392
Ni 1.5901776497568747 6.470254608178388 10.445661298795153 1.1357274858975472 -0.3580816510373446 2.0369071143480535
Ni 1.2015876703043817 5.408313180578029 8.467369352439325 -0.26063761255555756 -0.22053663076961375 -0.31360208056773087
Ni 5.962780436097646 3.9492815674475397 9.309863945305196 0.5085390084913695 0.4922739527827586 0.38994944628021877
P 7.301293552746077 0.21181034454830572 7.088365673048574 1.5034304620747398 -0.4228315417202202 0.00916881098346163
P 2.7929796352152048 4.7440280102336985 7.163385698051917 1.3775711056750535 0.23363974381047506 0.6588436424176137
P 7.554574129330076 0.07336015661997687 2.832064148831901 0.5596723368320747 -0.7165962758470498 0.06477328772164329
P 0.8928640202440714 1.889008739897616 4.999228665591197 -0.5000669664646161 -1.301598863913797 0.6829109677794626
P 8.86349630301651 6.80147047915412 9.403284040457047 0.6608974396228489 1.4049528401221159 0.5885239709564445
P 0.5350373000375366 2.0969305368965503 9.69664066919698 0.8931030220899586 -1.440065881775165 1.1956845831774698
P 4.842405798081743 2.3088878774898074 5.079913972948109 -0.877907545296443 -0.16931177115636648 -0.5820635600430814
P 6.739713879896192 3.7464270254143286 11.665939379262293 0.13574987604052105 0.09928854788969352 0.9791056515040235
