# total energy = -340861.8929001132 ev
CRYSTAL
PRIMVEC
9.35444750144980 0.00000000000000 0.00000000000000

0.00000000000000 9.35444750144980 0.00000000000000

0.00000000000000 0.00000000000000 13.69117948041850

PRIMCOORD
 96 1
Ni 7.342558451313723 7.206937670747955 1.721487757110053 0.10513446514750925 0.8637587645998867 0.6460102380983712
Ni 9.011541565220606 7.735417185030134 11.270209408278188 -0.21970950688262805 -1.24031713428518 0.26355915707772676
Ni 6.359780191813132 2.921824274147833 6.482979201478549 0.6354543169593959 -1.444636788975299 -0.8849071165427276
Ni 9.168658866254034 5.578122554616584 13.279772990329002 0.10398081115904029 -0.3412337262420704 0.5259713450352038
Ni 5.41291365645325 8.453399097760467 5.754731718007916 -0.3073036491535288 1.047110044568455 -3.428299699287231
Ni 4.847437302114675 7.880326932012085 0.6461416264433291 0.5459099929406599 1.927462194750648 0.27169001371497725
Ni 6.493483310631349 4.953685117376503 13.265452266576201 0.8404072343581398 0.4353816104710889 -1.0714470786519226
Ni 3.6639032437644543 0.8606288188501736 12.640983959659208 -2.026432440068975 1.1683486143666781 -0.1408969674590993
Ni 7.481406516283903 6.5177487475735205 7.709708356831148 0.15270861538204666 0.37559214911728217 -0.1909162368000196
Ni 1.6401620610083376 1.8990838147178069 0.892053214501614 1.228536339600168 -0.6103307824188908 -0.13586506146214666
Ni 0.8520769829008547 3.9563700463847282 6.7212603666710935 -0.016264027267346184 -0.09774768576513487 0.839651844249354
Ni 3.721386323953215 3.6241936139188424 12.459260719792823 2.1604949011047436 -0.54333117646989 1.1606036803139368
Ni 1.2993795367973486 7.44938624232359 9.410207539975453 -0.573407169919664 0.6018178598518732 -0.03251391346730529
Ni 0.9365579341608564 -0.08039960579436199 12.53942272261944 1.340550562586646 1.2001295063227009 -1.3591087852048078
Ni 4.952319368034345 1.0136292275172751 7.2959340138398705 -0.3365057246387818 -0.9247180778920784 -1.102447383688179
Ni 2.7367933016281136 9.275215378284981 10.457829894441131 0.005481591939861527 -1.5449347519661134 0.771010331821556
Ni 4.443933207087472 6.707821767322164 4.426659284243442 -0.214232800038773 -2.3193744211841927 -1.1879039107907865
Ni 8.116994455002422 7.913984234293477 4.752304441430598 1.2214827751874964 0.814124903622843 0.21744307944595456
Ni 2.3468718644420954 1.5003130701504106 8.568254875656908 0.5795791030583308 2.5315595946653175 0.5842207155954002
Ni 8.763695477409183 1.2670599205154665 1.462834476045241 0.3607753958194238 0.6239931103973319 -0.5735881755822186
Ni 7.9929264171597 4.841394328998004 2.2859613146713724 0.9079251747044556 -0.9090400050351892 -0.2840336228819947
Ni 4.111476141195116 6.784771452860446 11.337583881305287 -0.19913888182012804 0.3379126322886374 0.31904536307048925
Ni 9.127686385989303 6.032047121933033 5.956676467141027 -0.7739701857808283 0.17605963140316133 -0.5096702938823351
Ni 9.150632845827062 7.964956618988116 0.3202588662884276 -0.2615714372237366 0.07073901838677495 1.0977245242912128
P 8.560535585539453 2.740628625123214 3.095959186162447 -0.9255120345482835 0.45875499508970674 -0.84836942662801
P 7.887071488694931 -0.17097872141157325 12.722994401321511 -0.165527878633902 0.35236634582012216 0.36165317043868683
P 3.0111498937934744 9.529656351618465 5.9891242393543305 -0.2806593070931231 -0.029515492960613683 -1.0204050244734426
P 4.642509419658179 8.66094622553069 9.926023003165763 1.8020823490905413 -0.8058726909163797 -0.4951636156257278
P 1.984040907358054 3.327919551146116 4.800360109379451 -0.22903078428355395 -0.6776566613590587 -0.8288735226869273
P 0.8385523226344741 3.7847159338601153 0.5219594643405094 -0.21356277055494186 1.6477853061754524 -0.6238817816304482
P 1.9011137298359453 1.6998434363711183 10.973288953179823 -1.2711431185271012 1.037093540872717 -0.15259394418105335
P 4.9663884571480805 4.6319014761375845 3.5817768069525426 -0.4751964284751816 -0.2180855981259599 0.09219513137802186
Ni 0.5671657675659287 0.5316955733495349 9.444969602512387 -0.9264330037006561 -0.24889615574891324 0.5146379223002556
Ni 0.705228058941992 8.669440063905204 7.317839323665424 -1.120345604124838 0.9835199785216353 0.2102676447434379
Ni 1.611752603801948 6.480508691880851 7.2564619869620035 0.7085086137429089 -1.0927710369406793 0.07103238125747767
Ni 7.342118792278918 2.9978665782738587 0.287348048921447 0.5648225135744467 0.030276539496354306 0.4021621862963267
Ni 2.4222874205823364 5.378592188395876 13.153773259067407 0.2877177566018012 1.082908799434619 0.4615664963965728
Ni 6.501238147649491 0.41696795138451503 9.058016331533674 -2.717077029047269 -0.29006800200153265 -1.388225500065106
Ni 6.288938960524363 6.9484462216257405 9.882594980419414 -1.2034801679624887 3.016788724786153 0.21103846147119137
Ni 1.92294701041537 5.409022206272855 4.689421038671786 -0.9594976474651089 1.7071777892011568 -0.5944264524838085
Ni 7.789841360870363 2.105302610936068 8.078808664662546 1.4659131818555722 0.4170139065971786 0.7813263690355835
Ni 2.6904420140226937 2.2683506317155775 6.471396524523346 -0.5003587866734222 -0.7621785924625389 -1.0487455232893486
Ni 1.2854227010542032 6.3273576766082105 1.4762244322669158 -1.4769928367085015 -1.119755278839007 0.7195129352732125
Ni 0.6855687519729606 5.537907784603324 10.648862680508305 -1.690705502577746 -1.976836631418718 -0.11994427646683216
Ni 0.5707831324331367 3.1717096315249433 9.674584807495513 0.0824161976143871 0.22490467793032234 -0.21785419884144416
Ni 3.7847627060978604 3.8616375560557494 1.7332893281379034 0.1584858841854561 0.04691466227366759 -0.5013275783445947
Ni 3.775202460702757 4.395935536713424 5.781305832605186 0.45263654089679467 1.9796224216939713 -1.0203944829504812
Ni 4.452370918776693 3.140802536822964 7.522837364478536 0.76819883051469 -0.2566032945851839 2.2247398271267427
Ni 7.221698988980316 5.0687541766770625 9.70955173243377 0.8038266070206286 -4.094296664920174 -1.2648873674253762
Ni 5.185600581011937 5.348480221735564 7.84619629468471 1.98572647770918 0.9825717556757531 -1.2288479573033162
Ni 4.358929342209479 1.2430283447620207 2.4838396854549227 -0.17897346261584662 0.48412278443053397 -2.1727678049348254
Ni 2.3580784926058276 7.80426591899096 13.561140740932359 0.47926957010329074 -1.5661057296167737 -0.2646392775157829
Ni 5.531743203668517 -0.08991307895172065 12.042829713697623 0.23870404570725984 0.7604009317368259 -1.75357206019498
Ni 6.428264102319546 7.387113684989729 12.361519839132079 1.4555529216671708 -2.623540553150004 1.048604112615478
Ni 6.774734130640343 6.101990326257095 4.0382953625743365 -0.07334791676453174 -1.8868711607021635 0.19121088522230295
Ni 6.063178723376189 2.962338386482661 2.408935817595613 0.687504500687416 0.2843079595893039 0.1983518671424584
P 6.6340619483981005 4.867418402079393 5.972982204663733 1.0612364566675077 2.1299957040746222 0.2465330548333754
P 9.048547759724551 8.793105860503319 2.556704283748545 -0.16314240912086098 -1.7661426977711392 -0.7440327747914476
P 1.8597015905364107 6.945303127249268 11.561462003606598 0.804817253068672 1.4950136987659544 0.30343465311642576
P 3.0645357259557615 0.1259754096979678 0.7918044064529755 0.1999528930809911 0.6748749848488635 2.9786291829972957
P 7.09191538368514 2.5482357023824123 10.313743338843496 -0.07871406617245154 -0.41183004840339393 -0.38195048723514224
P 9.200856874717779 6.146349116534573 3.624014008525901 0.492158767361133 -0.29669836283385675 0.4861585839136402
P 3.731994267473809 6.9968367787968475 6.330472707642035 -0.8881215097149672 -0.814852525817487 2.3927272230447305
P 6.24626397080571 8.128986856760273 3.6510128150418977 -1.827144177155176 -0.7637150837117235 -0.18508677460243608
Ni 5.6703948252401695 5.524437380132729 1.7039491034003857 -0.642126586773249 0.28920513978060514 0.247927878298373
Ni 3.0322815908067224 4.682658708538596 10.432569144279745 -1.892442998362986 0.07531352513133481 0.7595226428969307
Ni 4.569395057614998 2.5655227214530107 4.574209791768482 -1.1978566511281241 0.4388934802790893 -0.8232780308770209
Ni 1.8132006317702063 8.37390500248885 2.588208192204152 -0.11539393809198836 1.2456228627688095 -0.06486121944975926
Ni 2.1810549271880744 1.0530862872790636 4.026548982787025 0.16609583532223007 0.8312805894665232 0.649232858800727
Ni 8.295336997524588 3.820197353413568 11.777440294952758 -0.36919858688611257 -0.7118842150833611 -0.722111292128008
Ni 1.50127657824796 7.781543965894378 5.3273475892775615 0.7683556678075283 1.0696892154205513 -1.41242729412229
Ni 1.5641104024347625 4.04319802853478 2.6428353595561944 -1.1690052741140706 -0.3914167748543646 0.08680455649006986
Ni 4.002281674955344 8.85018669944747 3.791443652537374 -0.3700246823318337 -0.2729555106909622 0.29049969022231265
Ni 7.2142996209690375 9.39729091879976 6.861636012926032 0.9987105702191447 -0.08145820457649197 -0.33902206330273227
Ni 4.685811157362616 1.8971942163129036 9.54805093727887 -0.1337081630201439 0.44059529346154447 1.0242693925248554
Ni 1.582070941728891 3.5032967337952408 12.01210690161236 -2.484706638867521 -0.6961578054870398 0.1587044279541654
Ni 8.999726897966188 1.8024804348790233 12.633015841236947 -0.10765183225272427 -0.044259484039007646 0.25941171056825646
Ni 3.008755155220924 4.671536270402805 8.029274058556194 -2.863079178943418 -1.6515684273669686 -0.18608770506312466
Ni 6.4397420094622 0.8558589860449255 0.4722330920594011 -0.22347925833770546 -1.3130855243971582 0.06064512448588264
Ni 8.935639577807816 0.8541349613616402 4.146675056432588 0.8412698394687512 1.0045395181960957 1.1795015456597042
Ni 7.880766591046888 0.26047739833687206 10.565044959579529 1.073041419722236 1.7384292910162706 3.394817765479702
Ni 3.1023370485013726 8.872309967900915 8.085148173766521 0.035350097364519766 -1.6176370647268463 -0.5062157596748315
Ni 5.3789663662978375 8.03909061581414 7.780984569930945 -0.2634133755284818 -1.886578826272725 3.3023179583770674
Ni 3.4426892681251062 6.568721132268159 8.89424240562436 0.9705986424742766 2.1477993079149464 0.8972247575678162
Ni 8.512098256130601 3.960448585516103 4.92007552277761 -0.3498708330917781 -0.13100053428099373 -0.42268293195749784
Ni 7.009596245253718 0.5366234963183614 2.85251623681235 -1.1932124674878934 0.7489104145987231 0.3252280948424334
Ni 5.396590145480201 2.19798647725181 11.874346758892129 2.285355126815954 1.0505329542070747 -0.39363743665476725
Ni 3.421117912077054 6.871066231500203 2.1397531703696178 0.8927965465931333 -1.1786489678514218 0.36194653330938953
P -0.3287910578978935 1.1165749227942978 6.369314244755098 0.3901808455647345 0.17659879173608295 0.24617104350826635
P -0.1430014396819486 5.1670320026271215 8.55021014633484 0.8820063979561649 -0.11053249623462899 -0.884064308926458
P 5.053562553857446 2.504774939069641 0.3715623984263015 -0.4256211886502154 0.8724580921460974 0.1501143722923092
P 4.695942024058212 6.060353680216384 13.399118903048976 -0.9677688863349657 -0.9285086552827622 -0.34445891804758744
P 6.006696569075174 1.2299227637458365 5.042940578665527 1.4886039385848686 -1.438892173182038 0.29825310891548634
P 8.325897977667253 8.239968022481907 8.98016768358593 0.39050197634957906 -0.6621074007705501 -0.8125704146515297
P 7.81731537332185 5.859139513436851 11.524686863957115 -0.4740463740311385 1.1300875140029505 0.9186914120820242
P 4.926024015974035 4.586831747846381 9.828103452556832 1.6652904049387514 -0.43571251144794637 -0.5349915462559431
