# total energy = -381170.9238397686 ev
CRYSTAL
PRIMVEC
9.22950634653597 0.00000000000000 0.00000000000000

0.00000000000000 9.22950634653597 0.00000000000000

0.00000000000000 0.00000000000000 13.50831547095127

PRIMCOORD
 96 1
Ni 1.3590447826853573 3.4935249847722476 5.866391332723622 -0.9899464508732694 0.16339591989256375 1.1096739833436051
Ni 0.461456849200017 7.698820255425053 0.9765629718315684 -0.7757858988333284 -2.0300073019044267 0.6259288939674639
Ni 6.135360370213955 0.6713376652762246 12.045446031020354 -1.4337592228308467 -0.044624066467277984 1.5192268056770482
Ni 5.609380043419688 2.8941608544660533 12.935143659685881 0.12328388236302638 0.2325028019925544 0.9700715663262132
Ni 0.5921983417202731 6.662928172068472 8.940761986849063 -1.1315988084411543 0.649580729058449 1.6592017755425101
Ni 0.40884128045887824 1.464667251228999 4.336655140086066 -0.6773051915569109 1.543456367648374 -0.1183062266427769
Ni 3.3443669356518533 1.7762461498278106 12.309479128614049 -0.030896689578856468 0.7148718369567753 1.6010876450085973
Ni 0.746310789749635 8.25563636231407 4.582399048264688 1.5843875586450973 -0.3643201757478887 1.1485572906723638
Ni 8.555078460306895 5.266402364850109 1.7460573581151753 -0.06757347617459974 -0.2783805383612754 -0.3379388575408825
Ni 6.243345592335644 0.7922414271760098 2.1002461178224654 1.5816585897497082 -1.2299365623818044 0.5102585622856374
Ni 1.9308865256097676 0.9140644478897542 8.144541719565645 0.9060801510759169 0.26999539962137376 1.3578970242848936
Ni 9.127492432613488 1.373267451684462 6.684603667295206 -0.9767050124823308 -0.15420216920843768 0.07162039255046376
Ni 4.303746412906827 5.164296338155045 2.3089492489121155 0.7287023150819644 -2.702219395209146 -1.997466648964244
Ni 7.221267147474589 7.397218452989793 10.446710050298888 1.3439148510731886 -0.7695262910768618 -0.8668528301441781
Ni 3.5283571410361154 8.744735582476006 12.563368075982616 0.6462989729833838 -0.9745234314499797 0.05792489734124217
Ni 7.701995205545554 6.158434135624573 7.557132568594 0.10507532977479968 -0.7504489627304366 0.3444164948454262
Ni 5.58532795035566 7.5096153790579905 12.553993666571591 1.5330865943782759 -0.3155599756250501 -0.7830145553712837
Ni 1.8518911823499782 4.590682530047099 1.738452245035836 0.15390186435919945 0.2648128269791697 -0.5393745058149871
Ni 3.9057055005613504 6.6848759377270515 7.7431283456677535 0.2970197507290175 0.31002207652595637 -0.3545502408453184
Ni 7.5369624058226545 9.166071768380041 4.036041817760996 0.46508736506563775 1.577519113660038 0.34469314554558056
Ni 0.7735046067119722 4.345528387312373 10.85179676765015 -0.3637676456785284 0.07431233756033007 0.1821832278023959
Ni 6.144636023909023 7.737104246994349 8.008201608606157 0.47258058811888937 0.6959917122228206 1.5435070183806514
Ni 2.3543362684254157 2.5573300270018624 10.336508823747163 -1.3229883853331665 1.1291881421171328 -0.8279648948297289
Ni 8.335360836560833 8.661863846627233 12.23141504252623 2.6860420141183354 0.3293562580781941 -2.6648972617199203
P 0.9736852118095563 6.123389700718926 3.5383406978539815 0.13296588553748068 -1.410331587935526 0.6711831378195731
Ni 1.8084202083163754 7.8574385483638 7.131931065508377 -0.5674111002372293 -0.42142411984973227 0.30513492363698413
P 2.187826747716237 3.2275675351433084 7.931488722220785 -0.26091966257235066 -0.013620418996912026 1.3412558161837869
Ni 7.669599638909047 0.7630568057340447 10.450289252789384 0.8740555185402044 -0.28515513808094756 -1.3737051949617438
P 6.787074259483758 0.6905747249743645 6.4801553385472745 0.05680261081134089 -0.4672239517926663 0.07906862129839286
P 6.489893390501171 5.945260231748962 2.576819052218286 0.3639422235831797 0.44974122162687064 0.683355768626365
P 5.71824206862698 1.8907289442891293 10.191105337734387 0.9347914029676804 -2.320342184414101 0.08903010338647893
Ni 6.1236942744223475 5.123114281650175 0.5831488109262289 -0.16664219474400332 0.6251344230906266 -0.08315744665578581
Ni 4.676221593177339 6.355290272601794 4.043187301433356 0.798458914950812 -0.658430209029279 0.7505389513410815
Ni 1.030382068176525 2.778201339018455 13.597334884353335 1.803040342128437 0.16905723194339917 -1.845413664888325
Ni 7.78396244979023 4.863497502756073 9.853884102159448 0.6877752378502993 0.9852343901095808 -0.9763946803307636
Ni 2.8148055604658584 4.009814330094056 12.563962456179596 0.5043026018125186 0.22856310061851606 -0.31871960429995433
Ni 1.2786373249824383 0.26734187555357597 13.465993473932405 0.03329707149023298 2.8287860620885024 -0.41866121239261445
Ni 5.24119658351555 0.877212875677149 4.638917775162686 0.8685988663010074 0.3439619238065108 0.2632591093388047
Ni 6.5708915365986025 3.0200051710155598 1.5906583169265172 1.3375734822361933 1.377748511793182 0.7612637939577535
Ni 7.292002082717377 3.062691637025202 11.153653304455545 0.9895523007586443 -0.8554322470120622 0.2806963309786456
Ni 8.425856144501275 4.093562869028432 13.070105805375047 -1.813360235997206 -0.32837178267773776 0.07994793857955264
Ni 4.611227410768713 2.719400155246038 2.792601214535913 -0.694246961617572 -0.4977910259462459 1.1463538552631418
Ni 1.9771355809988087 0.5756572207727098 5.946387154451616 1.140163924402346 0.43028671244668476 -2.0285924238347706
Ni 5.8722732970020965 2.748814591391493 6.153010877802461 0.2268869984676738 -0.26001926224526833 1.5313696116871691
Ni 6.4456563674559355 3.8709102623221394 4.184714394857151 -0.6492449429855851 1.4537341232908771 -0.5735295544301413
Ni 7.970832261097738 6.717972946832041 -0.05609601551567629 -1.1933585061474543 -1.0221369195628847 -0.656642778111553
Ni 2.8049299888701142 7.750523948957164 9.90056879023944 0.5921808509827414 -1.2098996983355872 -0.4638210967587044
Ni 4.547368457618289 0.9678521639137522 0.7662419083113262 -1.3526941399277157 0.6433915695286015 -0.7760172981178443
Ni 9.244642554356275 4.05902605696182 8.274342725407765 0.6730510442662473 -0.023218861318624526 -0.14596692578283893
Ni 8.089246825185025 3.909794171792112 6.278272812513003 -0.746528801740424 -0.11225205002889699 -0.15128396712037817
Ni 2.789489025057329 6.766187887034066 2.5754004771208416 -0.8844646296886702 0.9836009682712156 0.003496443189032688
Ni 8.53963749649411 7.322597895651857 3.13795456799217 -1.6067756965323101 -0.893263458927223 -1.7325957150536289
Ni 0.5806882245828408 0.1122787883892965 2.493729500024037 0.09405840983900575 0.7144162374765954 -0.2070851332503982
Ni 5.346459101318786 8.542581708960505 10.22043209357128 -1.1033642390754934 -0.0038054897890192523 -0.5314827617717364
Ni 0.975318834400628 9.301034837019824 10.251986852196223 0.1992260422172956 0.38579171535810336 1.0650537735310692
Ni 5.554704448902688 8.153936433890232 3.4265999896740604 1.0087558702702886 0.6398958976705172 -0.8289959071974045
P 6.654224747755587 4.224114233721704 8.13953009771846 0.32423822012533837 -0.643422422766537 -1.5128808088543622
Ni 6.761416232347151 5.29242034272712 11.799986391631592 -1.217876803003793 0.5774725982382893 0.5542226265714133
P 4.026233621560251 3.394593908197685 0.8639122343438528 -0.5974770663846742 0.18195928471704792 -0.8102664491087013
Ni 3.1069471190827658 4.890946054088544 9.542544247770289 -1.3923297520414666 0.4534001585356966 1.681291408352698
P 7.25495484497409 8.874890078404215 0.3082479698241347 -2.954809454869879 -0.08328497337258559 3.2620303145016147
P 3.3441915750347326 1.7028992643405405 4.315339595599737 -2.2530237616731004 0.6700778205705363 -0.17489543589173107
P 4.371610971732535 6.470631411136387 11.088084123812886 -0.9779725663408448 0.3235594488907589 0.33581744032250554
Ni 5.03793516926034 7.8168840982780985 1.2195121855436564 -0.6584253239332726 -0.2152807816873131 0.4057375623524109
Ni 5.433004180620928 5.493771249206331 9.530062263633761 0.6977071522520306 0.8538471619131296 -0.1604437792427753
Ni 2.2522117827180237 1.9625529612592987 1.9865865953109976 1.2079441172711132 -0.6042254408521014 -0.5429475678782262
Ni 0.17185248182766105 5.963802309632934 5.9774029099165675 0.5201567952359558 0.2914409710896594 -1.022539297207626
Ni 5.673303603113262 7.985082618615334 5.797390621689096 1.6113849131695475 -0.29232825879061913 0.005804522496919036
Ni 2.521953329874304 5.8855268678539545 5.280670258429417 -1.7661123587538359 -0.4131739640257981 -0.45035751505463084
Ni 4.788120125912669 3.5397463516427963 10.939993005605078 -1.3421916977344948 1.478981070783124 -0.4154010535841039
Ni 8.637645622452249 8.856366459532572 8.524300826100982 -0.3794883988478948 -0.5675383698437129 -0.8748569313955772
Ni 7.919451600281375 1.753541564663763 0.18716054075168098 0.21754720912398662 -1.1106165497625324 -1.1683696974126005
Ni 3.561869477918496 7.817253278524669 5.343348757741434 -1.8971126359245134 2.4348130964711876 0.13660219673848734
Ni 8.756069416045701 4.402742096024539 3.9270967269982253 1.0978196551081805 -0.3601069089974895 0.4753504375545427
Ni 1.834862743476943 3.4739768907163726 3.6977121184957316 0.788537542072042 -0.31061754401811026 0.3487392905904962
Ni 7.273949168660111 6.25937724454294 4.837489677335842 -1.6734824538312405 -1.3649040517303461 -0.17924085734462034
Ni 4.328693768068786 4.304900101177358 7.7642685295369605 1.166688453055436 0.5265254177664609 -2.0534927866208763
Ni 0.9969066493188015 5.37428606240399 13.180846958037378 0.32194762431894874 1.4493339373406524 -0.2781231709348307
Ni 9.251287798794532 2.589457937959606 1.9424686328952812 -1.774130858182938 0.4221702539871374 3.2306469150943267
Ni 4.0536267958557355 4.232706903960619 4.841866309158928 -0.14865321436575044 -2.649979206957507 -0.6155084699650883
Ni 1.4710725285069866 7.6681229179227675 11.99006161042994 -0.5150025047285259 -1.3309711464283271 -0.29756842414363593
Ni 3.5051541625391986 2.4386570367419758 6.421691031749853 -0.003763580807490292 -1.1017344167815541 -0.6798055893812615
Ni 1.748899123063147 5.415588102488995 7.572544920937676 1.8252359043888697 -0.6730340749853828 -0.6686408310136935
Ni 4.2333345103797875 9.123053040148486 7.383415726521161 -0.713533577761326 0.6730109350569313 0.3261125543299158
Ni 3.7823531506761903 6.013761626500002 13.350956909101232 -0.595507087142497 0.7059079428952681 -0.1053182990235412
Ni 3.2771576717638076 9.096905849185175 3.0113137450606886 -0.006498463240150098 0.45835647409970737 -0.1281221842919342
Ni 8.059906225088886 8.059869307064227 5.965299335532775 0.961447572102628 1.0258097404287816 2.044697042706117
Ni 7.228060064011475 1.9583443064484023 8.326971215457533 -2.2254872468157285 0.6271241998271457 -0.7433956554280811
P 8.970572368808963 6.37592744838505 11.2683123824846 0.6072184620421541 -0.35749363974435855 0.539945804937425
Ni 4.380222100983777 2.2083993169563434 8.645523928914049 -0.5096417546372449 -0.9724932883938283 -0.0032689005592588865
P 0.20445663530347966 2.072882477946706 11.783357590375468 -0.6014748746901576 -0.3495224486134239 -1.523485580953402
Ni 0.05013560043480564 1.8935716321877172 9.081100319878901 1.5731109572900133 0.7692270146688882 1.3215395687017821
P 7.336220646750284 2.096934571010734 3.6598619137161545 1.1141577301465715 -0.5829140809688348 -0.9479832190676061
P 2.489483927188483 7.94758313507 0.7846049337757119 2.306586782501221 -0.15941533797826093 -0.09799554010988284
P 4.96158869426969 5.677106159652931 5.994922358517541 0.46940270461154 0.945562011220623 1.8210213520868896
Ni 3.4983520164961486 0.6548593049705781 10.43952303384879 0.2556028783451275 -0.54340291024809 -1.5294770226501466
