# total energy = -340892.5666282163 ev
CRYSTAL
PRIMVEC
9.04378915047231 0.00000000000000 0.00000000000000

0.00000000000000 9.04378915047231 0.00000000000000

0.00000000000000 0.00000000000000 13.23649958193775

PRIMCOORD
 96 1
Ni 6.610304567314851 1.8774363972450676 11.50229368833374 -1.234756352367951 -0.4404711091788543 -0.13073236822127163
Ni 4.77001101275062 0.7516863051164302 6.01348772779465 -1.1667442459940358 -1.2377056648042621 -0.1809681244483722
Ni 2.784600814978038 1.6544255967418442 4.593819909485938 0.2606908343909962 -1.2795879068603446 1.349418040279605
Ni 3.5812682149670456 4.188377791096709 4.852050843063486 -0.3839551763699968 0.3305770178591726 0.0653813536192874
Ni 5.09476444294934 4.429747483891653 2.7792414654351445 1.8239804347152138 0.5609733150316855 0.5164024703998461
Ni 7.2452328393505905 6.170197604514704 2.5032340595972 0.054916963752853806 0.08551129159994306 0.35017705147828726
Ni 5.2469533293951915 4.392396634056772 11.463099714238243 -0.653615561249455 0.30471197716695264 0.5150014762872615
Ni 5.68066633315581 7.980411515846292 12.508902708899486 -1.24975899642437 0.005424256339364852 0.13416376250032377
Ni 1.8811443508606367 5.991863123184436 0.2781779152714483 0.15742453280047727 0.9071605286242892 0.3675895905277798
Ni 2.544180720060252 1.695819020396626 0.19814218866885186 0.4995617446934235 -0.014981818120812907 1.2086717394657571
Ni 0.5955633703223533 9.355166972081154 4.6058119741060475 0.23641062168739285 -0.5955916764365033 0.41818478697682815
Ni 8.648087348960022 2.4313594484645784 1.3838896834341912 0.6491341284393336 -0.699333375001544 0.06461439354627581
Ni 6.8065547952608325 0.5543607706219342 4.855425985232584 0.3209055562076796 0.7101749457017382 -1.0411813377888455
Ni 0.6357838145041119 7.664005503177257 2.621806276812728 0.14936900948585244 -0.8227892641660604 -0.4467302027146887
Ni 7.5359997093363615 4.016319699544991 3.585675253495989 0.7658933223099649 -0.735501854502301 0.6388224621006804
Ni 7.500918850617355 3.782438264295635 12.516288771625913 0.9569879936693776 0.3779989587865619 0.29323302999307566
Ni 7.688767398297814 8.972189626328692 7.001671836406738 0.5847058827619349 -0.4847123383854169 0.054260818226093646
Ni 7.154767814920008 0.6795168664524244 0.5225917475468815 -1.4118608800958588 -0.06869807669734619 -1.2091129407682337
Ni 1.7938717840551661 6.713946392764664 9.209731987489224 0.2978291340041903 -0.7183716225799176 -0.6044231586852041
Ni -0.05482887704817069 4.8001901376656315 1.43311593300713 0.5220864081585009 0.5510761105226315 -0.1215008223206746
Ni 6.471798934089382 2.1821216589731827 7.056590246969041 -0.9094603804020596 -1.9714874512916627 0.9412286739525918
Ni 3.8813682755168832 4.26840628266786 0.9209987022347661 -2.465524666622431 0.33085058323553346 -1.6120605990803332
Ni 6.059130828044446 5.630165813669618 4.984469101706908 -0.2547772971200386 -0.036042495445854056 -0.3271371389396882
Ni 5.33570907764689 2.6175620264912975 9.697364063093802 0.23441493141360273 -0.5993241468957421 -1.2351487027103631
P 0.09530887798301911 5.5036070261177255 12.328026018395226 1.2484176519051273 0.2129228229780978 0.6994693863587761
P 3.9642907796660403 6.055621837793614 12.728218217092166 -0.3064523568968271 -0.7464812363319402 -1.031394690715727
P 2.3423142989550794 8.184303745756068 1.321087801733616 -0.8934421505969323 0.4464826054802569 -0.23090357582623458
P 6.174610973696161 7.69420271567088 5.845820395951124 0.6778860037610455 0.11651776728378642 0.2900124661732489
P 4.632165576144508 0.918116446582859 12.590439704526922 0.3146773159097806 1.4959554938539332 -0.35507268900769173
P 3.9345728880056487 5.998799709582342 8.322250472802411 -0.05028486429748114 1.2736633138457936 -0.22699267080760263
P 4.642656371739776 0.9062057760665061 3.685292592704513 1.2743490270589084 -0.5501415145235041 0.5858651931773587
P 0.19015019205890424 5.600095214226282 3.630626503863856 -0.22601153784125594 0.6845081370632533 0.4241721149085146
Ni 1.5475913136669193 1.1291984889911169 2.379366703742853 -0.18039399711245707 -0.3567613895640243 0.020514060792951767
Ni 2.0277893944617467 6.385928154626382 4.891482668817738 -0.2028962919800312 0.7696972694370873 -0.5573568013250207
Ni 5.979681138988895 5.7532156109706785 9.223656709884082 -0.3703933785251621 -0.26672264240737287 0.5641589118485187
Ni 8.843930606387222 2.2421633761774853 10.078231492801113 -0.3378622386666762 0.7755267316346708 0.9002013236976368
Ni 2.4474121744832016 5.03384547818233 6.988090778005518 0.17567756547339422 1.315151148676935 0.8151240343113187
Ni 0.6618380671165347 9.047678135668097 8.749868866949537 0.05004498037253317 -0.4752285672646976 0.6076642913303212
Ni 1.4962678093538577 1.043861293097187 11.353038607138842 -0.8452877023788927 1.008079155918238 -0.016852295670648398
Ni 3.994804524785383 6.646452593171999 1.6450318127894257 0.5040827724922287 1.4887317224119845 0.26523654478014963
Ni 5.609157091111161 7.953705206024888 8.024906054854194 -0.4935253086913565 -0.001675845040526146 0.22589840930215935
Ni 5.388027398783642 2.8438195473554706 4.605335366409608 0.8365096990759465 -0.6512172362206076 0.7729160334847011
Ni 0.5315912222855472 7.557885679457526 6.58689290993772 1.0914713442926494 -0.3447579373452449 0.6972260988505541
Ni 5.234653775938669 4.486026984744549 7.246599355914768 -0.39140083401476466 0.11084514237904136 -0.13194078670707599
Ni 8.116999865738835 7.136544579467881 9.396048517261201 0.4607738252919484 0.7578876783966689 0.0032483317339685996
Ni 4.8377489946545555 0.3128228633458936 10.490230358437387 -1.4832398460594778 -0.6952715462273446 -0.010921274898194094
Ni 8.15225255645466 7.4290388132111485 4.617632206729337 -0.3832992879535528 -0.8912893659199875 0.22106113581451606
Ni 7.285739971653357 6.303087044580982 7.204931001065075 0.7451149521120328 -0.6797953049686164 -0.8172634492518247
Ni 2.1721463593683707 5.371784753189587 2.636233833893015 -0.2807102149357166 -0.6092828007703507 0.15016836545869622
Ni 2.430319412694358 5.199545785851743 11.24870854932282 -1.312815558565223 -1.0210097479369769 0.615931673545436
Ni 1.0724306235156826 3.0735679708918617 3.7877035584297434 -0.6139591232000975 1.2727469726791112 -0.5644093372964281
Ni 3.6910598171451197 2.5253334631459925 2.6198609577329504 -0.287191451784686 0.8950341776744005 -0.6208733338214275
Ni 1.1153705351418355 3.387396503608613 8.14080492795079 -0.10398235382093704 -0.35141529476076255 0.19709305503469282
Ni 3.615571307805714 2.7430988658515814 7.238022226136704 -0.037591327990212677 -0.13353512777738938 -0.7951049108769145
Ni 4.01603029828719 6.917865754042359 6.138281167673958 1.0617424497696488 -0.03819476590216648 0.22335121740027342
Ni 0.8125663815894237 7.551880603358166 11.486078174107606 -0.2506979848443424 -1.3160281519652497 0.2588167572967349
P 0.22903125104440475 5.540957875952606 8.175709432778325 0.09166805522995825 1.7435455291969133 -2.8170078385066515
P 8.432429149162793 1.6379206812579081 8.091393280697071 0.4797115427367158 0.5293024662909658 -1.3317504477965127
P 1.8473296226445068 3.308380916439763 10.297586793666744 -0.21816504521364363 -0.7726452963218178 -0.0989699882080102
P 4.056636912272326 6.003222122553107 3.843429579377096 -0.4189378630927688 1.1935585379734024 0.13073648198632967
P 6.979906148683347 3.9695994839888185 10.23068897978936 0.12111695661869464 -0.06838414500135319 0.5271568807028727
P 6.166164074484108 7.562516099582335 10.469303934361616 0.8054741699263807 0.5280799067377745 -1.7399292726005646
P 2.604801239780156 8.572336569730735 5.792133749492335 -1.720487104715553 0.2626466725657864 -0.0037201291640645605
P 6.978142609768625 3.851985004060824 1.3979600108368804 -1.340506339612272 0.8585126857095989 1.0807045926944485
Ni 5.372752438645357 2.665096183085034 0.4156154769798482 0.09956365592795112 -0.2934767705727655 -0.9756074085427778
Ni 1.4359457346810607 1.3575903441315684 6.747781921696199 0.0013881385967782545 -0.9816911528430126 0.3946252544893333
Ni 6.835395439358516 0.6532193359076629 9.302505891329698 0.6973209725572055 -0.3142453705786846 -0.34488057896603835
Ni 2.7264402059494386 1.5150788911108917 9.171371850767764 0.04827760405946525 0.3190857293901215 0.7888563588640415
Ni 6.289159609049332 1.861727335220083 2.466237726303125 0.46653283926291267 0.6787653210422052 0.9525566973709014
Ni 3.929770635884021 6.713240977198775 10.615368366689264 1.5096134509570003 1.4831799393558198 -0.890632449062279
Ni 8.165637364627935 7.1481206297799025 0.237905921490644 -0.05240371041269685 -0.1603206234013497 0.7700999041921446
Ni 7.734574191134053 3.8992297593967593 8.163544631782466 -0.013040892344358186 0.1760588600722129 -0.13190530548345022
Ni 3.012974582539877 8.50895769427242 12.449153106089774 0.5546741122865351 -1.1615884128247091 0.5958914670651092
Ni 0.12405908418764 4.828904168713026 10.106504186930364 -0.21390215617223163 -0.6374487216816054 1.8323655734551152
Ni 8.425718657497544 2.4822217195230207 5.603261444862406 0.8137937455356694 -0.5802905273030587 0.21221217006431842
Ni 3.4952075159286142 2.7251469440786424 11.54699261697996 0.8624256476107599 -0.16282899164550022 -0.11216720362457457
Ni 1.0122442056824796 3.440456415468477 12.663915066366753 0.0191896855545734 0.07467512021638753 -0.5889890835183211
Ni 3.1649554618316844 8.534207954015516 8.032980349946827 -0.23324045148952735 -0.7805712360371138 -0.4531502473084196
Ni 5.559479556451839 7.714723073606799 3.7043008290684245 -0.7587042607606934 0.3199095108429974 -0.5744518091340945
Ni 3.023863304864622 8.376393830621167 3.3548831766736544 0.2977993092075194 -0.40326159000809264 1.3891811791101558
Ni 3.7069045360096986 4.073584973432269 9.31477650466044 -1.1945988063124586 1.2588038802354578 0.008023641635424891
Ni 7.2740373082910486 5.935285177284433 11.474020089825558 -0.8041096854786861 0.382373947925806 -0.5414259890273772
Ni 0.5257896314455773 0.10504632592907615 0.2577290032710493 0.5892816750580754 -0.4443573316071379 0.6918686911933827
Ni 4.371405999076929 0.4924252839368993 1.526804163946466 0.06568422957168688 -1.6682703135026817 -0.8473430422460244
Ni 5.840967498609381 5.6151712109998275 0.46243698297625063 1.5283027998363874 -0.0565347018619349 -0.3732385612834411
Ni 7.835168259587654 8.753013392491326 11.59829803371441 0.06511010223577172 -0.3428635485360095 -1.1470989609592825
Ni 9.325412905263539 4.903596824593481 5.873974616440462 -1.0863111402479486 -0.12230763449268613 -0.06223843711493152
Ni 7.57783627866715 8.869560705281181 2.562943869733963 0.9869351748507711 -1.030137421269858 0.9597622139804051
P 8.383249022915317 1.6532770354999486 3.4846145255141843 -0.2977774548306485 0.2933322745751013 0.049713050954411156
P 1.9258658889801241 3.397498416263712 1.5575521432088413 -0.7790828244170452 -0.3363720272743949 -0.16359338061535053
P 4.76715317532984 1.0941447616400282 8.142049353359331 0.07674562959217104 -0.15753689000862547 1.3487914624391997
P 8.512186327054758 1.6710661690653745 12.357596496289924 1.455941672465157 0.34141293213241203 0.16793494541349788
P 6.201905129822474 7.703807219914134 1.3019529523194178 0.29429849514311257 -0.2803849703858139 1.330449212486586
P 1.9072809019557466 3.2966239903416166 5.85915003700963 -1.0419508689650185 -0.514852609414223 0.15824882847398553
P 6.868115869068588 3.8857816446983415 6.00197136649205 0.5351694665947042 2.1378787063671245 -1.5225011055529456
P 2.387144362546242 8.441047880371666 10.349910541077078 0.5340314963355189 0.734446159544277 -1.8557741821870426
