# total energy = -340861.9159933262 ev
CRYSTAL
PRIMVEC
9.36412530145625 0.00000000000000 0.00000000000000

0.00000000000000 9.36412530145625 0.00000000000000

0.00000000000000 0.00000000000000 13.70534391897213

PRIMCOORD
 96 1
Ni 9.145219988371464 9.18298550506839 5.429097827456501 -0.6955800786066988 0.6741892716357485 -0.6783886544290769
Ni 3.36527929346425 3.309263096865933 1.7571762100359172 0.7694738405723716 -0.026477734575554402 -0.9165743657390214
Ni 4.9576581379544535 7.529243548523895 7.2376821481084495 0.9713571179068562 -0.8848713782087857 0.9374200988397792
Ni 4.9163061613282135 6.817055010863414 11.684833466469218 0.2735206391658128 0.24662252922338812 -0.6612913326271579
Ni 7.908893274148363 9.074970321557593 0.8648771529853181 -0.41830382905319574 1.2498163320248667 0.011026947238122944
Ni 1.2981486684093413 2.1128369198720915 0.42085936754855185 1.149294683059021 3.744659545105758 3.4235285031508336
Ni 4.235094149636845 8.144569575717476 2.5485768186834963 0.5259253222886168 -1.6984180407306557 0.5816079605629015
Ni 3.3592207044974987 1.567592005239828 7.157026129024484 -1.286023120962727 2.1931160295738743 0.0777910401375499
Ni 4.621036567356611 5.428102420953927 13.832254909727563 -0.745819177267909 -0.09408977729757344 -0.6621763063352725
Ni 7.233711759048321 3.854095989991957 7.569557043671908 1.2870345929463771 -0.9692482990939694 0.8839671212269614
Ni 8.62463081523759 6.3964278736183795 4.503932563983171 -0.34998216185866177 1.8570756746072856 -0.7948616845178569
Ni 0.6533293926691097 4.512506356963014 11.976798460678275 0.04873423198090961 0.935648608761653 2.1914836361767738
Ni 2.828518276210468 0.6818431537259261 10.356895643158746 0.07484095637029047 -1.190352372331279 -0.3741615873183427
Ni 5.1348835703883795 4.047006332038418 8.295063240109073 -0.9783834286260182 0.18835027584505626 0.35586201767820647
Ni 6.083319621251626 1.679474572434193 2.050497129565509 -0.5311652305313175 -0.3921343697466795 -0.7011966534625279
Ni 6.874016984101054 3.6936510698121574 10.618324225280356 -0.47701754084432046 -1.2351196492446406 -0.6332706790445158
Ni 6.459476528198197 6.268832304436055 3.3618520236623475 -2.20772709461883 -0.5200248976437819 1.035041543439695
Ni 3.0392110919012287 5.783911083967341 6.855769113437207 0.2067120661816956 -0.05681726609936021 1.2891619237020249
Ni 2.974814003300991 8.53065245531437 7.341103291824673 -2.5480735331599407 0.10727825096338944 -0.19301348564868048
Ni 0.2299454569823255 4.4652456173722905 7.924922783566116 -0.890386137379428 1.3686162104746107 0.7723254510885538
Ni 1.1925868856856991 7.273219003021625 5.760314425022489 1.7869364945880388 -0.5762286985288593 0.14633485064521895
Ni 9.143468896969944 3.4846063401463554 10.127920309541112 -0.6577930896659122 -0.44537240313521365 -1.0697038707085706
Ni 6.608572128706122 8.950661560300043 3.44370103228938 0.5143322181343787 0.32066695783431226 -1.0869976247920117
Ni 1.1158291518982695 8.148436959401044 11.244933086857307 -1.3371603059581745 0.7392973169889913 -1.7208473162684494
P 1.0407850530117913 8.930762794373695 8.84540130240597 1.0300993689430713 0.3308205013285464 0.5968270915055012
P 2.087666151490902 1.7948499583064537 2.90272334948424 -0.4422888791138834 -0.17908350583114965 -1.7528428953384392
P 5.758571761333599 7.979348951715353 0.9565744120239938 0.7864086686544972 0.21298864321902675 0.9406537752857284
P 4.065959321325445 3.7762520176880776 6.143160126557858 -0.37716515003135687 0.2596281974544367 0.5294040248658367
P 8.040833797396488 1.7350693834011284 8.670315572566945 0.17304809827034714 1.2910203170670023 0.4052194850654118
P 8.617176971624707 0.6477333914843633 2.9666728329026997 -0.4079533390568071 -0.9641927389479329 -0.40101701694829
P 0.644569253598945 5.475129057416104 9.982862519794338 -1.375939226498585 0.5484435579957909 -1.0725580523279141
P 5.068632385010063 1.514609785187458 4.028959790065119 -0.14380617068609425 -0.8573757438916783 -0.37336480244866016
Ni 7.333992175191982 9.148572345172232 9.622467308286462 -1.0611436398433853 -0.2695493132228906 -0.17861325106295045
Ni 7.222774460882685 1.6146280058271476 12.298737083053759 1.6334166961586063 -1.39653941924744 1.4091475949297538
Ni 2.738360479345106 3.9794348050151056 8.522174176410973 0.9126125528777961 0.644705917464651 1.7550026219939194
Ni 3.9736103191768986 5.660632376475392 4.846278424280204 1.7057801375226815 0.05368257712512045 -1.4299030823095502
Ni 1.6691459424027746 3.514047149592211 6.611759676904393 1.1951400235279093 -1.7776494128591578 -2.4523850439166797
Ni 5.103317104535333 3.601161605786485 3.652597808777941 -1.0796314142349275 0.3403135284206462 -0.4004022661824266
Ni 5.767935886475411 2.179621860383492 6.5437396082867885 -0.23155406492603994 -0.1799103726078192 -0.7256735555579695
Ni 2.050640400680179 5.027617516888928 0.6446469758376221 0.5917213948478197 0.36199332738692497 -0.6243836609675312
Ni 4.198545969208355 6.135299879913822 9.280024997500469 -0.1301358722878533 0.8767443782262772 -0.35979811950781904
Ni 6.99143374925423 6.4121127832309135 13.84746786743295 -1.0345864581801472 -1.3067577824069172 -2.499275537820631
Ni 8.4195752028822 2.0953821906077548 6.228339018085319 0.6766547024571057 1.2902029633720296 0.8146938887524356
Ni 4.924565319703291 9.088304835759532 5.232425916340574 -0.5447681660267327 -0.5570176728180471 -1.1290539305321137
Ni 6.8619934474189686 5.80799561383208 9.530873991036861 -0.2827892089519323 0.2280823043273556 -0.25042416235766546
Ni 5.748130761800479 1.6327288597262692 9.156663885707271 0.36326962299618726 -0.6041395660065144 -1.0432083955212035
Ni 8.527478016891294 6.6759095526008885 11.568927134701417 -0.19388508962035642 -0.05828742288698348 0.014038994591569369
Ni 7.494071894491251 3.702537624571737 12.99522853773902 -0.3192639068391986 2.3773553685743507 0.7627861441395508
Ni 0.14579380998292144 4.344888516924587 4.894479322035165 0.24361408141436752 -0.3683274971350689 0.21192060696582857
Ni 0.3920843474002791 0.6085866663290198 13.087931503817925 0.8939412017205378 -3.3697711069237193 -1.1334500027172802
Ni 2.926776041323497 7.200122642164643 0.024318632993284708 -1.2219846545245794 -1.5240725638051236 0.6117320336417916
Ni 0.2070173965725998 2.2124993037563923 4.188517927593988 1.1581806726947408 -1.532263327146032 -0.6119719175667396
Ni 1.5009007059798458 6.790769911590349 8.385984213173494 0.9504751322515244 -0.6472525951459047 0.0696910367382348
Ni 8.230457331518172 2.4565752255777116 1.3671959815550032 0.8338190396176607 -0.8166111603798064 -0.7429382561756883
Ni 1.230314945882058 9.00682758290063 1.3459169435827505 1.0218546124357757 0.6927755192783681 0.5602114971649965
Ni 6.255338600106704 4.187365203789032 1.3969448707180243 0.9510968249959233 -0.3539565731253775 0.5359742218841866
P 2.8092094501680527 3.9093162359532205 12.563510530676023 0.5986466612127431 0.5803416922559683 0.1437881729639653
P 8.20971579432906 3.958824365577978 2.809252525143705 -0.3285548452228213 1.1535894537796327 1.2210140630811939
P 1.2218778691292855 0.9983374737439594 6.560227023423977 -0.5244839618563999 1.1698683934453145 1.430378222173756
P 6.659990539859808 5.4825079880278516 11.796422000134129 -0.14682413157681165 0.15419034213389576 -0.1325457672809266
P 2.408490442974509 9.006968044777757 12.574721261295801 0.029945638519496817 0.7070184023506275 0.6567322525015657
P 5.265129186985837 1.8754095269014588 13.864873903246549 1.2613431017175438 0.4330622183092929 -0.6419471237725912
P 4.880141910030537 0.2064658496017471 7.247564109370604 1.8937406341284868 1.5508619160838257 1.7067602420477639
P 3.0679683202117323 7.798649428853814 4.440860499090499 -0.879835101336459 -0.7644036251383158 0.6064029081193943
Ni 4.693627265455934 4.528163174200123 11.182067032717754 -1.475195892709079 -1.091497055324262 -0.030528764716476458
Ni 2.2106639352285975 0.627687608793287 4.724779836977712 0.8932513747423648 -0.7097106044708099 -0.18019062285239937
Ni 3.320940160917772 1.597070271186251 13.2716378472625 -0.18749229872013515 0.11438709409402882 -1.481866619861035
Ni 1.076630924054646 3.770127879845333 2.44026385599319 -1.5826466646945905 -0.5758972833313695 -0.45220845222044054
Ni 7.156972753511175 2.2005225877000156 3.996793083790482 1.1419698672628331 -1.4603074056330205 0.37521522539383767
Ni 2.231293102916008 6.141115001626886 11.129656960711548 1.920111667922848 -0.3248542564427825 0.8270377550297692
Ni 8.545625691416125 7.400589833200546 6.9520079731696605 -0.7871288346499734 -0.5705990110469077 -0.8164898043105937
Ni 7.5847447182394125 0.23615855401391747 7.217590481204178 -1.674879077068451 -1.045154977724613 0.11003164533881049
Ni 0.5839983465316508 7.276627544573244 13.543469972416663 -1.0159454460401922 -0.6229345872258305 0.0718294232374763
Ni 1.9765139860575984 5.5053939098744396 3.7172730118948913 -1.0326578736988665 2.7900536785153114 -0.8478642048568172
Ni 3.749302065529944 0.8176510606576196 1.820480505232106 -0.29783813286525485 0.7613720374008436 0.12106322056262378
Ni 8.820893514084819 7.46538021505674 9.181908630677082 -0.4500340702769411 -0.18999038255164052 1.4707841367946284
Ni 5.280093058962453 1.8879855469669116 11.533841630620076 -3.0408100274014145 1.6255570909048715 -0.10683293589585471
Ni 7.889472078604245 7.096124668339684 1.9465703230916276 2.1041777145702536 0.1340424064311111 1.1906629615931623
Ni 1.2440521174650956 2.238915500781443 8.817675064273578 0.13755736156290502 -1.739381884737527 -1.041075922559233
Ni 2.6543830050733397 3.431961228599091 4.137313954906049 0.8566069840464537 -0.6809551296046724 2.1565845103067436
Ni 6.072260589459146 9.180429098904675 11.565377194860156 0.1843216143016374 -2.285679600034909 -0.6856905874071288
Ni 4.435889085052712 8.5273000985136 13.079461652627158 1.5348614268905114 2.8836554604328724 0.40190456175956585
Ni 6.907699742236151 4.2444395465283735 4.813960955590783 1.6047270415333976 1.4031227288919126 0.8489181000426282
Ni 9.111640235612928 5.074138490593447 0.7115742510511779 -1.049258458370025 -0.1219268541144997 0.8304166988043311
Ni 0.8563108513055887 8.140861382161319 3.4938899338119476 0.24039017516043118 0.5602516063743125 1.2509432465404586
Ni 9.113316414013312 1.051141775418635 10.607168742998915 0.08604710949875505 -0.7331600937430018 -0.43503656842684435
Ni 1.5809920683177605 2.358092721461279 11.470577601161997 2.000645046692225 0.2275930233957629 -0.614894233419857
Ni 6.085183082154845 5.7407331029384485 6.571588516458537 -0.0793763823467988 -0.4201347116143474 -0.3341534223565213
P 8.240364575918209 8.963443591118617 12.332520973740385 -2.508395497844029 -3.2172234425995687 -2.096900721292866
P 8.192232972689297 5.334227066407265 6.32121990254192 0.7393302271094557 -0.4360585819334555 0.8384092300915045
P 0.6586688168249708 6.6664049655819495 2.0969310169062103 0.4609723144559996 -1.1931888133388096 -1.6984406664384748
P 3.947606143658088 2.4971218874417556 9.950284728425975 -1.1164382986506323 1.8119679836353697 -0.7104901629493119
P 4.923731912565671 8.461798043146628 9.633732350832062 0.2510347993584709 -0.7596077464115693 0.4414231886794785
P 4.447744067482245 5.235107801781189 2.274004750512839 0.0588918892402018 0.49652887140437063 0.8225118421349576
P 9.15404099425505 2.4534850642809136 12.462104546690316 -0.7126352343167727 2.8829952011410542 -0.07693794810863525
P 6.879644823311283 7.784434686888545 5.251407934415541 0.13287204027209373 -0.7799744829933792 0.6121768344886941
