# total energy = -340854.2221112754 ev
CRYSTAL
PRIMVEC
9.45726235450027 0.00000000000000 0.00000000000000
0.00000000000000 9.45726235450027 0.00000000000000
0.00000000000000 0.00000000000000 13.84165941053750
PRIMCOORD
 96 1
Ni 2.1221813213622402 8.714025648728382 2.691676859954677 1.4281956127001405 -0.41935823845963904 2.670621308687891
Ni 3.7095922803856376 4.2186578033930155 7.031549341859581 -0.14630888250328997 -0.23077064979279613 0.6040860870607596
Ni 5.195876732061225 8.090896083345438 2.245504969399851 -0.3803399482149127 0.8949418750709103 0.8649844094768716
Ni 0.5587142594026397 5.06221724189508 8.73464058941077 -0.6166790932344217 -0.25869077324183193 1.7827024019020332
Ni 2.891756595739932 6.626486279710202 11.465434578299515 -1.4136994759664943 -0.50928411418751 1.7286004778513069
Ni 3.2370885339990982 6.589697528790631 0.5433348592110183 -0.439284802180237 0.6063108626262204 1.067959377213638
Ni 0.6343279098466631 1.3164509326489382 8.527071647493583 0.08599748720774222 -3.2160708170523646 -1.2747557755790238
Ni 8.407128025054599 2.922502155955749 3.5999807171702085 0.46749391762460135 0.9467202931947826 2.858915020263399
Ni 1.1483102636003357 7.437550564443719 9.317637315872815 -1.1153494364618275 -0.16024271897556272 -0.048505660909871295
Ni 2.8850324821399793 1.256009568348943 12.694407724764432 1.122948331855008 -0.7938931499570006 0.24147106692943573
Ni 3.5296205760155996 4.348297957019105 4.503882218716573 0.4094373798015013 0.49026206455905247 -1.2618503803712655
Ni 2.754002110934153 9.102104413248851 8.847809974758832 0.7981478114682964 3.345694011369857 2.02703510664998
Ni 3.719702093941685 4.10381826549678 1.9201562266915981 0.12190371418604812 0.3643553998611983 0.032421867974131255
Ni 5.453066984312576 4.506442299661027 10.411115317530586 -1.5267369980111642 -0.7039775586417748 -0.9890697046952707
Ni 7.859930819860148 4.960948875610562 1.6273773501252253 0.27636016549713693 -1.8107986459176169 -0.16401555575443366
Ni 4.636895777857576 1.6198020829050257 11.0676668484019 0.003113091707684961 0.4595859756314343 -1.1933111978492867
Ni 4.50209195893532 5.227586933046656 13.100494062710593 2.2969500307424053 0.6960914710254786 -1.1680711923355753
Ni 8.987832311099446 4.005897770118568 11.519665358350442 -0.3579343268262029 -2.17905878014986 -1.1336081255616992
Ni 6.171109635615526 4.3346700418327035 7.318860975005232 -1.0938300743328129 -1.6583605105881374 0.6550628352189428
Ni 2.00516661310315 2.8921443435002665 8.500384198593856 1.0087702684479916 1.7215656824917125 -0.7710825798203882
Ni 7.668402340779643 9.497739530464626 9.920220032862995 0.5194808522148537 -0.650390369443938 -0.6575514059687514
Ni 5.9488545108440976 3.2538278885306258 4.799028248073478 -1.471555210632698 -2.5399136230569677 0.5450954674591644
Ni 6.202318601691255 8.777323106287431 11.579073989591205 -0.0720155711063534 0.6994645012627696 -0.12392691526366398
Ni 2.4445415691371806 2.3272620575295693 0.7932628796291703 0.14194649176953616 -0.12271232613027254 1.2613950380014018
P 7.666038025167846 6.839454372758488 0.7662907671297825 -0.45634612853789797 1.4673987652621632 -1.269909503230316
P 3.290484237775937 2.1626867764235578 3.702366931875984 0.006623161743472464 0.45407095935047603 -0.6101297221516784
P 8.94614469823223 7.9685474790661335 10.76118439854955 0.24549407204589976 0.15785210725619914 0.9071517868735409
P 5.653428546518756 1.090970881383019 9.088738464232236 0.7161221644241086 -1.1816664145215068 1.044695264479375
P 7.372200880933632 1.3312042620665556 5.437806745627789 0.8604417844115118 1.8685967878730076 1.512296654216118
P 6.771021621690617 6.2418121296707225 7.069157091707079 -0.36994883478857576 1.338605008824501 -0.39046752356721787
P 0.07112050505536312 8.333664010364823 3.854597648309678 2.5764878226365755 -1.9722757515209128 0.34627771642388105
P 8.500584692557737 5.3190008318612 3.5881733250048913 0.5283832969108061 -0.6976806698894694 0.9391067425135826
Ni 0.9903077798951216 3.867850110176926 3.389130105183848 1.1503724895042315 -2.1957508960935606 -1.4547944462345912
Ni 5.6930639334349324 1.4590191640403374 7.014108258454471 2.379962724290211 0.4748848107720337 -0.9558636502569472
Ni 4.671462072102057 8.734443878351868 7.143611281775076 -0.8183309712843906 -0.00218363791488011 -0.5794456628042601
Ni 1.761793421287146 5.845439345984069 2.687579973862554 3.442233535759504 -0.3765092616149128 1.1783841442258092
Ni 7.863354348866031 4.030165105558059 9.28195411893332 0.28574134960172076 1.2316815700973691 -0.501518097088846
Ni 7.367585736859403 2.0211021003266665 2.0846785471279055 -2.700646908515704 -0.7585525656741775 -1.85402171827231
Ni 5.991156845770382 8.072492250623206 5.225226400339838 -0.05537873388062075 -0.2299180719845137 -1.1210542001560886
Ni 4.306184767341765 6.367423489494309 5.5478060566035525 1.0726878930375592 -0.3446982877519031 1.0597683567624137
Ni 4.299971345913962 0.9215478075465773 2.151740940867179 -0.3645096660508754 0.587519183841014 0.1125469555614965
Ni 0.7267622472792598 5.386658087408402 4.955521352692121 1.2161731900491248 0.18044876160979245 1.7263507625851817
Ni 9.266093344083137 1.7937495110962032 10.423060785727632 0.6899748166047794 0.04202185295774054 2.1959514421401405
Ni 8.928213728632358 8.090574536422235 13.303980304429327 0.24278052976947864 -1.7841926132943142 -1.1450258804803377
Ni 8.550793298889873 4.95119843802751 7.183281660562306 0.4293050652597058 1.2568357007654936 0.7147227129734207
Ni 1.6041881426047138 -0.37068118452261634 0.6241812129670722 -0.3505578318564737 0.5523922582308938 -2.0888338851243313
Ni 1.2627904255235787 1.2981984161258604 4.24530647751671 -0.3574442745636618 -0.9741876453771157 -1.2218753826402247
Ni 8.294123196073118 0.15276505176195998 1.0148985537103068 0.360979798520746 0.25785927847947204 1.1453272137708403
Ni 2.133028801389168 2.9433081333395683 11.21887239758632 -0.5112792902406679 3.4774309095962437 -0.0950534267624234
Ni 1.257598388440071 9.006519861695097 12.060791946780041 0.031667763416926106 -0.9743789354523154 -1.6075326293029928
Ni 2.300299402292629 7.45199180420058 5.165623895218907 -1.0873303255410822 0.7296443672802595 0.1885881028874752
Ni 3.6052692183306774 8.808986020960624 11.1791197406158 0.5678741559165768 0.7544226026662039 -0.3342642369027727
Ni 7.296542781356107 7.0547867814185725 2.9369783875836637 1.2905770588819967 0.9943132124823971 0.38998518461416065
Ni 7.311069136474992 8.25173574578481 7.123803991305681 0.7657521687464102 1.1914034393036126 1.0098154218830546
Ni 2.654748141550887 5.586802132578298 9.447541327121183 2.533299974395192 -1.6009973992876363 -0.9494970846089712
Ni 6.071562491096397 0.8007530314873453 4.064727616897562 -2.109239702474193 -0.5783262044878362 -1.9789374798118045
P 9.762164588488076 8.040479417239466 6.928290221829929 -0.21123386531144908 -0.20034190098929366 0.3101801993703755
P 5.797292422865421 3.5617374392862593 1.740962855020964 0.8400346815100693 0.443197764081398 -0.17357980240410104
P 3.0706123431412014 3.8501461148757854 13.025818572701333 -1.3358490433459187 -2.372033699251121 0.8530058969587568
P 6.732521106268104 3.863868602686659 12.138996887134596 0.6670128084919674 0.009322305842190397 -0.730487174896529
P 8.025168109337462 0.47540239732660317 12.72444399029671 -1.2374948343450367 1.2995126708087297 -0.6631386702485418
P 0.3701194231332532 2.3482098938500964 1.636706939529379 -0.837564622703022 0.21843243994241737 -0.4408570317633633
P 3.932046007668456 6.756495266571732 3.448109376709508 -0.6165811342039769 -0.8887691706012951 0.1136191055797527
P 1.2366978384317795 6.674699403665981 13.656693636028526 -0.425254549339416 0.21829488592328858 -0.6979568063689915
Ni 9.141692513852792 2.6942605840552494 6.796642291386301 1.452100701452512 1.730902386511606 -1.4070775997746026
Ni 0.4764786337930934 7.261626568401079 1.8714891541383551 -3.1720087937361434 1.1900271277813765 -1.3353412504715647
Ni 7.8672223692069325 1.5949200254064668 8.154329725483725 -1.8985925629041498 -0.31298013071301584 0.29576993748231645
Ni 4.495642105946335 6.444329947714864 8.190151944181194 0.27432076646960496 -1.446847680583689 -1.2102218575616965
Ni 7.869397539569786 3.0175760153373563 0.05610710092044796 0.07330986443774472 0.16703171687293814 -0.6973207154468893
Ni 5.860476393275102 5.21952934544165 3.717163764700859 -0.9101196112526132 0.8011153787370526 -1.150359119767793
Ni 5.572975614880506 8.135383045897024 9.157461553257237 0.89684860517532 1.3319731053302801 1.882693889396022
Ni 5.687711122889822 7.530146621064163 13.456695232700318 -0.5799223453303626 0.6571138042107005 -0.7794654045674446
Ni 6.949101873571218 5.924019739657775 11.339156481473404 -0.730638869983045 0.8937846215380155 0.3350381389543197
Ni 0.8415998937230064 3.683206518157976 13.54666595326542 0.21538234026218392 2.5691151843215883 0.6391739319028282
Ni -0.2650568031549229 0.5187601627419934 6.044680222590258 -1.3043219192719149 -1.0325270045479573 -0.3916826269212416
Ni 8.604103887304687 5.712857983736903 12.773388160639653 1.5046453083184474 1.1987871333621933 2.910467952640026
Ni 1.8751008826669373 0.37891846011411945 6.584740031815813 1.8999675888748053 -0.36264098827325286 0.6032597345047223
Ni 3.902841981231531 0.2876284514376328 4.995980467167446 -0.35932195120234894 0.06475966087488848 -0.887971100180032
Ni 7.561034040216687 4.54470638352236 5.363573855501055 0.3062420406582339 0.4072236599796341 -1.7896274111566401
Ni 2.2688445473932726 2.788833208527156 5.6021900443061226 -1.0289590846910408 0.49675667114446054 1.31901603094898
Ni 7.065000624861538 2.2946439593492087 10.340009944095137 -1.8926916240386824 -0.1299569235078278 1.6375505158213215
Ni 8.315184519543012 0.36253186147187216 3.498728428231851 -1.0105049917509112 1.5866511578682934 0.12133035818108137
Ni 0.4952985860630028 1.6209274971362413 13.004225751081908 -1.272402701965815 -1.636801296360123 -0.02606352985627124
Ni 5.962870173790835 0.5065234108615734 0.09881609813196093 -0.07940157915777937 -0.034066345556089714 -0.07787537232124007
Ni 7.876708003441465 6.757970599513494 9.37138482981269 0.0897726379794583 -0.06958870683241564 -1.2138915931037995
Ni 5.703987071561438 6.098629176220257 1.2682936065415988 -0.794959900658618 -2.8294319232026175 1.3851895414522595
Ni 5.299698559206485 2.7380004228735064 13.206839087476764 -1.0142485179537435 0.25945336243946926 0.9437072174000715
Ni 8.491751609432061 6.9021560227833625 5.335863130804542 -0.4051989162401215 1.0908640497259534 0.1378365833662207
P 2.717052586552979 7.636190904884512 7.552120570360211 0.24041434353014726 -2.6262157859893223 -2.4425770566873224
P 3.7462013433187127 8.749963246027708 0.7289005343185697 0.8061907363774309 0.9878533157896665 -0.35292144699264383
P 3.872824630224148 3.3153095516998126 9.33896722559621 1.0298072916239491 1.2736100920103548 0.6906232488220558
P 2.088059518452776 1.0692097204920332 10.565505126980971 -0.3005025670712954 -3.120871094520064 -1.0070589421838398
P 4.922940137835303 6.87749148232109 11.057617561325516 1.1700113467810818 0.4492115743756457 -0.19656186512157114
P 3.7600846045911887 1.6860596636100433 6.696234535984478 -2.6562817521367674 -0.04623383415655908 -0.05510953937963412
P 1.4869559173093385 4.624554050363992 6.926560488528338 0.2956789204304069 -0.816218295816762 -1.0684563714547146
P 1.0748651634354534 5.283706328408285 10.828275164076166 0.053382015165566135 0.2629973710369858 0.7497943598655732
