# total energy = -340866.4955146701 ev
CRYSTAL
PRIMVEC
9.28459656649332 0.00000000000000 0.00000000000000

0.00000000000000 9.28459656649332 0.00000000000000

0.00000000000000 0.00000000000000 13.58894557646637

PRIMCOORD
 96 1
Ni 2.854103590684881 6.892141812470969 13.403239134621435 0.5323206842919994 -0.11928221740280101 1.443440968894985
Ni 9.582632240342827 4.728403693022336 8.701151702447882 -0.11315553567977286 -1.38243537574589 -1.997595204122308
Ni 8.48270464006288 3.299225725038641 10.250834450828252 0.43967149609569445 -0.3872716423377395 0.6330878736097485
Ni 6.295281514466475 6.117453634126114 7.82755842943829 -0.6151965951516243 0.8360651553393601 -1.828139965409542
Ni 0.8120670361458395 5.47940686521942 6.46195116650876 -1.4969538532114608 0.2841446945385623 -0.6777451073078069
Ni 6.9817567396909945 2.778545542848518 8.648222073656344 -1.8583493991133864 0.6105259291488324 -0.6662695025680396
Ni 7.0971457073133 2.9385655667437884 1.9876548148257034 -1.0284980858942223 -0.613434361044879 1.0048868742331856
Ni 5.844245092023287 6.408358617513791 10.86149444488819 -0.6465673961534221 0.370737135017826 -1.4703629900968096
Ni 1.2090401805420434 4.601074734060935 4.18824906928186 -0.6011642854282744 -0.75445474145572 -0.5860022329758553
Ni 2.685356045904113 6.174656034312871 4.761742822804937 0.6555917111392193 1.7203212685616502 -0.39838806396587517
Ni 3.3073497471395035 5.955084607269109 9.562582153797898 -0.4485664845924791 -1.125127598894514 1.0517385444794016
Ni 8.90081788265503 4.177418587246825 1.0694035602127536 -0.27331160847880026 0.18783117011679262 -1.1179745327895005
Ni 6.503015080734695 5.872488835144227 3.4356248065032786 0.10593767777509498 1.047704483619344 0.1377476231968402
Ni 3.8797915558579774 9.162114287208821 12.432974640909924 0.6350308562687321 0.2288117262942124 -0.6301303336433212
Ni 2.6698600540340105 2.4106248299446666 10.403330237568623 0.19359249808060208 0.5925811717449536 0.6901889894981146
Ni 4.433459910075944 2.750171815373964 6.8015529310585086 -1.4795575121118842 1.4235712265542515 0.17582926055991008
Ni 1.882860500482592 6.874194687075579 11.19422003713177 1.0201990791102236 0.7124920238706891 0.3832866895480625
Ni 9.190664422020422 3.0091192169660204 5.195638022845141 0.9238752702758088 -1.5606560193561123 1.985656029482561
Ni 7.917709077887138 0.15677320043393153 13.44736232345564 -0.17590536521348415 0.8299359025131706 0.8166558975748128
Ni 6.322801059045853 1.005596097943078 3.788367060743713 0.09096665828755947 -0.2462854575989436 0.14589956288001327
Ni 8.730621940791137 6.029045704475359 2.321549337792138 0.10428085889796235 0.07185590560003753 -0.7408309800246983
Ni 4.046412927997491 6.103814561593352 2.2577214494097517 1.1371259089069705 0.62235017547727 -0.295657066053536
Ni 0.20428805243778622 1.98518604056671 0.4887615957005863 -0.3066169074991494 -1.059631059853601 0.824979844059476
Ni 9.281105678345565 -0.30742042397397856 7.6924851883805125 0.057896872316784156 1.032326458501377 0.6856728467953158
P 4.409477796834199 8.337354278932594 0.6432749253009752 0.6344104490759139 -0.8202176467841422 2.4511110623002628
P 9.167647906834093 1.3657363188234752 9.468369494298617 0.9919724801643625 -0.06775473894747042 0.003770522786025764
P 7.440248693273603 0.6459804567754794 1.9374028637186098 0.7145990429113628 -0.39406655377238586 0.17758995200475866
P 3.3157894455277135 4.160344213939984 5.196643544666309 0.43680240207801546 0.1727665624741863 0.002764450119014594
P 0.8883288564110541 1.1610295310751189 6.188134483322953 -0.020533858287293667 1.3593144734577105 1.0786538808130066
P 2.510035006669161 3.949258908267865 8.907635562002072 -0.07814636659443962 -0.25877381987394144 -0.5378434138824415
P 8.72166230498847 3.5067457455830673 3.2511825794833134 0.5406991381636816 0.9845309362846528 -1.313267558500977
P 5.33378725078522 4.436282427468701 11.291462260529919 1.1097482882249663 -2.879971840933698 -0.14998453158266428
Ni 5.024405919991011 4.2749811292306665 13.770222103259933 0.11510083233160177 -0.08257714867228359 0.9547809587157298
Ni 2.1018098595483456 8.694551282663307 8.66974748261479 1.4309731754452775 -2.35358037764194 0.5520618714746687
Ni 1.7818440885312985 5.137659430375375 1.8644844267202758 0.4751007834375818 1.523667100836589 -0.4901995867522332
Ni 1.182606933775009 8.945671769248476 4.828791537777939 0.24862336170350083 -2.036424775394996 -0.6008606381449265
Ni 5.435927098935605 0.9264411973502878 1.2151698712746024 -0.6989266264814286 0.40068842996427767 -0.3894233985734197
Ni 6.9379891509098925 2.6772505929966237 13.31194833769946 0.5875608357122268 -0.6859644098938056 -1.502511035584264
Ni 2.3352524740420377 7.537374859213169 2.695190290714665 -1.637917155132121 0.9240357071130733 -0.4542486225789209
Ni 6.9850620561114605 7.790333695942304 12.188564132350235 0.9970244407659732 0.4971348804194858 -0.7606737257822384
Ni 0.12096808177134255 8.862676759466067 1.6596040170138782 1.8163164904120526 0.22274906503990025 -0.22830419053017453
Ni 5.065629529279958 4.176174451290807 2.992217537157552 -0.4231544722772777 -1.5165153202831558 -0.08048709891247428
Ni 1.8179983080293076 7.312864026732082 6.97214811057993 -0.39322271771485184 1.6194041839295978 -0.5450841546052548
Ni 2.0747266910132427 1.4826850986891456 8.205291104120645 -1.9568596740761588 2.396431154258879 0.5184495827368619
Ni 4.0334794848129185 7.480692396440867 6.269912282479736 -0.47862499454075635 2.7177655704738615 1.699200427422635
Ni 1.8195024126925528 3.644649860170619 0.04305731713457016 0.8805406120439158 -0.5986518034190658 -0.8994770439371026
Ni 4.905089567970232 8.671089106836018 10.022390663190679 0.14472688272815074 0.8456561414619049 0.7525464686894137
Ni 6.901565678107969 3.3426497837423357 4.547866567368796 -1.2489532126936234 -0.20648220955907667 -0.5077447947248481
Ni 3.0517726541447185 5.374212384759111 7.14373581348716 1.3572066830860883 -0.0918349198251257 0.6725779612845707
Ni 6.347655924376148 1.7139922559448966 6.282536548594642 1.793549629029182 -0.8281214750122512 0.18482015120461073
Ni 3.4277988199560596 0.5197247971910613 6.72625670884871 0.5979969434438862 -1.142249089066149 -0.405639860432282
Ni -0.318950964599191 1.369236611774361 3.5173218296688873 0.22253334948466835 -1.1415543769919694 -1.022533640780671
Ni 1.7993455532857277 2.8370477865714134 2.5330478080168155 -0.5333604384104234 -1.0849957638706347 -0.3151781668055992
Ni 3.9124826207918475 9.228415592148544 3.535272668902952 0.36983982001453725 0.620492296332925 -0.047025733930235146
Ni 7.570520869384688 7.388765604645853 9.522195086670422 0.8640701251927183 0.5306913762186924 -0.35739002428695865
Ni 8.094302106868168 5.033894777804818 5.495302094747049 0.07219940498238533 2.889890642709307 -0.7983578705965735
P 6.860249222852155 0.6520878644759905 11.709607999210473 -1.28630054299383 0.6556809284189159 -1.0945070457951795
P 1.9369247069892448 0.5590664187316143 3.024057204575252 -1.5499386329386082 0.7326918958573317 -1.384098622380926
P 6.681232914135897 5.210784913879822 1.3803382040326477 0.3880002929736479 -0.05873248084420209 0.01963448640147586
P 4.027333081806323 6.993854569173765 11.607500647148491 -0.983701498404822 0.7949097641469729 -0.19090260995326477
P 2.3395698115013532 1.4940680142270395 12.376974595994096 0.6263700952699405 1.0667399029842402 1.0505391248546618
P 4.442688799182524 7.278789556891894 8.52744432611708 0.6682340824935782 0.39237451078194363 -2.6851346718127176
P 0.3541767244285299 6.6170577818374285 4.162307906139221 1.1069617266187646 0.7686595722011923 1.0743375128258401
P 5.43380092629435 0.9981405668036581 8.260964331233103 -1.2851741426988705 1.2922061098449875 -0.023538449441572365
Ni 9.123453226605402 6.467000130186987 12.174309491057144 0.40326647510409896 0.8753030177940602 0.8502545594658647
Ni 0.2553291942632495 1.671645210456859 11.752236367978117 -0.2431988482538199 -1.0795015735252829 -1.9454943696620108
Ni 5.019810044631095 5.718429522321818 5.702682846341175 1.8443150325075073 -3.8466698628019884 -1.4069891538258543
Ni 1.2382402371217143 4.602170316469966 10.871319405102055 -0.12663017312744 -0.5931604412871914 0.5743844462312688
Ni 2.5618616253743194 2.1417986174779617 4.8459132625278825 -0.45095606787057824 -0.6700629081722008 -0.3632793931882002
Ni 6.842283528263391 7.363307240530921 5.204416609012414 -0.632725090953691 -0.5308037334268407 0.8952362663828776
Ni 3.3909482557065482 4.691673828529752 11.982093271231406 -0.7469656321675264 0.6288116148318977 0.058533477459518556
Ni 0.8992159744858782 9.073260696917105 12.888164063451073 1.163839156532099 -1.924100734477583 0.4131171426459337
Ni 5.152644769427708 2.2450619018274365 10.141851854919773 0.23493815090692444 -0.3542170258756158 -0.7429739945096301
Ni 6.49138148108626 7.8205921965442595 1.5629736485373817 0.30735944209212873 1.002996342078692 0.930539826780178
Ni 6.325781414582283 8.490401570716152 7.422866071356764 -1.1246303475431212 0.7017700094674947 -0.23130312525749844
Ni 1.7727730375683928 3.4774157046497827 6.819870511861698 0.09070697686826959 -1.3644757059436758 0.16540240879963125
Ni 8.141217173926062 8.008763117593602 3.3375265432906147 -0.5592761298349207 0.9005026569881396 1.696145185536079
Ni 9.610950260237262 8.46739434012651 10.547943401721984 -2.698747891720778 0.7252567797355252 -0.8975479452351897
Ni 5.637857792274637 6.532094437557438 13.545841255132459 -1.3386826561399718 -0.4493511852773035 -1.2233072299907448
Ni 8.02401770994985 -0.015956507865762214 5.538637021322552 0.7254465271488281 1.2385477010895831 0.5444524345585268
Ni 4.868350418880961 4.3091020220542875 8.547052465859721 0.22722278454053768 -0.11316350609957285 0.9357198283192207
Ni 2.768016810205801 0.892141111810613 0.8695312619591617 0.2347941691298924 0.35476544217991807 0.8776514634215787
Ni 7.320820926092584 5.122887637046835 12.19583397155592 -0.9064395912978646 -1.6255540055810775 0.4541995145085403
Ni 4.6528827835727204 2.419454481393718 12.37224595090156 -0.8581383330893156 -0.7914742561028628 0.3921559670132343
Ni 2.3084107050207887 0.06967532737566971 10.756261897581467 1.2810007280474711 0.45947001887886035 0.2982806197193121
Ni 7.213463134604274 0.4501664557336441 9.386292731128526 0.37089731474477416 -0.024752267244015434 1.3600616360363802
Ni 7.226600838915955 5.12777133490404 9.498754265415512 0.7124210614234376 -2.12057055410598 1.1372626915951511
Ni 8.825556941912641 2.3720194769213694 7.448128530481605 0.8424240076778524 -0.15410061063356686 0.21770661751998632
P 4.573620181658364 1.3238070801863393 5.085662903550849 0.7062146755024095 -0.08680815603449565 -0.3496821141197397
P -0.38485674572006057 3.54671593431931 12.343831371201585 0.29562235616085863 2.016004045646799 1.500723604666538
P 3.7680142963467986 3.1412947353978784 1.588289958323006 -0.7572091642724056 -0.20210593486825193 -0.7191594085885357
P 0.8695953256762998 6.954181487531496 0.6606278365084169 -0.8817680566931135 -0.10042034750129157 0.16288658435631304
P 8.118098528176178 7.357820043889082 7.088089511705093 -0.0011228007505335502 -1.472982687107844 -0.7060976903085711
P 4.855769790370483 7.474601701014392 4.223919561292492 0.18398737089067022 -1.6315256497834807 -0.7126853708284178
P 0.4771382091085069 6.538946469912223 9.551506558410335 -0.3979993131678887 1.3865252295445476 0.8081293481610404
P 6.894992183653786 4.1290365539124325 6.861575063259016 -1.368958681415694 -1.6368401200178584 1.047280508708048
