# total energy = -340863.2886921299 ev
CRYSTAL
PRIMVEC
9.28582741236026 0.00000000000000 0.00000000000000
0.00000000000000 9.28582741236026 0.00000000000000
0.00000000000000 0.00000000000000 13.59074704380906
PRIMCOORD
 96 1
Ni 6.282948781351335 0.10710552074325756 4.584866211244594 -0.196623571597442 -0.010068182869279433 0.24270056846116264
Ni 8.070108438007404 9.420750627229834 11.763743206712087 1.215071986565146 -0.4063469138016356 0.16194993147465656
Ni 5.787744883783455 3.028210509099335 7.191122216261485 0.6897395606655218 2.4002685257270984 1.1984593177091296
Ni 4.615873446609192 2.955911055772562 1.6778320373794053 -0.48790719117363074 -1.4900692102764854 3.5471180896797363
Ni 8.916892338382667 6.6277594158726645 2.5369438024138806 -0.030664004742760095 0.7719732099554575 -2.5952800156424143
Ni 5.664930528568981 5.986582309173412 7.198054086529715 0.4867687066938133 -0.005333239287455332 2.1962188368689146
Ni 5.598601862358713 4.663686172679005 3.109142067719272 -1.2009144641178415 -2.0357488323738937 -0.30709101892209045
Ni 8.248739902642278 0.562892937514644 8.831240793617598 -0.8838527071362843 -0.3255597671502393 2.6001555985671607
Ni 0.19944378992915987 0.5887864676458677 5.735988466751933 -0.6174005447814787 -0.674438154421761 0.13831557988516824
Ni 4.333584289001446 7.875449635016245 9.833082228219224 1.4542948808903535 -0.011682835654566976 0.1686779942271095
Ni 3.0087938436862496 6.465861012488091 6.725123174930189 -0.09657037762758207 1.4144708069148801 0.7971170562109369
Ni 8.283608185103366 8.102460261201658 7.52341648382428 1.1266283518097564 -0.06766706432967057 -3.07118478303853
Ni 5.404750926364656 3.010985298988731 13.304050280867735 1.6106575480852197 0.4330413923736865 -2.751495615736455
Ni 7.223528825838303 4.515335791694092 5.355882401702082 -0.548005699127424 -0.7741424496926345 -0.8652543753088067
Ni 0.6457002333002637 7.445850109109509 12.01696586691379 -0.17207956370949073 -1.1825845554604022 -0.6577789485985253
Ni 4.393923596440102 6.714247613700249 2.868136770828903 0.536220790677354 -0.31196814450873367 -0.4829853283919811
Ni 3.163096440132563 5.462360200502763 4.498986235121724 -1.749227667183355 -0.735853838525081 0.9061133183066975
Ni 4.23309306322411 3.1441719235797807 9.590269909287063 1.7860744036980594 0.4498571783794446 -0.7649222166459472
Ni 7.934201065943358 5.222627990569896 0.12530759991242546 1.4921929414877075 1.6316511196177514 1.7376836710994976
Ni 0.6791839988732168 4.882265267446398 11.508291019314937 -1.1560281451281125 -0.37774724778707197 0.24010272582699937
Ni 0.15916929866678098 5.996165283207991 7.051151366060297 0.23685156587955336 1.1165771382213414 0.8599923555789188
Ni 4.038434260232952 0.9447865243684264 10.210048754973444 0.9786333398532951 -1.585476677944218 -0.11393843659238441
Ni 8.569277383940364 8.142250032265778 4.630408552477726 -0.9539600054763313 -0.8671899017686225 -0.5774656562597539
Ni 0.48629043169986297 9.115952623633891 2.1839244963357984 -0.8773187626725085 0.6746204456358963 0.24252521922556297
P 8.116277572600355 4.350920929042685 2.730531020905435 0.19576816557568222 2.0336279293761494 0.563013999610798
P 7.66419705818808 6.612307798824662 5.863660238359323 -0.9192254302086235 -0.4733256938150299 -0.07443549340175568
P 8.013455604107243 6.299106121293357 11.774343907446463 0.3606686950382305 0.8531311096827114 0.10264846550086193
P 7.774716977722534 1.867639924056935 5.058747991585535 0.73014110441102 -0.6146209251538125 1.2171502092504134
P 0.31321746343814516 4.961779808781764 9.230006729134974 -0.32238599740794793 0.6557979136127545 0.48448890952070106
P 3.8786158822202244 6.11558102553811 8.696827511206811 0.3893562927809101 -1.364877826478101 0.8021327642579734
P 3.7316490895406917 1.300368718851105 7.716024047509005 -0.5888641279046826 -0.07136148246212226 1.126839182268982
P 9.147171575866697 1.4532041545440622 0.31734408520264784 -0.14431833443582243 -0.8495228235061628 0.6227502391291662
Ni 2.549331096369431 0.43065903883052054 5.542306532819339 0.05292101636874756 1.0564212946670517 -0.2684193133835055
Ni 0.9234588356449569 4.2676456275484 0.6032036435044792 -0.18579408508210582 0.9693228610856467 0.3696968666787698
Ni 1.6787661916312258 7.69405099377061 4.791608661630323 -0.11530652058450465 -1.2142255794044507 -0.1763365392136318
Ni 2.0111988180245586 6.5643836428242155 10.009082089325611 1.4016944810858183 -0.19883549164709627 0.9145622204049991
Ni 8.126231979737048 6.597580476325784 9.129366930116792 -2.0082375143275026 -2.984494383528822 1.2393241742442915
Ni 2.7745031286993735 8.279865996599554 2.4600339357070986 -0.10567054015663738 1.6564090432887217 0.6250313218538591
Ni 4.122796003550925 0.9544994999887454 3.4557467241238204 -0.031588316329242375 -0.7760952025436312 -0.4649097018371928
Ni 1.7963340542783204 2.097120580371416 1.540538291261714 0.2702710218802636 -0.14840124625594442 -1.509125712687304
Ni 6.691042330645586 8.208411553580092 10.317062346023928 0.029963379131309687 -0.013676726156144186 0.293607639723675
Ni 3.1702186698656267 3.7896390826084665 0.010042622498446637 0.08438334864308693 1.4405482207282223 -0.5446645505693329
Ni 3.3066739057552925 7.88151328040828 12.198212220587559 -0.8292172791795913 1.4535294634792388 -0.09193339307620296
Ni 2.471330144925185 8.53452053140991 8.737817939773517 2.2672098233654956 1.658901213582956 1.4198192157109872
Ni 2.4076386537399372 4.387952809323596 9.763348449045314 0.24773864510570237 -0.11311851179425035 0.14405865301653256
Ni 6.85309859309856 6.264841417623206 3.605788054306114 2.4341019293367756 2.7831206988409036 2.220603950581498
Ni 6.4882027135803355 2.241765916162728 9.480823431417722 0.8345124661402595 1.0942180537998512 -1.127768893172103
Ni 1.226258529151519 3.595648859201117 7.825796457925451 -0.6145826157167092 -0.05733328650383029 0.44688344046310136
Ni 8.478740565299722 7.845586413606163 0.3428671108145114 -0.6285449914340724 0.15648710858787243 -0.08589284330907788
Ni 2.1338924574808464 2.0248675561824077 9.78333990718392 -1.8554790195441269 0.03619676163553121 0.3141792932274396
Ni 3.3468815390592908 2.9830071005718843 4.372782552850445 -1.4765074124316506 1.0119106138491862 -1.1284975438080111
Ni 3.62821425642909 4.063245991454265 6.978413621673027 -0.4229865792408457 0.2130225817807557 0.22877084575394793
Ni 4.249956126060151 6.09190216527825 11.279083366330513 0.02051200391042274 -2.3106434690690976 -0.8716286542662667
Ni 6.4027359567835695 0.9029334424220568 7.051790230995935 1.3961496400081892 -1.6008282206996238 0.15387846732043178
Ni 6.190044076684706 1.0181445620362288 1.9552192066219831 -0.9438594267072196 -0.9435735200356847 1.9961780120598072
Ni 8.304900587682136 3.225534344598171 12.964933715801834 0.273219048764994 -1.4532039618190198 -1.725141829878745
P 3.7844668766615093 0.9965085838380034 1.2264823175955433 0.2424930804360469 -1.4127443111420765 0.35551234764827155
P 5.43889491427662 8.713049851941703 12.159396532833737 -1.7833022402695613 -0.930073942887353 -1.4753488733471753
P 2.400126419249652 5.836792624917801 12.467730579561819 -0.2850353246736317 0.24118181782379106 0.4626936680224805
P 4.9761821273162905 5.0069367881714495 1.0263504478447145 -0.5230724262208539 0.30822384697495303 -0.40480065236043833
P 7.481349827844194 8.663593534395032 2.8500609789144544 0.25280089011995815 -0.607141843167948 -1.4596065229112538
P 3.186552440531154 3.0589094549891778 11.542214004531143 1.1555542908154872 -0.052583430523670725 -1.0191809222583543
P 3.8961103813298625 8.19984073474878 4.42684649802886 0.04847789299572941 0.7943230384055675 -0.12019213081158012
P 1.6496736939080328 4.96311696794938 6.109625095745688 0.591158066145182 -2.694752140297824 -1.775480173121981
Ni 6.04548231334137 1.5717284574291042 11.561717028140471 -0.009504854166641694 -0.7973391995240721 0.11627711202789007
Ni 1.6346585107550153 7.202041420880924 0.7650760465719053 -0.12443599368959861 -3.0562376748103945 -0.08604299573369698
Ni 4.553277683075185 1.7773909660704321 5.811824891793601 0.19947286812077905 -1.1748439922830347 -0.1881193907811728
Ni 0.9140745783200098 3.8371918055067984 3.4399543172046263 2.76743362712295 0.15941533797826093 -1.2011605186903767
Ni 4.422412515372358 7.9490119608902114 0.7866145235808254 0.32771769403350653 1.4480303880378804 -1.0631868955256594
Ni 0.08387609453695694 5.550900566219536 4.406473392377828 -0.19098359970284529 1.0965760125090662 3.230979101622765
Ni 1.1324159559020488 1.076738133894942 7.893546784334066 0.09306210736400747 0.3818725828093552 -0.589574780818462
Ni 6.5578464202269835 0.409852285032768 13.523568172800724 1.5655534566577296 0.02586195536842643 0.4460845987108898
Ni 6.157803683421084 2.462109318165169 3.932808900401625 -0.6293183792649871 0.6447637672857799 -0.19137826403810265
Ni 5.986749454069365 5.58536955809585 12.748963938576802 -0.8942602756228534 0.09674546975286565 -0.96523429283857
Ni 0.37999649228472765 7.9493648223372215 9.682482819801002 -0.3922210159232148 3.366705837734834 0.19720181269841522
Ni 6.034850040793316 4.968818466066852 9.549552484050412 -0.4262485378215692 -0.23013224487784883 0.4615801232433277
Ni 0.5845604875265491 2.8211086971873103 5.734724665621985 -0.47084406504375687 1.1567858492297434 -0.951851957994393
Ni 7.612670001097113 4.592807450967823 7.65642946344009 0.8642549875100147 -1.104635392478433 1.327064098064437
Ni 1.478953754348216 2.4784988037960134 12.643295863938732 -1.7195041719769935 -0.7650546284587534 -0.5479473350856627
Ni 3.5558776597921047 1.020252444890734 12.654697931590922 0.5972811483237843 0.27101252803197845 -0.02575036949122662
Ni 1.3398892009161896 -0.2050886444985595 13.387525227654407 0.10187687744216002 3.888120673747607 -0.7190874177000196
Ni 8.74710098157814 2.254663930633687 3.0306006811114483 -1.1033801799150933 -2.4787573632626216 0.15563993009622873
Ni 8.778124931432332 2.1704229030739017 10.842426611483582 0.08231438192920017 0.39337698390452897 -0.7456080896983676
Ni 7.252184889666511 3.0003251689580175 1.4207631874052984 -1.1272302470598135 0.21930018725935133 -0.4919139983401786
Ni 5.0660596522006776 6.511881573840196 5.1969118197449315 0.7511241344205902 0.39961987949044725 -1.2852319925199995
Ni 6.347466711188789 6.683734384361465 1.4466400030469266 0.6317300740302734 0.5738080049025086 -1.1143497915527196
Ni 2.988829314447544 4.637639426393158 2.3487525783133085 0.14527169948802723 -0.5265220753323512 -1.3406534067130975
Ni 4.3810348677966955 8.469074018817167 6.525108306606526 1.1465757414659608 0.8275596889715102 1.4346519098484454
P 1.3914812588000265 8.19328494049644 7.155012418656575 -2.523148744893803 -0.30152792301201614 -3.471531513392673
P 5.0294549199872 4.130688956970879 5.261413035092791 0.20099547541289256 -0.2492669088247707 0.17352195258297212
P 8.317436454878532 2.2982701768220415 7.850165255172491 -0.013656414441170028 2.0946924007876375 -0.7865901885376841
P 1.7748002201831767 0.10987455451952827 10.863614084211003 -0.08100569042010565 -0.5977850845433962 0.751885438066647
P 6.259325636056792 8.238822638815796 8.16968315260527 -1.3563309653493545 -0.22934677286207597 0.08381822016823628
P 1.547687449894681 1.7140987654699584 3.5255482898388673 0.4442143782713705 -1.1782103376521063 2.981078672979053
P 1.8041341494227447 6.33144865866006 2.7976146248957523 -0.5280588236918518 0.22501446403530925 0.5629417516119659
P 6.738947914990927 3.6683104598024534 11.438094805928893 -0.4664454217554289 -0.1411247671991892 -0.7877050188684176
