# total energy = -340889.11849566817 ev
CRYSTAL
PRIMVEC
9.10430451185995 0.00000000000000 0.00000000000000

0.00000000000000 9.10430451185995 0.00000000000000

0.00000000000000 0.00000000000000 13.32506993030929

PRIMCOORD
 96 1
Ni 6.458338638061833 2.080333560948457 11.365605154702441 0.20983672785360635 1.200579706486242 -0.0864119490373415
Ni 4.873078943096988 0.4113088026975616 5.925951690825745 -0.3822361367963611 -0.19313252772504805 -0.6548154950948271
Ni 3.0211268586316464 1.620092763692149 4.6485039762936635 -1.2939894269976555 -0.884834097212947 2.2937927160603464
Ni 3.636532316190994 4.515352613658096 4.63865676062836 -0.1095991857870822 0.021395692066956698 0.05041110546270027
Ni 3.394876763857275 2.674316590197469 2.769775222086067 3.12018332442442 0.9595968920471345 0.24178191330163523
Ni 5.209064193570694 4.433514021188224 2.648717107017273 0.6178168063832908 -0.6041549926254821 -1.1133560601808827
Ni 5.153782857106452 4.767004692249677 11.13747950917365 0.16971980522806254 0.6158254869848749 0.6686364601383195
Ni 5.4382650574519955 8.217235627006586 12.55851849222462 3.408275176536188 -0.570179921231618 0.5779451669993336
Ni 1.9219095596615245 6.711902620582513 0.16432176969298254 0.5796341246659824 0.8957088351439219 -0.18836467402275944
Ni 2.950131492731095 1.5893748405646213 0.5810676629927254 0.3140106288600592 0.6866210696411982 -1.7411919413630723
Ni 7.970008240365207 8.85825149291144 6.746295951406124 0.7710113602628206 -0.5599343322442099 1.1346203688762977
Ni 8.954493094980526 2.6572278107930916 1.3464046266720355 -0.42881989809317117 0.38050964102355755 -0.2656949724738069
Ni 7.2377581398246225 0.48384188561537456 4.681576272545311 -0.45380613572486356 0.8835778562083428 -0.9272436725274096
Ni 0.5874561534072441 7.693801852741336 2.2636095820223527 0.8056559469198834 -1.2442606923139603 0.9859483854574697
Ni 7.719339426651448 3.988659498408953 3.647298156172708 1.12703921409493 0.25784847984619463 0.24290291427995586
Ni 7.908044344453542 4.056614026631794 12.475196808564034 0.1243380346591536 -1.7054232684038952 0.2858791607311657
Ni 8.46081218757383 7.229455014189678 8.721591331350753 -1.759704141234647 0.06218212995569936 0.6176617688626653
Ni 6.9610874326751135 0.8840807645634516 0.3769965001833272 -0.032743512979608126 0.5362547292390829 -1.5554395081521792
Ni 1.7557560039183762 6.838006341163245 9.128125836808222 1.6630833699851033 -1.778535415008537 -1.028879894713673
Ni 9.357222001188644 5.404724799952939 1.2123983698510272 0.08315487555262452 -1.8379158138493832 0.145121289953092
Ni 6.843478028122238 1.8696963737882666 6.7986375079717645 -0.7599720717295234 0.37584206034455914 0.6576665913903771
Ni 3.785506049485522 4.536629373097643 0.46361394204550466 -1.7192180081951423 0.534857077560608 -0.6429490826745443
Ni 5.999390652033774 5.515478663274331 4.603198226187109 0.07656796636372619 1.6106027835878842 -0.1082688970114329
Ni 5.159218126847749 3.2501456364244623 9.19423128080249 1.2883034323564715 -0.3079772781817857 0.17143215993347896
P 0.1671085972772553 5.69113711283643 12.36551816359515 1.3364488817134468 -0.0986059200003721 -0.5506451936328001
P 4.126261955477552 6.340064619285985 12.498515663485946 -0.6508544535645501 -0.3199812446211973 0.33234876504761474
P 2.342601258498751 8.684413904234198 1.18538498819374 0.5838990705899235 -0.6650806244662611 0.6444428936112514
P 6.436096822353313 7.673936260487553 5.471153446754271 -0.5414673837882739 -0.20298936591446978 1.0242372537353395
P 4.90265882817148 1.3877053932623487 12.716087599326112 -0.7685618702810635 -2.1376815027546536 -0.9991646270374276
P 4.0521529174638955 6.346574196949347 8.047849132762376 1.4480918374034353 0.6667562123964711 0.8074631753319513
P 4.917972268213123 1.1957229258675124 3.614945099970579 0.05774003502394572 -1.1608479351142587 0.13356906633911833
P -0.013446147204222214 5.76387140088202 3.4785626196948334 1.5873615536717565 -0.7823735793531752 -1.0564647463104773
Ni 0.7514346908234313 0.10016009469329695 4.621880258865735 0.7403003043322088 0.2979749155534352 0.37427240186459415
Ni 2.0046403739649756 6.372876532431097 4.413036619677128 1.0556687327717431 1.7943057904689164 -0.2740875674128763
Ni 6.075675618804833 5.794261569050273 9.06844256915484 0.03469060940364994 0.6443606183100903 -0.7785521487245559
Ni 8.884836061830343 2.397818864832022 10.168027682023704 0.13662610799788727 0.13029630912511755 0.4835304022621737
Ni 2.6930987702247626 5.127425895798156 6.939603095094694 -1.5458636915382862 0.290776340922467 -0.5985173347237305
Ni 0.8987496198518549 -0.058974952769172084 9.020725999236735 -0.6906525593980944 0.9517370296830836 -1.048918044311471
Ni 1.369606036066876 0.5712941921932585 11.20498428475793 -0.4369368707733508 1.2370582610282501 1.2803407258659691
Ni 4.2016729090238805 7.288569262816541 1.2927939300696503 -0.2847566170909483 -0.9119859750373905 -0.3245560084760733
Ni 5.711193895483123 8.390208306763522 7.826493448003478 1.009956318336293 -1.3169023270400868 0.7518486712914406
Ni 5.25311081837537 2.725892474761027 5.025097155790995 0.885289953803443 0.9942219383201717 -0.46103684914534787
Ni 0.7995946403669987 7.408682351086095 6.778409564401894 0.9786919610053725 0.4432296457605979 -0.6474528840821688
Ni 5.249988041957841 4.806963484367851 6.766337256735296 -0.39289464495147175 -0.09532930613162936 0.9204960693909309
Ni 0.5495685905455943 7.289834761131516 10.970329942526485 -0.5144756856907785 0.7300120350323234 1.0052193178719397
Ni 4.804459800651173 0.430953160353835 10.329633637706923 -0.045274298456767184 0.19452400875593598 0.3773327859574727
Ni 8.519844497460875 7.346736663783279 4.6365117865059995 -1.2163266849078538 0.5100415611788249 0.4974385277028336
Ni 7.410157248402829 6.007493482971384 6.643120511087505 0.5612260544724398 0.18145689115933264 0.4385494666761092
Ni 2.5621242467770404 5.375645651621783 2.3114599852154942 -0.7714993556428327 -0.13844156394007126 -0.20557229615029754
Ni 2.2889769054397298 5.3726412311617695 11.487956080999485 0.38032220760309987 -0.2173518052837289 -0.47403197585343526
Ni 1.2717074505925705 3.739802441275626 3.8087311300718656 -0.3876015148733325 -0.7416354782038648 -0.6465689388153187
Ni 1.5091932314999688 1.244358120102027 2.4534780299298706 -0.6457850094614427 -0.573737042455257 0.9353557601115826
Ni 1.1781607226330721 3.3122096796847935 8.13111710102686 -0.21433024484858573 0.8307938796380917 0.11888421063343395
Ni 3.9614194195715005 2.8035430871957288 7.081528275903942 -0.8415439190657442 -0.11604725540527111 -0.25443122663452955
Ni 4.069678703480639 6.982409713636783 5.944752989892328 0.48442437483135287 0.5027666247839664 -1.0014271978193594
Ni 0.35329526447559373 0.02662462785837054 0.4070124814397429 1.477818160823274 0.26394585099318413 -0.859166517243514
P 0.42952742628099244 5.544621541736459 7.831076554850662 -0.44399994826771916 -0.9433256656909367 -0.1621689894639981
P 8.746587199147621 1.576000617365351 8.013683409549373 0.45504489322797115 0.10753793238267932 -0.6275620586955128
P 1.8914465570578765 3.427670468393539 10.358469701109952 0.015640534750734354 -0.33892564693418403 0.2728873764571881
P 4.237434616802461 6.298111984498893 3.2307962582315355 -0.15054811739561816 0.23488981416749222 1.8009785745034015
P 7.075000489631732 4.0634513592544295 10.215784310881276 -0.41314568189102396 -0.10437367572208475 1.575985450624331
P 6.660290318801259 7.894196697424209 9.928442448516067 -0.22748220884951145 -0.22103773877574837 0.2399042366629481
P 2.4895902534287853 8.61382823203274 5.889201255586687 0.3721514988668494 0.12736782262441293 -1.4012427382603803
P 7.10824940938921 3.919667079481743 1.295270300873055 0.029908100413342038 1.067441557036955 0.9789285024962108
Ni 5.4816652766425475 3.1779393980354813 0.1653787794366417 1.1027464029858363 0.22330313777115735 0.38082254427828605
Ni 1.7228439434245968 1.2566398267703838 7.002071369471462 0.13094371290112933 -0.21881270609997153 -0.4077661627466655
Ni 7.010314406697208 1.0309077028747335 9.22244096806113 -0.5002939948737578 -0.08244833640390317 -1.0755186776181347
Ni 3.012942088954217 1.8223995123041212 9.321925523366145 -0.7227381270787295 -0.43374921707398845 -0.10399803755022088
Ni 6.705566024703214 2.136325033157792 2.769509376396878 -0.9676688704219916 -0.1620921134794757 -1.0936776079153485
Ni 4.539852296863839 7.15510926426099 10.508496802426368 -0.3566631734232632 -0.8077642515121378 -0.8136831880997342
Ni 8.237328826870979 7.385256975802417 -0.2608246652990454 -1.3806001223093642 0.4865229092315943 1.4253658565608291
Ni 7.674928629669799 3.9501391863898148 8.224793110109184 0.7569808503116834 -0.22301337444488045 -1.484889980068391
Ni 3.3345152255242847 8.757739972067366 12.408557852330501 -1.777068086434391 0.08213363337696178 -0.10443229687416208
Ni 0.19735855915737494 4.918937324482096 10.059108336043806 -0.29807750256957055 0.09777031147295419 0.12378190504536749
Ni 9.053183754939743 2.6809809410360437 5.863936810809304 -0.4643394311560196 -0.007625634866057835 -0.4260392500242405
Ni 3.7794881042610715 3.063425456986861 11.575088826492076 -0.9557361235401475 -1.4327006996593454 0.11151954273824664
Ni 1.407916949084255 3.182127378070651 12.590752282038792 -0.06568885755737719 0.5874636480127301 0.022294292621826122
Ni 3.2705301740304304 8.423211410301544 7.960596210451383 0.17219320646921957 0.6746212169668445 0.21788993717538604
Ni 5.693495127682319 8.128951187004324 3.3532801073731724 -0.2914898220497238 -0.6697188945692207 0.9951920155429248
Ni 3.0853213091272598 8.519926436200693 3.3906705752132567 0.22221427558235277 -0.36987761523100815 0.17214872638452933
Ni 3.2877464136967474 4.665473489310083 9.171938480989194 0.14074244415910597 -0.20134231722935 0.8639981343042022
Ni 7.222016797475039 6.079563156794001 11.402261815605929 -0.16186097130527607 0.6378834952261789 -1.8710902437188226
Ni 8.142598539336323 9.417310410388907 2.2301767553155036 -0.2114822338768293 -1.1111446543518606 1.5938520464921067
Ni 4.821994690972341 0.4452305305519942 1.5538899036405394 0.18038037026570225 0.8547293074077666 -0.12401099033703805
Ni 6.039513321631584 5.717475865535879 13.505890560284795 -0.02682946148801831 0.17729041848646884 0.1504614712190828
Ni 7.8535004566476685 9.219564918293498 11.211820706950123 0.942348389379332 -0.8846008981562185 1.0679722327294445
Ni 9.596847293635749 5.226043721321979 5.5293973238781735 -1.1776362103161913 -1.363852213427064 2.0324146257943387
Ni 7.390938061763168 6.14951152768576 2.1806875773259913 -0.9976646454531335 -0.22205769539983047 1.1181524531282614
P 8.79204499113806 1.7598711495181518 3.661143071910714 0.03613582649060874 1.3873068449055788 0.6638565222511729
P 1.9960641191973019 3.3530971108542444 1.5594462606306785 -1.9363908646988457 1.5169588355784778 -2.1081341281148402
P 4.918300023172396 1.2928840626834506 8.261143866384014 0.4548145223847199 -0.5986152937541755 -0.6444606342230643
P 9.036559295061004 1.6360526093479155 12.532880770965843 -2.0406781513547116 0.9191557533129524 -1.0763141769362365
P 6.559651337695245 7.943232481053393 1.3907908420317379 -0.03473560370897244 0.6898213217460507 -1.9880232441631567
P 2.117615687565892 3.350438653962354 5.921074514945656 -0.3613670066568357 -1.1064410782286043 -0.5875544079543236
P 7.012135267582064 3.8533149088375747 5.817658720990235 0.4887338008399841 0.413469640889346 0.1463207095778319
P 2.747469676246576 8.456615103234235 10.171825087399071 0.234933265810918 0.6975310316854826 0.43991806488886176
