# total energy = -340856.89571804117 ev
CRYSTAL
PRIMVEC
9.40799432135781 0.00000000000000 0.00000000000000
0.00000000000000 9.40799432135781 0.00000000000000
0.00000000000000 0.00000000000000 13.76955066394194
PRIMCOORD
 96 1
Ni 2.651737318935671 0.21248614051048528 12.654231417718055 2.3358315382989514 -0.7375695356646071 -1.7154935081557037
Ni 0.8240283596986783 6.536881527770953 3.1324764279269925 0.31211726849208826 1.976822747461647 -2.7644069244814844
Ni 3.0093351884196164 3.6560783596851874 10.113197969611576 -0.20824341522455747 -0.5065618301603405 0.5691712774614456
Ni 2.3195974824647103 5.5342809659968255 12.585796725205213 -0.6278860176938347 0.8360535853751343 0.42983265562840167
Ni 2.2575141270128674 4.267485103753134 3.9630010078013784 -0.6774244907435946 -0.9200628385082541 -0.4941133199843426
Ni 2.994141277364195 5.815551776414124 2.0394217626027378 -1.2506390850364784 0.36231008729639536 -0.8535319446655559
Ni 8.303157223973397 8.638712162433904 9.755727108052863 0.08647339840289624 -0.8699510094535274 0.37845841492148374
Ni 5.062328923832602 7.243986391501902 3.931606530283149 -0.1248540550636237 -0.07413904520725942 0.03655851585032413
Ni 6.46973667129879 2.883051678762079 4.13602907874063 1.1119931183950849 1.3185216078110646 -0.016179180863023748
Ni 9.070397988302645 5.1228129202259804 12.83418565417991 0.30948831550967343 1.4271198631374582 0.1367387223163516
Ni 4.988777223132116 7.19107583065008 12.222954839608393 -0.01995895962043014 -1.559431917141024 -0.020618447581299975
Ni 7.8195204526879145 7.60220518862031 3.0650747332060284 1.5837663801213306 -0.2808680806698195 1.9175513633948393
Ni 4.328147852041281 0.5742931467165333 6.682128731864659 0.6895976357710187 1.7517257510148605 1.4784977033888023
Ni 0.8469753989898724 2.97374474537153 6.530980833644661 -1.1566742633525433 1.068454828792818 -0.5088076887717238
Ni 1.5930557021761769 8.410662376685657 9.24166770507703 -1.9838961093686607 0.7946102306286831 -1.5301645356354743
Ni 4.892241791962036 1.3677248268273219 1.8214639325134083 0.5900098114733516 -0.04195731826839225 1.0753903795703867
Ni 0.9882251462368615 2.8086250345766675 11.0314210514583 -1.5896446932789785 -0.20411165244437107 0.24616024487498897
Ni 4.9365816698593745 2.7041210320976443 11.166761637383981 -0.4129654475594179 -1.867481443321642 -1.2342714423117325
Ni 3.589535614858564 9.054084525906296 3.3784277455366976 -0.155732489810035 -0.2974272705800813 -0.040480476612549644
Ni 7.79322510816785 6.855266876339111 0.8547595736073682 -1.2264881988218876 0.7016723075473658 -1.6124971723971198
Ni 4.360163257193974 3.8737417195478696 8.18157771154664 0.8662887301105919 0.10186710725014715 -0.7178232062756155
Ni 2.6333258737743956 6.648610869996455 4.479180031929402 0.8903210884694474 1.0115874261818127 1.0158482583406956
Ni 5.9091330973232745 8.08655696748487 2.1188167686633 -0.8272701827555494 0.06679108948262047 -2.281873081804625
Ni 4.929723241896896 8.69948780665559 0.1346726183189117 0.7756020649572964 2.727800329002044 0.012268018734075646
P 3.4168518765166063 3.047061246210477 2.426539096308724 1.0702193768924086 -0.36320226009336154 -0.5163163384439431
P 8.634789028743432 4.485167279604739 9.411377576369688 -0.2733599452182325 0.13520480217032843 -0.6112106139206829
P 2.106158312115269 4.154702066147936 8.346261832197932 -1.0702579434398278 0.8728296165529033 -2.5367822765168375
P 8.004679191685902 9.061526249525391 5.252271628014294 1.632825856652143 -0.10020308928416291 -0.974919638447134
P 8.742896293101234 1.2057567941770821 9.735705955039215 0.7845214789341134 1.9323879141870397 0.3906999512929981
P 2.548042403980342 7.030500181180152 10.231286175293649 1.7358880126516556 -2.4227649070574016 0.7293643741459954
P 7.631812147190843 6.537681207300186 11.993155166890297 -1.1199385984944068 -0.14798498465413223 -0.26579421705583256
P 5.437378623042744 6.431690741696237 0.6083359746756928 -0.5324165864399153 1.151420985373404 0.29325488436994657
Ni 0.24323334800975996 7.499780352917291 5.420479983390888 -1.0791390479795415 -0.9271012334122744 0.7557611189719694
Ni 7.890005147193931 1.21592683619003 12.17505027260957 1.3292078838803172 0.6123398424291197 -1.0454516830294251
Ni 4.055560620512003 8.892116493256058 10.701543837655343 -2.393306492586969 -1.2912542874546795 -2.8572276052586467
Ni 0.9900408891679429 5.35871838134963 10.545149100924133 0.14480787247773128 -0.35313767676850794 -0.868058420416505
Ni 8.750940128365869 9.040320630009033 0.24022090818316802 -0.021981389367097627 1.111423361934544 0.5327215192748438
Ni 1.914028249221264 1.0738002638592232 9.797778961697148 0.10705610765025435 0.8598105785854161 0.854360096993806
Ni 1.401283143071711 9.306670361210296 4.750784128037445 0.4293330902841638 -0.49214616895564267 -1.6364727093761104
Ni 2.4671242436164533 1.9783130753771123 7.819369924776529 1.183406794251381 0.29946744093856165 1.7533985107315933
Ni 2.8079852909532814 4.95776847338681 6.204917620796423 -0.3960738140104017 -1.5993490650509359 0.33550427995746085
Ni 8.550088854605997 4.897961852594665 1.648077416985172 -0.7628853887215764 -0.7296595367889112 1.3687231683661203
Ni 7.094145263712615 6.545706226575898 5.32255122824105 1.0123430734009147 -0.17998673437170937 -0.4719408976523614
Ni 9.002613388207095 0.9748846100903678 7.29293242348762 -0.4022760861663717 0.4174016289539005 -0.14025033501403586
Ni 4.296885086445513 4.662423303255015 13.73943699326303 -0.42581967781426666 0.04690386364039019 1.44252745594178
Ni 6.18827770099226 2.607246913126948 6.68098566053758 -0.07974456431949492 -0.42853064898752646 0.9407455636685862
Ni 6.656005553643242 5.201303818018786 10.194769044791098 0.3099799104341113 2.1013811256617227 0.4674928891833368
Ni 6.554211053569149 4.826131814880645 13.405428729092003 1.970388561800529 0.5722522303796145 -1.2772206921797489
Ni 6.956844992540589 8.610036595315064 12.28834604591292 0.15712859882661326 -1.286290772801817 -0.07053795811956239
Ni 1.2524957106621188 3.3689557767127973 13.29860471517876 -0.5352334870634202 -0.36408517691894715 1.0326177644895507
Ni 6.124030506814258 7.697103628754078 10.11877502872839 -0.058975964313575845 -1.349051400968806 -0.5413606830070806
Ni 7.096327918427696 2.9892114882663368 10.16930913017922 1.4154388272551042 -1.109491949239786 -0.2616727386882913
Ni 4.515489245754351 4.905911607914684 3.305201561444581 2.0415739236961032 -1.0135556056517772 1.4910027778343482
Ni 0.8302884392134011 6.904254303500461 0.7313699630462069 -0.07785454638563366 0.24672305935699446 -0.44172632174219406
Ni 8.919484349144739 6.60971822089236 8.85921861822287 -0.3537058905671521 0.561076416268453 0.19723343726729903
Ni 6.4519649697609 7.242424664421281 7.704532181180927 -0.259440764033979 1.1466348768386703 -0.39094060654889445
P 5.118108922995199 0.5137451759608169 11.965877627748446 0.868150465909679 1.7461217745645217 3.9781694482065872
P 3.102474333589073 3.537575261447361 12.265186385946896 0.41488477606931773 -0.07666129740848088 -1.2444226718131213
P 1.428387575115469 1.7718170049403033 4.01375525632261 0.18625919764398244 2.2421863047379644 0.029989090162922546
P 1.123728490466729 1.2032448596558454 13.552129468330023 -1.6814878406342202 0.04213138195241131 0.856683088700028
P 1.281359437670189 8.822196278417733 2.4961582553242776 0.018736142956922573 -1.0567604231740253 -0.438059157303252
P 8.14265683845916 2.717000576515522 5.746404898720541 0.9440774562552966 0.2803556598097752 0.046223035523281684
P 6.9181028713478785 5.10690400159148 3.4352134593072354 0.3875652623187583 0.06738012921687105 -0.00696846089803316
P 1.2043173710244635 4.806478514450443 1.2341755230471203 0.7905414598759483 0.4276716434213409 0.16086775415407134
Ni 9.056558828449688 2.9177107303584706 3.6116566322360333 -1.8110639837638618 2.455247967286771 2.655360525874079
Ni 2.0034700525673275 9.253044792779395 6.893698533714589 0.5918183254370001 -0.359158171930975 0.8436535092095793
Ni 4.5058084194534045 1.697597336633046 4.369642752413443 0.47058875449984117 -0.8196879995329173 -1.7323584022318421
Ni 6.030627937799877 8.82133074292727 5.539683036416654 -1.387945506930842 -0.7675959068233683 0.8686194351262977
Ni 6.312397371923638 0.5116170876136118 3.483627939605876 0.8687983839063231 -0.38669880055340494 0.20048176900126763
Ni 4.822086377262173 6.101611256012357 5.817470066484836 -0.26770608936656476 -0.8670700883613068 1.656795994314495
Ni 6.819215441562408 0.03955497191418837 8.01102864714801 -0.9564082099065077 1.2701442449489415 -0.632249179758537
Ni 0.06708088210982445 5.294490003160551 4.598424480130799 -1.5456045243396284 -2.412083001863523 1.9028073723164456
Ni 3.0663005948843702 7.523356787037963 0.375569961303866 -0.29562235616085863 -0.403774267978453 -0.4258302193372279
Ni 4.0283997405014755 7.9619763048248755 8.161254561910775 -0.08923090654337534 -0.44747402285924875 0.2180370042762116
Ni 6.144775134602 2.3858015394907177 13.04154067451106 0.4146006691699957 0.14434275991585463 1.4173188178866365
Ni 4.7296716476662555 4.925527276367039 11.402372628280986 -0.5310348756010403 1.4285658515553654 -0.36340769123594835
Ni 2.8322861406474944 0.5434640896654429 1.161160078030943 -1.6789668739845793 -0.953703409380835 1.8041993954335442
Ni 9.252856632890165 5.222293053662529 7.091883581844055 -0.17655868252676687 -1.4167570318458955 -0.7066520201501443
Ni 5.993654519565942 3.5965351627379656 1.6055297620327609 -0.15032237453805725 0.1981559490815684 0.991913344791653
Ni 0.4784379135460235 9.404664031521918 11.587325332200265 0.054537983146880256 -0.14346241419343037 -0.05929349555399466
Ni 6.366963739800694 0.6742596734667453 10.278542531474072 0.14161379102046578 0.3974246716113414 -0.7495393064319738
Ni 6.86056357722097 5.141751213077103 7.8094143850373055 0.13365365563312467 -2.2903672353185653 -0.4570909771237225
Ni 0.9997499394522742 2.6466005539596584 1.9564884098251825 2.0732131478679388 -0.28965379728224955 -1.5607205540454605
Ni 2.9642897109376607 2.3127108305188475 5.706101991246658 -1.7525389909447753 0.9147385980818633 -0.6737766095783622
Ni 3.858924128270911 2.145878864731981 13.696806547959358 -0.3346563301348688 0.6837928561637836 -0.6614319719700802
Ni 1.7897862743618853 6.438925489437176 7.684015226859154 -0.037306449759942205 0.4967412445254929 0.6532154975975589
Ni 8.66430190736935 0.8352154059129208 3.018588891772008 0.506964722025714 -2.1921122708997083 -0.6231973539689138
Ni 8.084242600847327 2.590011467273367 0.9435776269206302 0.3468539006423252 -0.7810921415375903 0.8866719217526342
P 4.751959186545696 3.630300454860509 5.482429745321376 -0.6392716338229572 1.2953279433034208 0.26121251122242106
P 0.16077509895251355 8.319894046120513 7.447826585102211 -0.39802013910349515 -1.400861957882194 0.8648447985752137
P 3.7255846227672023 8.157624957647505 5.904066892305724 -0.3093132233843899 -1.4888679908795326 -1.1264416897202472
P 1.8215852956419625 7.6741481222678685 12.198775353042736 -0.5783711987931588 0.12258068564841469 1.4848902371787072
P 8.331635223208544 3.1954159108748375 12.711663460708102 -0.5912783937731301 0.31658481734513866 -1.059393489921498
P 6.964615995965838 0.7367155854992662 1.313313690858882 0.19611834982624934 -0.6956600399150149 0.20204577105427782
P 4.88467776441494 1.6411399618692166 8.915068236544483 -0.10312411958569981 0.5686907382806012 -0.9811509640688263
P 4.893144959430345 6.043733274084832 8.863363780582635 1.1353343642241867 -0.5439194448731922 0.33424521073937924
