# total energy = -340851.6375589335 ev
CRYSTAL
PRIMVEC
9.50428261450767 0.00000000000000 0.00000000000000

0.00000000000000 9.50428261450767 0.00000000000000

0.00000000000000 0.00000000000000 13.91047831393618

PRIMCOORD
 96 1
Ni 8.267974926277292 3.603510688209998 13.165947979936714 -1.1847070011200436 0.8898192091323643 -0.9550686651594779
Ni 0.3026201561321539 3.288073056714475 0.910243192016213 2.8842239313418325 0.4996517333040685 0.087870535860739
Ni 5.2364129496324985 9.32202836704827 5.915987205664007 -1.0459358217546952 -0.10748933853293101 -1.9410329914565474
Ni 6.555388760475072 3.6114467640875105 7.672630472939529 0.12609641211115702 -0.7792795138088837 0.7466879530261076
Ni 9.193948656239456 3.633572733719665 8.990508539154735 -0.3834324710973074 -0.630141903607547 0.33653194989102686
Ni 8.799492420138378 5.043352459452963 4.390119322337054 0.5648230277950789 -1.6477032879846074 0.7229587277299678
Ni 0.7373583927022879 2.5409509146122247 3.563266704870895 1.3079939688068636 -0.39765375690301197 0.6776754304121362
Ni 2.437924492441883 2.3693510942906824 0.010591572404670554 -0.15971872815129268 -2.17166840122306 -0.26115646117350505
Ni 3.784918928059197 8.314184747734135 12.451756275799022 -0.16384894826958232 0.791570929581727 -0.36194627619907344
Ni 8.307009014455668 6.705366338136327 2.8813192295021226 0.040475591516543195 2.8284201941086518 -1.088803567652499
Ni 7.604290880137534 6.0600445657634605 13.165377722987431 -0.5187090070458357 0.954803327313233 -1.1355058568050445
Ni 8.50807211049013 7.8639858948407095 10.991280707274521 -0.5327981381490502 -1.8344913615488665 -0.48443028836862384
Ni 0.2963929502459908 5.030958875088562 7.012745288510241 -1.0297047046078136 -1.3970346137163037 -1.001826747250623
Ni 4.088590257834528 2.5669831443469637 8.082085417234982 -0.7253873917761186 -1.6533152348547462 1.7197137168846381
Ni 6.953171495446965 6.016115772103746 4.959307990267733 -1.0058440959401322 2.1637416901768156 0.0678652963834057
Ni 2.9879278157422067 5.183911293168571 12.18069604009665 0.349768503185959 -0.7796196707571219 0.5792181201744864
Ni 7.547160638101933 3.3995202731692187 1.4076289066062555 -1.7927734129847899 2.1399954955998113 0.02819188905318371
Ni 8.383803616959021 8.218866298661593 4.772448093983396 0.6616332893476089 -0.955113145244168 0.46740572878616926
Ni 4.616467611502697 1.5409293197857474 10.169338952569932 0.5737725236788829 -0.4059545634592234 0.6422253171346424
Ni 5.947409313997713 3.9903064726257176 4.289587774319823 0.5987731594882786 -1.913009766770744 -2.694112706941612
Ni 6.760082492419967 5.84913503307139 8.59949950631207 -0.04796161548094321 -0.7401007867268931 1.2238044813421376
Ni 5.897806463692637 7.0509325451189335 11.348933510297169 1.2091327382625756 -0.6118163658254818 0.5698317938635798
Ni 3.858377527409249 5.464449199368015 2.929907972865724 0.8490579680546023 0.9259799753236375 0.6702125463761877
Ni 7.320911193474167 0.5428294908783515 10.404494860317241 -2.30400539492729 -0.3393128550702737 -1.4168624470755082
P 7.837126792529512 4.188936472343243 6.1117773257741055 1.4044121371272975 1.846353403093775 0.1800777514236189
P 1.798333802409305 4.1037781012504135 9.590203102587273 -0.44124501123040133 0.5762268987566463 -0.0034028550339618813
P 8.33379208250696 8.064602289598234 8.737032176483485 -0.23475020326583446 -0.4940791243122975 -0.0759933248071788
P 1.794912260713611 0.8194497318362263 8.013436935252125 0.6559647782079219 1.331672800481042 -0.2385297249129247
P 8.696941212092439 1.7549657614163836 1.6189157593131018 0.7482465557624791 -3.5002044558473333 0.9298307165282954
P 1.5229092001884255 0.22140986398485668 13.780345668378247 0.8388666293438971 -0.852910509031473 0.8415400624110023
P 8.316066595666769 2.5277589705188266 11.359616323813725 1.8810350136363603 -1.0086221729059015 0.1381975662500652
P 4.178985488578266 1.0145441384682008 13.015742299495747 -0.19737690482369877 -0.442875861965605 0.0847687570069637
Ni 5.468041818148493 0.24932299122397816 8.216112908024808 0.11038748601633248 0.14796904381453227 0.5313588345993623
Ni 5.350578390878821 3.835557745155468 11.895225411285912 0.6299853234250247 0.7091585886220819 0.7747780263941043
Ni 1.7788500233088251 7.137050848743054 11.756955208793425 -1.685960531693593 0.13782629895357554 -0.5820219081718685
Ni 4.99916705016607 5.231622791258526 5.6663638791134066 -3.2954479707301116 1.5631798142192306 1.8585214059148765
Ni 3.594186987089232 6.40012680175047 10.119386344669298 0.5975541994795128 0.03195109898529981 -0.193024541392274
Ni 0.13535618948165484 5.8719548153251715 9.636358749633937 0.9931973537103991 0.9110220684622244 -0.5443182229735077
Ni 0.9455430476050384 8.5007062915619 8.555778856438842 0.06731970829258084 -1.289491796237618 1.3326341359530467
Ni 2.9300182225425853 8.733019468417034 7.026613937516788 0.4152601571308655 -0.9471890053010849 -0.035108670777675016
Ni 1.746782574194182 6.3557988282262565 2.225231005926807 0.06937530527002891 1.912977885091544 -1.289974135190675
Ni 0.375945695527374 7.936817211546551 0.6621738156524073 -0.3604815187280888 0.35663617684006965 -0.5495409048250277
Ni 4.452556755713977 4.787563704852373 7.9009432972954485 -0.5833005177739761 2.6090716701098677 0.04845938105296815
Ni 7.4872836584272875 9.184007176756968 6.623140038191059 0.5998908180324893 1.0538255089154174 1.096411461906744
Ni 0.7911497802998415 7.337039960856369 6.375185663645357 -0.9978014281413138 1.2493177951218934 -1.1943900327357624
Ni -0.04167057614055777 0.3594557654106265 10.557663025609727 2.7578290141536503 0.78127546119299 0.23331989857721108
Ni 8.997438111516765 5.491945088605912 1.0297291305993406 0.04411010294533694 0.12593288995009924 0.20241343880634172
Ni 7.178983743080281 0.9038534628995045 12.66622801356761 -0.19283068021391309 0.30235247579584057 1.561656949816801
Ni 6.885215875657487 3.069027858212642 10.046536969826729 -0.8441870131155461 -0.19624330543988786 -1.0846864601603319
Ni 5.896152718539719 7.397183060440678 7.183161825662024 -0.8071430729883713 0.5363696575503923 -0.8880117236099803
Ni 3.3416296885345744 1.4052461829865042 6.060531185026849 -1.1978515089218016 0.2809480419781355 0.17674354484406335
Ni 7.768581907225775 9.026217078890546 1.522863579632483 1.1519825143038291 -0.23460416460627337 -4.282542811087199
Ni 2.652170028287256 6.311518376114482 5.646930472710114 1.3589105531510726 -0.41395377961461605 -1.0958365632398805
Ni 8.502759216579316 0.4351098540154162 3.356153182604546 0.7203012355024627 0.9047596324922805 1.2796753243678283
Ni 0.18682758172387834 1.6348886564625 12.87072595729325 0.3437310387426274 -0.0032218493714073547 -0.24081749250583684
Ni 8.049110309142732 2.7871783610298486 3.5429845660414196 -1.6326566780641303 0.3859284980462837 1.0365582371945374
P 4.762767031841078 6.392722965692287 13.015895318443805 -0.6024950884245559 -0.4990513807159082 0.8521718310932357
P 2.248770262364933 8.937066909152742 10.642697841030213 -0.5301229053097323 0.6756560859892622 -0.18887838043438437
P 5.0938297037469376 4.2694947707118605 9.789971715346866 0.13413033815922706 -0.1091744395448378 0.8652140089891746
P 0.6116956209301838 7.05220611897233 3.9655991398698114 0.8804357110349353 1.0251080863760667 1.6777895658470265
P 7.357654749572925 1.460741688434163 8.43422858769931 -0.26223323917745156 0.5283879248964964 -0.8073310206294612
P 7.2085230530531055 4.976518344997074 2.7794247673761068 -1.2416199122570037 -0.18840041235670132 0.24241800422373738
P 8.108321989043214 8.404817585540075 12.980492816604109 -0.32340955357645595 -0.06071737248471479 1.7722799210171285
P 6.526885417293444 0.7370485530931777 4.3484848624699515 0.5914416588238717 -1.2337435948327204 -0.6127216512485706
Ni 2.7062303870792213 3.891062754885615 6.52519650629532 -0.7399501200816417 0.45592960982576963 0.7315760370853337
Ni 6.406361611062623 6.79670249284638 1.3049959617309184 1.530201816631313 0.5324345841620443 -0.26500283150278875
Ni 2.7320250097517587 4.134049240974818 1.254721158653939 -0.3358009852622733 1.895854852258012 0.25239696981332016
Ni 3.084823975707763 3.688317400850769 4.306614696397145 1.55372535367455 0.806346545229005 1.8939712620820544
Ni 0.5965296373640201 4.127586328882951 11.5626952781639 0.20822053240642205 0.0020206299744545846 -0.2884806029097548
Ni 1.949803552421181 1.6900039906106377 10.281039933367108 0.25607776109901703 0.18000858874858028 -1.3793621361372053
Ni 1.3447324163851604 5.0301795239245415 3.7727724550394828 1.168110530213943 -1.6856615123959358 1.2945165031457189
Ni 7.702726733866153 5.465722773221413 10.692748343040474 -0.5855787722851915 -1.0214185533396216 1.071681820370548
Ni 5.4603243407682065 4.954354358234967 0.5821420545336269 -0.39536984596484165 -1.0068799934038144 -1.3134395653024669
Ni 2.8247487897050667 8.817816676775317 4.587480500342426 0.42060342372064985 -0.40313123507781534 -0.38797098239760924
Ni 6.9858187057933785 2.3066323341521136 5.69923444009829 -1.5076167322419454 -1.266006311521168 -0.15424896328597307
Ni 6.386744772007311 8.364633479180647 3.0367684225917406 -1.1052360021769094 0.0003239589983220227 2.7178684146003125
Ni 2.4728432263029383 6.8717768202194 0.2023110083251425 1.1541496971584768 -0.13757227396124047 -1.076966980028887
Ni 5.415540161684567 9.14843264740424 0.4110991851658835 0.3317018754922352 0.43517360822534085 -1.3097268923375702
Ni 8.881656942247476 1.9733171472965894 6.788313062694188 -0.6756090348014105 -0.009745509422538054 2.397568353187116
Ni 5.980541242751016 1.1139874461405517 2.149307946127606 0.8736531408954632 0.5727368833255169 -0.6891183821417551
Ni 3.3656470103818488 2.664354518436922 11.828594688475267 -0.2965443537544958 0.462106685170759 0.27102795465094615
Ni 4.628937230127003 1.7905878121815535 3.9145478369135596 -0.5885982758378057 -0.23840451218897005 1.1058985754615729
Ni 8.067928788469048 6.776772012468963 6.887606202703228 0.9903958797058621 -0.03911342106169393 0.3061214559199696
Ni 4.8707451851876895 3.3175838538398357 2.0765146465517157 0.003818345304825682 -0.4527645818342267 0.20078078829892518
Ni 1.954679249337545 6.142902900494184 7.954845884998112 1.9266201584653273 -0.30335649158032274 1.794911542373715
Ni 2.7396474443071663 0.2382200884214511 1.9458668786146354 -0.07980909900884318 0.596870800259243 -0.3300694820951348
Ni 4.412116033727372 7.725242379080317 1.8451414432346478 -2.1907233609719823 -0.5081643987607699 0.9579979229911307
Ni 0.8709353805021818 0.39192429524626504 5.867522968400999 0.13525956666766384 -1.110033937786185 -0.02951677851219433
P 5.348192815974324 8.254231733799587 9.810782292282674 -0.6278122270331059 1.0108706026204461 -1.0075088852370648
P 6.048344794020685 2.667690521590224 0.21752071159075118 -1.5623316072863223 -0.48872043110354535 -1.4830030474583233
P 2.736197389764008 2.5805267468924185 2.723921658502457 0.15103765543752698 -2.6476816691725817 -3.1269160151625637
P 4.042142829315481 7.03733191687855 8.01201794587666 -1.4422430919321418 -0.3398391598873889 0.1285088782073916
P 1.1479272389053388 2.4969365824101164 5.969222592736011 2.1281722777126384 1.3003688481614377 -1.6381053598835273
P 0.7275195594706699 5.690156899893963 13.222410070913407 0.649606440090062 -0.19487265034460635 -0.42337455870788376
P 4.911024334371998 2.9104298963347373 6.196561228136906 -0.6167906791116217 1.0203024374573075 -1.1622067631349984
P 4.586405565993029 7.548823887537339 4.11279956618806 -0.5657188001364708 -0.7576835328056629 -0.06894438838019738
