# total energy = -340897.91783093667 ev
CRYSTAL
PRIMVEC
9.00372846923570 0.00000000000000 0.00000000000000

0.00000000000000 9.00372846923570 0.00000000000000

0.00000000000000 0.00000000000000 13.17786672555129

PRIMCOORD
 96 1
Ni 6.231057302229732 2.051355473346996 11.435712968016583 0.16150204530396056 -0.9736158320340458 -0.26600607595632253
Ni 4.776018765774382 0.3056000500303162 6.03112771069921 -0.4801563435836183 -0.766941561068821 0.003814745760399882
Ni 2.8579004663987377 1.4958254264465787 4.916635395603749 -0.35028632336264187 0.5528074913914415 -0.33646638676041407
Ni 3.5566798333345786 4.360730793598777 4.816049342573722 -0.5020019787038 0.1260321345321249 0.0989728164214876
Ni 4.844384076084186 4.7484313417273345 2.370909501767689 0.7350693949505728 -0.12464990947261757 0.2823899166309846
Ni 7.120382574879568 6.15069902559138 2.6290896150393275 0.13210328042686928 -0.7158324010978317 -0.2393856451553168
Ni 5.106140470306048 4.461743623358514 11.592345430057076 -0.3241425750877385 0.574330710175198 -0.3229621816263922
Ni 5.437261588698427 7.762429448695157 12.380698389725312 -0.06364611609573555 0.0790339114057155 -0.25418465784136224
Ni 1.80553567852568 6.384895006951619 0.4892914172563817 0.6489238122007405 0.18703824190185206 -0.051625180375459476
Ni 2.7443724540589103 1.6897117154247567 0.40372268294961516 -0.11988411265285805 -1.163875409086673 0.15173056773949353
Ni 0.7155920291169939 0.14674726854791653 4.904104006312404 -0.6575655470361385 -0.6666189154876583 -0.9239850563807958
Ni 8.554424416531484 2.2118559371402995 1.3529317536859131 -0.01679367451857108 0.34096967394740635 0.7525968623113748
Ni 6.86372229097449 0.5851388079900772 4.637924080290831 0.4019996925765335 1.0490761671558901 0.33742052314356724
Ni 0.7942792137504057 7.436278388420915 2.657580113052407 0.06647715778662744 -0.28316741822695746 -0.24070256419452737
Ni 7.656104419135238 3.685253075955939 3.841796401084531 0.6376603234717793 0.12233488818619574 -0.7300585719995427
Ni 7.498007950844729 3.7034135962897827 12.639458343110734 0.8141909809740882 0.7014460504691725 0.24501944640232642
Ni 7.9444938421858105 8.901887302105779 6.816330265774083 -0.6241797724868412 0.12941236385826746 -0.14774432939823587
Ni 6.6178214625969005 0.6301610518558932 0.2711887001721524 0.6383169832191716 0.3517143140584201 0.11152494205488535
Ni 1.9820447715473295 6.407170231198486 9.226351964036676 0.3815823052624461 -0.3681470056931466 -0.9056929429398274
Ni -0.15493435885012963 4.712920636622387 1.5365790026424515 1.1263984951871375 0.37648483613488065 -0.36081679058032057
Ni 6.333564750916299 1.9949741256372646 6.914150373416627 0.7396834966838164 0.2759261632835119 0.7086729072349149
Ni 3.3245907244374626 4.138545786024035 0.3822262812158267 -0.3223446026470513 1.33033736949907 -0.4202810073842245
Ni 5.92873911122851 5.5151978623770335 4.635723569051569 -0.2710883755752363 0.5766143640030521 0.5339350799669708
Ni 5.4359290368841435 2.785708571487108 9.251442654177637 -0.336810143253078 0.4239954801213343 -0.3436634187294856
P 0.19374132894973237 5.641448143051874 12.488796253421937 -0.5506395372058451 -1.6240522242245707 -0.6026467835110718
P 3.864121145838009 6.064641388828428 12.541994783115797 0.05982237147427117 -0.04687558150561604 0.23412928185238388
P 2.3515938030705184 8.378005360794583 1.4607667085110707 0.4349548073463154 0.554350153288213 -0.14124740881998255
P 6.294065394096978 7.627004368704409 5.733281671631466 -0.06615679833273123 0.16822882250483284 0.1111233357410925
P 4.522716872590437 0.991085411872989 12.49296047784157 0.9803508367650342 0.14083654653480904 0.7013604327339018
P 4.032896036099732 6.078255026282454 8.125380547991949 -0.3029453721848331 0.37670517967580286 -0.13896606898497357
P 4.728019889274769 1.0789077794170194 3.8732383212916774 0.3305942442503532 0.7695895402146294 -0.5244435955367678
P 0.09666312853352008 5.560963814214874 3.6202101414533687 0.6093645618508796 -0.5438847349805149 0.4675011167134529
Ni 1.4526075297671297 1.0724701135574763 2.5624233082927352 0.21807968458868893 0.3977182915923602 0.18821683559098554
Ni 1.827900940057295 6.545755619883919 4.718546166173495 0.2734275652313743 -0.49489467823505734 -0.2766046774077753
Ni 5.944657703172108 5.6105203357406435 9.153399254068917 0.3005344487504953 -0.43440973347612283 0.7987219388042115
Ni 8.508451378938721 2.3217464431762735 10.181325221742593 0.1436084528529914 0.48090196350039116 0.6378444144581272
Ni 2.2713075562599667 5.337473266011274 6.936302246583387 0.6728594970807316 -0.22846385603649044 0.3668087464976973
Ni 0.522638526408814 9.110332620027847 9.378912039687977 0.2576790441478659 0.07332117729165438 -0.5983838944696598
Ni 1.5420685758935893 1.16238134610768 11.330567426886875 -0.29144611329598197 -0.3143592704487296 0.2069473221209533
Ni 4.114739927936439 6.993853178622007 1.4538347379582568 0.2077849875309002 0.08501018359380844 -0.21839078807120452
Ni 5.764826234343226 7.842301523995863 8.053178748978997 -1.851825996172572 0.05655398513564454 -0.9941818291108555
Ni 5.474428979842752 2.9192698796835552 4.8543440005231036 -0.6524469948626506 -0.21533503196401624 -0.4301861823130784
Ni 0.7561160102367572 7.4443907477767866 6.783860119775106 -0.26303876579788243 -0.4843055898653014 0.5642499289004282
Ni 5.217138434944434 4.414266963110444 7.122623602896967 -0.6202488128635512 -0.18591595537195077 -0.5595473812184363
Ni 7.983903161720383 7.477803584147086 8.891383552466978 0.5980496510586926 -1.0955334301771649 0.22705900526916378
Ni 4.490627584305946 0.299147077832366 10.446582265595492 0.09339377967181334 -0.39522714973939027 -0.869798028815431
Ni 8.110513591534218 7.287482771644962 4.558316714607286 0.11289302604700557 0.1663262061654813 0.7799156047309859
Ni 7.07589515248516 6.036864886483407 6.999226603775817 1.1589615167248235 -0.0033923135110006087 -0.771458217992252
Ni 2.3682056821066815 5.099117562095638 2.556994060022379 -0.48722250640178016 0.9768412809498789 0.025441580001556184
Ni 2.166882313408248 5.038630514201359 11.365264194937692 0.6010609270811906 0.7234678061559024 0.260398499961558
Ni 1.2676619431645129 3.3663680245609298 3.7221278459248315 -0.9792385775374619 -0.31447599853225194 0.817915481013527
Ni 3.6037873407151784 2.770726367304899 2.6341767216276377 -0.14475413642166038 -0.6809687564514273 0.44988340363168977
Ni 1.2127572069246628 3.3178649392667237 8.162384071278032 -0.7976996681872843 0.17506178626626626 -0.7346389922813735
Ni 3.7280568011255437 2.4421443003424383 7.07431409776497 -0.07673174563510012 0.9364963014739289 -0.6450450459716246
Ni 4.054477973254032 6.848091818342089 5.851868879001331 0.7795767333343284 -0.09505522653463629 0.585339916801508
Ni 0.6825339396486054 7.137696744736772 11.009001065152043 -0.24396015189987663 0.44614167720107034 0.7452640760953875
P 0.1987969224883804 5.83780145363217 8.101093890803794 -0.1951333602051607 -1.5206118589500328 -0.5308027049855761
P 8.523334542107705 1.594695368829293 8.093002240023415 0.046759624753042045 0.6802560466551186 -0.8920362713883412
P 1.7302194898332652 3.1944148181475724 10.293442349830407 0.08762242440567491 -0.04548204359219909 0.003789034728787022
P 3.9069518821930376 6.326901991844885 3.639212510399614 0.009465002067641762 -1.0035293317640266 0.38273853035407635
P 6.8714835049198415 3.961964663174586 10.498226751754586 0.6576632489562674 0.44785531745806745 -1.4752889666435174
P 6.296514408242147 7.645849172402343 10.245619946408901 -0.8471995746896248 0.3870340724056367 0.194860051939116
P 2.488000289465029 8.38102160983367 5.894051346906168 0.7439975506781381 0.40176237975474677 -0.32903332752113656
P 6.810006046893324 3.96952779509349 1.6397347197792116 -0.6180392068067421 0.06697543757928466 -0.030129986616161012
Ni 5.18128558815744 2.823317145326704 0.4219948495165472 0.5198359215614273 -0.011605702559728402 -0.002784247613356495
Ni 1.4777459396690091 0.9402053422614127 7.030537069547231 -0.535883204832277 1.3072743170320196 0.5796498083952663
Ni 6.862686862199879 0.6657140744846725 9.145623634158007 -0.4660489576479587 0.3396262725456345 0.7450352479140331
Ni 2.704846086054164 1.6154579666923785 9.104482897637713 0.5347586043095307 -0.30500868247176505 0.8683857218489367
Ni 6.187380215398063 2.0330328859006044 2.4444285462565167 1.1567387980418915 0.14918774671298177 1.169544177336676
Ni 4.098695283794193 6.726226353434518 10.401632951930322 0.18028421100747016 0.41771993152526765 0.2531112222715254
Ni 8.233018321163508 7.167481078531692 0.5073519962041539 0.03442295756456007 -0.22734799726449234 -0.39636434866762704
Ni 7.782669830306698 3.9470454850917016 8.131679556432978 -0.2990084990242722 -0.6914004933077125 -0.021840750024175286
Ni 2.971779624149086 8.338064821279993 12.42469871040923 0.16507844980130923 -0.2923285159009352 0.11992627874470314
Ni 0.013709977348707703 4.825287167988954 10.09216399977435 0.33623910124095635 -0.3003909811940956 0.2920104704398842
Ni 8.609536238526257 2.2846330744027967 5.873032142781548 0.33676129229301355 0.24367373100770942 -0.024165798612926122
Ni 3.6047057210196165 2.708861748953963 11.417066246345096 -0.24359762635413532 -0.30226274429551164 -0.6360875796680207
Ni 1.0772240821922157 3.1640722531872094 12.531650399471001 -1.0347330110603408 1.0177850703520923 0.20789091698114517
Ni 3.043782440762743 8.449945151308917 8.125367042399237 1.2163778498607634 -1.0689731631901331 -0.2301232460167843
Ni 5.4887539118462945 8.004377640272272 3.578621019255026 0.5283565574379288 -1.366495821697498 -0.4279547218793985
Ni 3.1505396492894566 8.466647067629829 3.578581402849737 -0.80107835485153 -0.4283673839367848 0.18727195517921297
Ni 3.4399825085715916 4.152204442120436 8.995593606208148 0.05961025546346507 0.2044556660473511 0.7549972442227514
Ni 7.2884011519494 6.05706925318105 11.313607103558732 -0.021872374593059105 -0.14078820979537687 0.7127542763931402
Ni 0.6443959465746867 9.032720480574335 0.2992920378608116 -0.22986536436970734 0.3568626910285789 -0.4635297907705307
Ni 4.570832797560223 0.5275257502249817 1.698547974550009 -0.893655552159319 -1.0755104500880186 -0.6564214061293663
Ni 6.093228226736189 5.662822994451251 0.33772355248301167 -0.33820908048313364 0.0506594740280805 0.47975293749761244
Ni 7.921804446429099 8.673183595115221 11.332820159751291 -0.20164750717459468 0.9419701801043067 0.6757530165784427
Ni 0.24209585272410336 4.722383555249491 5.903051473889663 -0.8978958154929118 0.4689319356227085 -0.5520675279016234
Ni 7.941918775841994 8.828263814366643 2.347624059185941 -0.2261922863934943 0.8455139594570857 0.5154089961383252
P 8.596597880707847 1.5463633543761095 3.6711559382828116 -0.3793336184375854 0.5429647942694068 -0.4715135803069557
P 1.6792944015793148 3.2689746936480963 1.4944883727680585 -0.14070979114895768 -0.6119120108630816 0.7658434429086358
P 4.798104911723276 0.9440049156778142 8.20735949575578 0.14047864897475806 -0.13405757593976267 0.4028049620866482
P 8.419269448394981 1.6531205629028232 12.439603482526554 -0.3737746362925692 -1.148327434049745 -0.8963027599741789
P 6.338282704637139 7.73591346833662 1.3647266379880127 -1.3044648726076824 0.1227830314672079 -0.12311933176070407
P 1.894645579241619 3.2007444392654167 5.974238552703496 0.23100462018047313 0.24719074302203237 0.001329517444700936
P 7.058635004998805 4.030257943656591 5.94295419774466 -0.31234224001870076 -0.20245637622913523 0.5098759821352381
P 2.3633436687302436 8.372648142352027 10.261921196812683 0.45558148245773156 0.13126638634787072 -0.008252726927095463
