# total energy = -340895.8183148453 ev
CRYSTAL
PRIMVEC
9.00784919187412 0.00000000000000 0.00000000000000

0.00000000000000 9.00784919187412 0.00000000000000

0.00000000000000 0.00000000000000 13.18389781966464

PRIMCOORD
 96 1
Ni 6.308016622234445 1.826269358006877 11.261197780246782 0.3193099295857856 0.3189576884526894 0.33705799759782595
Ni 4.669020448634168 0.4128612552910013 6.274823598799145 -0.45969087664041475 -0.3809688400481632 -1.3423603621018751
Ni 2.788478799331006 1.5249748187075998 4.780402503717747 -0.5575984850221816 -1.0406429487868725 0.6901871897259017
Ni 3.3394529021407275 4.472748422898939 5.029327209467092 0.22571843208086934 -0.40736224244002744 -1.698670523061094
Ni 5.208806802765054 4.398640847713123 2.9155399166934757 -0.19523157634592184 0.1477389300815972 -0.7620477233116295
Ni 7.238077049842981 6.039042245785137 2.736687269698289 -0.20590962488505826 0.053521111846591696 -1.0361520028950542
Ni 4.991915810261825 4.673037949367469 11.223742242580546 0.6537472017313127 -0.9674955780689208 0.4293302620706865
Ni 5.7434766985629455 7.9219079201761735 12.406377356425274 -0.5351013323609302 -1.5068466868451402 -0.9057158257579627
Ni 1.9549464835118449 6.410390828140216 0.3885481695751834 -0.9255701414797286 0.6444400653977741 -0.6115991076083531
Ni 2.857388845541227 1.6583270179358496 0.4683315905279347 -0.54489852095701 -0.675971817457468 -0.03508707351112022
Ni 0.2860199294484702 9.051267010843683 4.7605996480852575 0.8545025361089412 -0.21427599457188257 0.589310728523798
Ni 8.549124458426851 2.270311283226856 1.535713075712463 0.41172540450472966 0.6603387389059014 -1.0425890167696494
Ni 6.767579071587784 0.8274042760234991 4.982867425762718 -0.49927635224252076 -0.5120938157221632 -0.5544535116352968
Ni 0.6268751407668386 7.494080123476246 2.5545386506889427 -0.0016141385646552848 -0.32180621364507805 -0.350276553170629
Ni 7.517806798210589 3.8071224157540935 3.8912800482675878 0.4270700052816 0.16606163965018497 -0.03290832069224656
Ni 7.474587137855473 3.6020677370705028 12.572969419904549 0.8940479025017312 0.1496806271890003 -0.2946597351372732
Ni 7.934987317182349 8.653903760063098 6.993477913268819 0.4852887797141771 0.8650736267565681 -0.4652156631133859
Ni 6.866710451789546 0.4727526429044022 0.3536977018911672 1.0962037167713121 2.0253062968843314 0.05934388917595586
Ni 1.9138616834118687 6.4186690415346215 9.114713796527564 0.06548034109099689 0.3093209366938737 -0.4390032663840762
Ni -0.10984711758368103 4.8997204739269735 1.2736963619680943 0.9215893024551096 -0.6759769596637907 -0.0657608484458932
Ni 6.304656694491122 2.320953411304485 7.040452045161246 -0.6802699306121898 -2.15546505199032 -0.12208729095176392
Ni 3.329517244497607 4.289114409560172 0.35397964757043254 0.527899158185536 -0.47035658388437707 0.04446260118874923
Ni 5.908923864411721 5.744125263703748 4.810593211022084 0.21135239316718438 -0.538713989412853 0.40819785096744543
Ni 5.320567187514102 3.0259527272055227 9.17570324095574 -0.10205891154597908 -0.36524037356931294 0.5034127430083976
P 0.21656400757807426 5.403790706067857 12.197517762248978 1.346608595855268 0.3596826769758773 0.9076328402750176
P 4.027643571475979 6.101223428659537 12.6002073542484 -0.2341863603425644 0.4935713314379435 0.03517166280512653
P 2.1956542292411942 8.62794313873266 1.353248281196976 0.4335445572623501 -0.7034913630339755 -0.8077272276266154
P 6.367837748624258 7.729995693443003 5.73462648674575 -0.7041045711379422 0.2866438068113321 -0.2653769270127559
P 4.797985825312826 1.0132479147655815 12.638651052969443 -0.21609607849975687 0.08796283846422916 -0.5607030920894344
P 4.005880607862397 6.328050078805886 8.114293959776097 -0.30056453065748234 -0.8691449686124645 -0.21553429245901592
P 4.637781227685534 0.9422390396969317 3.6445964953936816 0.008094604082676381 0.9218505265362964 1.8256534515422624
P 0.2851101366815118 5.536332198870104 3.517793903302615 -0.2323955869907288 -1.1218561272320937 -0.5328670437137727
Ni 1.3595006293112917 1.0883913926068447 2.7726529091105174 0.17826332392269942 0.20216635579254216 -0.9687384493370865
Ni 1.845356990414649 6.4759229309087605 4.658636200101991 -0.2292210459174891 0.21481052691911393 0.38198853956192924
Ni 5.921435766919694 5.575984750950808 9.063481654328788 0.42091838385790736 0.0901081669420061 0.2045392269000929
Ni 8.531892442949706 2.2994877067137716 10.181594445297806 0.1729462825851602 0.5307831646015504 -0.5475004773562313
Ni 2.272329041442685 5.249747477278185 6.908349234613958 0.4137745737242745 0.1908020798196585 1.073638944096919
Ni 0.7621099804732498 -0.01970467007645206 9.051352585410873 0.17953473443595533 0.16323574016561562 0.29762447419255195
Ni 1.379371944597533 1.1203152100929914 11.276517429343478 0.717020764978978 -0.16492006984657404 0.5119704027704215
Ni 4.224960507715833 6.88612236676772 1.5495959728652988 -0.3344588694120821 -0.08992047641123224 -0.4103452363277514
Ni 5.731604353346596 7.874544649199267 7.892461261213923 -1.1927432411609586 -0.8209234146019152 -0.06701837500207813
Ni 4.952830752679322 2.7634640021642367 4.984923917730012 1.1663542096444688 -0.22818334868159412 -0.3840243390450354
Ni 0.9822068664988598 7.314103296903669 6.865264691996508 -0.9555492043403221 0.5254450402180886 0.2260094809587269
Ni 4.863833202802592 4.6494283766724385 6.89320073465164 0.9392630655857888 0.09223601191828631 0.41115179138944674
Ni 8.214140563202577 7.271604264482778 8.960212068214743 0.13115171514687735 -1.1087370733516324 0.19151556094691535
Ni 4.587580484217618 0.20077414875429697 10.613301021853696 0.07803812315134948 0.3183059138013034 -1.5264274371905453
Ni 8.220473081174575 6.939692045828136 4.751226080230831 -0.06625655713538911 0.6778510367580519 0.9336140948301276
Ni 7.247913621145146 6.046320587920806 6.9940580187558705 0.003935587608980318 -0.3612808747009326 -0.6756452873559847
Ni 2.362731815791152 5.220697163679758 2.4240968875300424 -0.8387928386831683 -0.4161273902271672 0.8058937739623024
Ni 2.379369313222561 5.263709643503785 11.206998452528838 -0.11265699877679952 0.023562103590656195 0.9473638403160523
Ni 0.9852244959734251 3.2787850379281998 3.7693552065063036 0.32255569021659286 0.7890741313018024 0.3090504566413065
Ni 3.479533964704799 2.766688812169892 2.899495135737966 -0.14503438666624055 0.285711781915366 -1.0049804623882563
Ni 1.3135515906553 3.308393838175651 8.103351224594897 -1.5484844169905847 0.10312283403411916 0.6184534115260252
Ni 3.6247044620543307 2.670917359711451 7.19839477185999 0.21380111181799308 -0.09954694375740275 -0.4694500129097076
Ni 3.9848202564846855 6.863188382761025 5.857473732262842 0.14419415015313233 1.1657062916478245 0.42804445337972735
Ni 0.906955294467463 7.341388072063246 11.083372928842785 -1.0104075469410985 -0.2872336178765311 1.353704583470101
P 0.20131552048988316 5.496742701733644 7.861176100234483 0.3496196363129205 0.15284488384959483 0.7943114684413417
P 8.576526335625738 1.6015505445681344 8.035902251521318 -0.7992724119910428 -0.3345012926142433 0.4642556131929617
P 1.8199008086381674 3.329048836340361 10.311930816621325 0.8007788213332403 -1.2157949807740998 -0.04633307873858472
P 3.869898116674228 6.148424558351244 3.696052933036984 0.6261685207820958 -0.34081412220614854 -0.27786657483933436
P 6.915334821651347 3.879554530992837 10.39854849274528 -0.11111227999749897 0.7251148548410221 -0.24297696205100092
P 6.388384652598836 7.574132879119414 10.049993371949723 -0.6876464255819189 0.7820442210382145 0.712575841833747
P 2.346238443946588 8.530964634484393 5.724462029733514 0.7558806752689692 -0.22589686664026257 -0.6632515416773223
P 6.909191468512082 3.8722942045555246 1.502278641919198 -0.6089027917231127 0.7056330919673267 0.813330946966638
Ni 5.206725989604981 2.753807587845628 0.641633600859757 -0.025523598192401204 0.8169253491861156 -0.24579026313007993
Ni 1.4915106590120482 1.0226521093072118 7.029522821753813 0.35101600243981484 0.5148353830230423 -0.5297855765749714
Ni 6.7316737847650465 0.6524601347865627 8.979763604855172 0.1977653985113691 1.0018167199482941 0.7118703311262902
Ni 2.849308804828734 1.6674249456054342 9.299816089282313 -0.09083013270969519 -0.7893834350121051 0.1916423163327667
Ni 6.395861167416415 2.00474187376676 2.6754744306105036 -0.5035343561879263 0.1865528176250013 0.4193528391430003
Ni 4.278719351608983 6.750311024713929 10.45117865313645 -0.6197423055407778 1.1556669051339516 -0.417812491239074
Ni 8.034262822970955 6.920685484062964 0.16563813225134433 1.2642936997054355 1.655940074072103 1.9397744364590976
Ni 7.53448032703871 3.8675560758879985 8.188901470591281 1.7793242294584193 0.08947618978496204 0.6037937526313214
Ni 3.2735424697067166 8.270484659809759 12.562382494765872 -0.5297331260704813 0.3188831264610121 0.040253962424040356
Ni 0.21986628508665818 4.76823289947853 10.006578241267446 -1.097837138609677 0.32885155052763365 0.1081197730280783
Ni 8.651084303270444 2.314521806991531 6.000690427125709 -0.13381152136722763 0.6200927469016612 -0.8534147023614013
Ni 3.7071533055787955 2.684987620127185 11.494512784155907 -0.1756945347542587 -0.16846407844409053 -0.05914925666664651
Ni 1.3071380020407015 3.316104557071853 12.453839713743138 -1.3115649739875734 0.27043068738657944 0.5739905532269598
Ni 3.0496974176382214 8.321694282385588 8.068611553455767 0.7820465350310596 0.4773872654789133 -0.1197326746766583
Ni 5.332250367897717 7.809922339197682 3.5190991406484793 1.265644557306375 0.6488880738667986 0.7989271128364822
Ni 2.902211903049993 8.205402949500105 3.3488949296489046 0.5397588857375994 0.5820805293239458 0.6836779278524742
Ni 3.4014269044840377 4.373941325267578 9.086698484799667 0.20868384519608577 0.28358033739466 0.10572453332302437
Ni 7.349711324703539 6.1678454811785945 11.436213984277142 -0.8210167456466698 -1.384688433446125 -2.6490842059470636
Ni 0.28188712824569256 8.984906185950782 0.36647983987447486 0.8697646044743342 -0.24566839284023498 0.13617770760655903
Ni 4.767341122409928 0.4935517666559578 1.614631743144145 -0.5260808740298746 -1.4944436851950973 -0.4590982373617383
Ni 6.034718478179791 5.614862628002222 0.27465112300116046 -0.5689337075293427 -0.8381333507222986 0.8763507423322844
Ni 8.008698547004341 8.90757380075931 10.873129729032776 0.10044323031942702 -0.21302540999423314 1.2754486878809905
Ni 0.19169783992273898 4.7778622902496055 5.756313784426238 -0.6174563377200786 -0.4031829142513572 -0.43647998574159025
Ni 7.680596648551911 8.905267791369793 2.6018289580875096 0.8016036312273808 -0.25311842136037693 0.7727982769599143
P 8.39872940855419 1.6852694948266693 3.6978193722607524 -0.23027545532393245 0.22764598812088538 0.4821106390965116
P 1.7001774852159393 3.202326414106977 1.5683962548842991 0.0911548630389656 0.07067756902122022 0.23653249197723777
P 4.7024215533854745 1.1063530438673912 8.280410408818783 0.46181615051353364 -0.6770586227637437 0.5399766581753603
P 8.564608951163502 1.6113240609260546 12.35434081329492 -0.9179385930763997 -0.13885576865935442 0.27996485212925976
P 6.398725663454957 7.653555085320136 1.4808678852084696 -1.0503869155475136 -0.8014336813084197 -0.7412474987368266
P 1.889891796749725 3.1252642643908413 6.027888726933178 -0.8539942290139552 0.12177181659387414 -1.3212441489485502
P 6.899453983550874 3.9775329064998397 5.958013940076013 -0.449196147756678 1.4412521887737824 -0.38364535843906183
P 2.5268458199616117 8.485853325801937 10.32959701042884 0.3489578343592055 -0.012418171158694742 -0.443447675308675
