# total energy = -340864.1604492209 ev
CRYSTAL
PRIMVEC
9.32504269350727 0.00000000000000 0.00000000000000

0.00000000000000 9.32504269350727 0.00000000000000

0.00000000000000 0.00000000000000 13.64814257170679

PRIMCOORD
 96 1
Ni 4.85509283756226 6.088749369375893 9.002492327564594 0.8860628274137256 -0.05595954608475524 -1.1805490130876122
Ni 8.52584929446371 2.230848629342294 11.873406296865078 -0.007674485826122267 -0.13854929316252912 0.04095098849106495
Ni 1.651604948275985 5.847995415421742 5.290211455256924 -0.13508550298364477 0.26689927719455325 0.587411454618556
Ni 2.982475050853116 2.336575964144841 7.702807032982407 0.929981897394179 0.8755084489366471 -0.7170264214059329
Ni 5.606831159586191 0.3381195229146228 3.27439458192211 -1.194045247801834 0.41591527421636115 0.18992764763450515
Ni 9.148594300001168 4.643927244282699 6.48832745160284 -0.09984467750347965 -0.26669256050038587 -0.05727955044775942
Ni 2.1906856701788993 2.2859409819629897 10.648949852237562 -1.1780604423378034 -1.6073773346720512 -2.1371842514032613
Ni 9.133553006030757 3.854114772673409 10.189389364967052 -0.6114204159386438 -0.6094604639987955 0.4381584018852776
Ni 6.613348299873943 7.631950695577473 2.561756164187038 0.21473262249332695 -0.39897247571443545 -0.1349651753556966
Ni 5.1621571705762905 8.367510068414385 9.640433422782262 -0.14024827813150686 -0.7619222534773588 0.12252720670265997
Ni 2.4773841098070797 6.501084110097274 9.346862426640634 0.3622766629552987 0.3842979044213962 2.873165359534826
Ni 1.1525846100661152 5.008956043087224 0.665409873673116 0.9315271303941118 0.11643009266598658 -0.33059707246383063
Ni 4.276660435215993 5.974135268823934 5.884423694960122 0.8734857620796634 1.4662944764543908 0.9710598983814115
Ni 6.741194636101048 5.886936793983696 0.6817734587067648 1.274848078182514 -0.012405058532572184 -0.3253358240648913
Ni 3.676444732984493 8.034764567641824 4.9244823457411915 -0.3276418464902486 0.8285210244435149 -0.26137217672873697
Ni 1.1189491808340826 1.358957131367506 8.31660465999252 -2.077732118784215 -0.37417624260636206 0.0025153102226859905
Ni 2.3770932749330815 1.9675933472104625 13.561490812414617 0.09571368605424162 1.6409109476531223 -0.2685468401003053
Ni 7.388940081275622 5.823880854846739 7.828888138615216 -0.03316465967742676 0.29495464066987265 -0.8560958487379902
Ni 0.32629909871320206 8.275238770313202 9.149373873575827 -0.6514540348217619 -0.4095301966256237 0.10256130510369435
Ni 5.192622085270233 5.355670457912898 11.304483573124527 0.7604302423128646 -0.5950761702526655 -0.08482840660030551
Ni 2.5739262774919247 2.023123976840836 5.171977373105887 1.226673061139184 -1.44761001267101 0.847768045598585
Ni 1.2373212736179537 3.639778664855756 12.19352382473328 -0.6750323363623342 1.0979916619096703 0.8438831087218822
Ni 8.596617043962432 6.9570414008456725 3.6348279996549557 0.8213641016837595 0.21196920081557688 -0.8207375238433544
Ni 8.589865713004853 1.1184269784395737 9.761001563135899 0.9041443675057849 -0.2669949222321531 0.017280898567634755
P 2.1015848866158073 3.9222715101995878 4.665535233364058 0.579445148583628 0.03605226563786694 0.08340581522116604
P 6.723738156056034 3.3614634386679967 2.5123091924526944 -0.08027781111514562 0.48182061865991865 0.8091873571119097
P 5.283960879095506 1.1812311414220358 13.07412864266216 0.5892261392297917 0.21527872480478408 -0.3246547388374667
P -0.1607115169272373 0.8593828856177465 6.017780198953573 0.7400390802510223 2.034232652839684 -0.7190131128186584
P 0.7985649567429703 0.6416188920818532 11.320124467344346 0.3477800120010204 -0.2887981341501736 -0.8328265937974044
P 8.824567714208355 9.023797252756284 2.6658777266264697 -1.5731731779865163 0.12237654005740857 -0.15475289950558507
P 3.1215673886476822 4.052710208313719 0.9872301543491278 -0.10651334777290689 -0.5705812704350947 0.24576378076751867
P 3.05917352754662 0.7956583409149625 2.4448872682959317 0.7329286944584862 0.6006372092802108 -0.13917021457597967
Ni 4.0003127930504006 0.9035649382103086 11.411116369578982 0.17050244903035797 -1.2462440412925764 -0.9905845986779003
Ni 5.285741962262493 2.906317426639639 7.608853497167486 0.30321688067866487 -2.119081371154963 -1.866888032712017
Ni 6.650098293387511 8.297245871224652 4.9670231908081535 0.8645069556198208 -0.39979240051256953 -0.9598838271599339
Ni 4.715562222758018 3.716747567789274 5.286130816545546 0.029151938973607856 0.07185616271035367 0.914517740320309
Ni 0.7279958306550153 4.597824232881764 3.191085582416688 -0.7001548424615748 0.9429214882739826 0.036271066516892374
Ni 7.980669994596352 0.49930008949264226 0.7155711436828056 -0.24474742368786237 -0.5112270968464937 0.07205542320535333
Ni 1.4702794918255062 6.72582696563407 2.563816998636796 0.3560144840956707 -0.06818822694046321 -1.6197163158533783
Ni 7.696666492325547 1.220825272977126 4.244230734012709 0.40836291579039996 -0.9881793316705174 -0.8516072168390172
Ni 3.672677415709821 5.217100322512841 3.8111207305283545 -1.8004926360059186 -0.2090592262576335 -0.5439754949221084
Ni 4.467786511606273 6.607147146439148 13.713244693267473 -0.24349349667610326 0.8929107035734946 -1.4140949116327002
Ni 5.667061610767145 7.646264636212673 11.895816239623718 0.9723577912572285 -0.08938260162989121 -0.18641063562018217
Ni 3.4947929000374462 4.211925988382399 9.526062705846316 0.20355655127184943 -1.3417378980265278 0.4251499054407517
Ni 4.6656639189541345 5.3842983391833 1.8436318237967937 1.1477196252624169 -0.22214459868668193 1.2012667052509376
Ni 8.767675628335155 5.879719210888162 12.721843447292207 -0.692317348695027 -1.4597811008159054 -1.3997378715800797
Ni 7.260786018637467 3.0904870211316395 5.6127171265757285 -0.20973234106525815 1.2033035331753081 -0.4418772454977616
Ni 0.4332219039974643 5.456362269625537 8.757071189709519 -0.10780995509714336 0.9461518222858222 -0.2011425425137181
Ni 7.095313134877439 0.18904379434217633 11.777118702847556 -1.5610807655983565 2.1188985657201957 0.7024441527163838
Ni 5.069839247261314 4.042191560081467 13.65687760730161 0.7920422127911908 -0.43133495120554105 -0.6967069931222905
Ni 0.1975333132700506 2.7843458673507597 4.676126616929832 -0.7917658192013526 -0.24961066531743464 1.884109024575994
Ni 8.943909611439171 2.7929808569456758 2.3878515767642416 -3.1714616629834222 -0.7866763204935872 -1.5141491340438245
Ni 2.990699738566632 5.3141740176349535 11.984543088972172 -0.36153721368611286 1.5021086579395226 0.8031802316858814
Ni 4.185918444127301 2.6468294617824792 3.2947297026668543 0.17835151276113154 -0.5609206074168791 -0.9646683930327709
Ni 6.113460732687477 2.664985320034425 11.481991357069434 -0.8245183310420251 -2.464107731670247 0.20748314001976526
Ni 6.379606778074627 1.0098275304672273 9.592569843308413 -0.748198476133363 0.9516966633634512 -1.076696757086636
P 7.08844990340675 4.343763442910394 11.900157047028074 1.7613547894641923 2.444324378395732 0.45052823630454014
P 7.357468061963697 7.738545259356615 13.101671088955404 1.3316329483820422 -0.03607540556631852 1.667775376144134
P 5.585243685598901 4.872297541452779 7.111460378919077 0.6034060302745995 0.8630730513867717 0.5627712874723727
P 4.405691051873502 1.980564481688355 9.415239235175926 -0.7218138154922472 0.6652968542421251 1.3445200887573556
P 8.813722689479535 5.771520739754457 1.8119136233560298 -1.2274719028913958 0.19365651854931812 -1.10566100552947
P 1.5117386319324144 7.709385850648944 4.372168455658854 0.5933692148638877 2.0531372030536703 0.9720857685427645
P 4.6968375368977675 1.6720920672177026 5.735495302063269 -0.00413947608967029 -1.4384520003208259 0.25140169577958643
P 8.173511878854304 6.57173063404013 5.59127512325548 -0.6685431290935647 -0.542633121961601 3.0391501232004887
Ni 0.13493057121118493 7.726767730351885 0.2493162082155458 0.6574387916502872 0.491934824275785 1.308227167863592
Ni 6.1505837279114095 3.8386445267360805 9.35866793077364 1.0278277993000748 1.4186689041566278 1.6664000930631624
Ni 3.861835908077934 3.2432685216965482 11.79557109745924 -0.07819984554019435 -0.17132237382849203 0.467659239557872
Ni 3.464178784659358 0.005195913825364192 0.0711146410893618 -0.49347337240749856 -1.1432325360253408 0.13921675154319893
Ni 1.4267315421405622 7.1610360362434955 7.32730527865515 -1.3517184062780074 0.5860073751821778 -0.9895960095123861
Ni 8.766332822177846 8.12022858452887 11.37406144716719 0.5459231055667824 -1.0084982457335276 -0.3694850077782798
Ni 5.729352896397857 1.8235214365825432 1.3828982461471901 -1.1223011851893123 -0.6138454804403686 0.8829973011145243
Ni 3.548999373596028 8.032125580541003 2.213128250587198 1.2951073426521824 -0.13025054348884663 1.2630102050073215
Ni 5.935081989748871 7.877124719799431 7.013084907827795 -0.970680917775438 -0.4193605524524842 2.1248573544067924
Ni 2.7945474641292027 5.344555006944065 7.50651954542497 -0.10435259267616222 -2.311777582673541 -1.2040414397825974
Ni 1.0187329463021568 0.526080679792469 4.022516652364066 -0.08024310122246825 -0.9844062377813304 0.38917554422867173
Ni 2.511234015022571 8.810859901352496 9.402205622911548 1.1863144548164795 1.5884887252976643 0.613622308685969
Ni 1.7534530652907512 7.87815047450293 11.942479686094474 0.42560961868598957 0.013991429183085581 0.4197567594496384
Ni 8.3204838777803 8.694156991222501 7.124712197184018 -0.2616958786167428 -1.8225629855423968 0.5705594160582238
Ni 1.0763244103822884 0.5788137965951152 1.3906231115688192 -0.06217184554305421 -0.5590298181520695 0.12525386160520366
Ni 2.20940103099639 -0.043904166318341147 6.6280706773819915 -0.57037969594725 0.6026483261729686 -0.608451563118307
Ni 6.543932681575287 5.0455288607883695 4.419664628447996 0.29796051737573204 0.7170881278818038 -0.6751050985817986
Ni 8.065154881993694 2.5676411986722987 7.698098818893343 1.3533927086566369 0.19019272837043374 1.231157836383415
Ni 5.619792969021325 8.712415424944796 0.7768711772682266 1.0534853519671792 0.08567995596732342 -0.790751004783593
Ni 4.296159099625247 0.39565317172964787 7.847218375166758 1.1496258411461944 0.26793028956222886 -0.8811875015992954
Ni 7.511517768343842 2.92554566480888 0.4478463685565429 -0.4150701526072465 1.6143463097907165 -1.2558090592731923
Ni 6.6619224476060355 1.1135033558627747 6.584491955055943 -0.9746283324589602 -1.6312438568770036 -0.1930019156844547
Ni 1.6719521915763165 2.5078303744155037 2.8350880875243405 3.697036543911156 0.018247890466594377 -0.4465047169674439
Ni 7.469536425842426 6.124632133912866 10.17237022942744 -0.18057346011311484 0.26894587531093683 0.6990929768559637
P 7.433551085835102 8.235364887475338 9.180068184321643 -0.686496885358508 -0.32332342162055283 0.14287877377581845
P 1.1569394050346096 5.769851557100579 11.027862707206095 -2.1117573266897245 -0.5411773633516809 -0.24308494838377487
P 5.201769952216899 6.7602270483723474 3.940355565622288 0.08744630383912681 0.941314805908495 -0.5467929097662453
P 1.324668949142337 3.61457307427794 7.978335936393751 -1.3514798079046402 0.4178176334453966 0.33849935803004283
P 0.19436373123623638 2.2276035144621313 0.12037790948135119 0.7287308543270546 0.004028147322786611 1.0040252975638386
P 3.5251459142182795 7.674650066371339 7.601046571369576 1.0584591510326866 -0.1622612920674883 -0.29324151463350784
P 3.756323049258846 7.612442706125458 11.287423407396775 -1.2845321382394974 -0.1541306925405539 -1.3206787633633834
P 2.4714627076550584 7.143178579359841 0.6037722735398159 -1.4801614642444703 -0.22160132458870224 -1.100198439753002
