# total energy = -381172.13590609987 ev
CRYSTAL
PRIMVEC
9.13656871396536 0.00000000000000 0.00000000000000
0.00000000000000 9.13656871396536 0.00000000000000
0.00000000000000 0.00000000000000 13.37229185140467
PRIMCOORD
 96 1
Ni 3.873265648627357 5.713653856276396 5.006947562056109 0.39296046519240063 0.3467389723310157 -0.02102185366730573
Ni 8.270952078279679 8.388430081039688 4.793191137326574 0.4966702820782414 1.7822424315464789 0.12018107506798657
Ni 3.009567518520875 1.2912895540579854 11.70733441239659 -0.43880631988192176 0.5392477504291358 -2.118154745575636
Ni 5.971140640673859 4.848219778081222 5.959643182385386 -0.3506881867867509 -0.2365857138126764 0.3838518180229131
Ni 0.6484953865220027 5.780104121797749 0.2637206653496441 0.255185845412367 1.9102694850214454 0.1868191839125105
Ni 2.9175348601135354 4.454415385876999 7.462875552248666 0.2226184529993069 1.0034467993525493 -1.2318327509632527
Ni 7.986804785867463 1.7619050809023855 1.0476464988393972 0.8323028600834504 -0.22929277969568898 0.24012689419671546
Ni 7.68983888730559 3.998171681893191 2.119535055908934 -0.0063434257195245595 -0.6425081384823838 -0.7234636923908443
Ni 5.8818306797951 7.232398292797472 2.802377545851041 -0.281417011194754 -0.8079180034811828 -1.3440624323946466
Ni 6.641335378304512 5.8177833318912535 10.526908898880695 1.494079616987459 -0.366222277866608 1.3209273890390798
Ni 4.644355516486566 6.212665839224242 7.24652525561187 -0.19398047754764014 0.5316977059960197 -0.29947669690994233
Ni 8.22044512546763 3.3410239646343918 8.64716583440412 -0.439472749821327 -0.2539046647070982 0.8846376649314249
Ni 1.3040350676565395 4.135503448846503 9.649886910365057 0.11380731033115883 0.8286619208967535 -0.5309903955163501
Ni 0.4773327322907494 3.3778808835279888 3.7633371927393813 1.815861405152505 0.15202187372766723 -0.16649409920191327
Ni 3.9342705190915495 1.4767253562058418 7.522917428352078 0.7854671306768344 0.3725070824340552 -0.7742270389866408
Ni 7.915155812648923 6.821499380204078 1.7632974940008943 0.48618326650398846 -0.6135546886728271 -0.6270745775361329
Ni 5.112705174246779 6.68733800265485 9.405014072974163 -1.0866057886702318 1.0355357094672941 -1.386814221539876
Ni 7.670761731467753 7.932679751775824 8.662918192823666 -1.0930700562383369 0.020984058450834828 2.3285116075987706
Ni 0.046299562839193106 3.6464320528486405 0.21582494392574317 0.8090662581530131 -2.1699331636995085 0.8030838153173331
Ni 6.378110828645478 8.276196468821306 10.9106941296425 -0.33111514975082973 0.8131957069403544 -0.12489802092768168
Ni 8.353482705043652 3.6144631983100446 6.34540648031141 1.1380484207212398 -0.26869056476702113 -0.46499480535183146
Ni 6.0381939197418095 5.368044864955596 1.2783293310905663 -1.4723761638720967 -0.26538129788813003 -0.8298561983151709
Ni 4.077751196906387 2.8882064739835283 13.217427431837757 0.20998790871948994 1.0894023775787625 1.6065370981589429
Ni 6.520202747989362 6.919023116513016 4.898684702676388 -0.45388429726096663 -1.2090867155159886 0.9128084709386861
P 8.263240814138332 7.394152108388016 11.467703224576658 -0.5908541617515178 -1.356056628642045 1.214377788711599
Ni 3.764686663964117 1.8516170508122103 2.7663931692862334 0.5614685095005492 2.451970067866448 -0.35278183609098596
P 9.125952194804928 5.378844289381038 2.875350407901431 0.20219978013363885 -0.30406740160441825 0.3324662644620855
Ni 5.597966621018407 9.059812572625761 8.347305470818576 0.22031448745647864 0.11633547606965126 -0.05316809938254714
P 0.9008812245093768 1.731864042399126 12.506502783761945 0.07028727556133701 0.013514489546667048 0.6076923163547792
P 7.197679331023633 8.034223578395418 6.670674728317183 -0.6584037266667178 0.1270649466720134 -0.41892757868012365
P 2.8925920270496976 7.794480010778165 0.8997172256330644 -0.19671818819377734 -0.7640652679622906 -1.0337572774106325
Ni 2.39839501590575 6.877543093762165 6.447236281537194 -0.004976370168668849 -1.3308338495195144 -0.2637309067689006
Ni 5.232905874535368 4.284849803887342 8.554923948569249 0.0743835571178977 0.07639261712812649 0.8263227312406156
Ni 4.843706313050623 8.280116056874196 5.986226943221481 -0.15773923582741867 0.199074861351412 0.48694302748814844
Ni 2.1133523397425242 6.960950831139373 9.501721913681418 -1.0713473198492647 0.3095104269968605 -0.46123790941256043
Ni 3.7505889381701607 8.69485232840049 10.111298257711836 0.4634814540310986 1.0594456833156722 -0.20262195527272203
Ni 5.58799862436176 6.9167846571354925 12.690318672245986 -0.42412840615477276 1.208903395860589 0.8540446226359162
Ni 2.1817669675747644 3.5542623459079836 11.981961400027663 -0.8631987783313586 -0.25208586633080454 0.03256739241306004
Ni 6.841289188415167 3.3196261202990405 12.996744574234343 -0.5173010709547156 0.7795944739461411 1.081695495852808
Ni 2.130108807082846 2.823154103502018 5.471086175215909 -1.792675453954345 0.1135291169691077 -0.270981674794043
Ni 8.163460345314093 1.7145959272010847 3.4478852743467154 -0.8129254839981033 -0.8624724416882952 1.2039943885947457
Ni 7.842949508728224 1.4413394249031888 12.092269937181372 1.7707321169140344 0.49073951841610325 -1.3454446574541539
Ni 2.0983226839220066 7.98400899578778 11.742664610629026 -0.3726541495348808 1.2847442542503036 1.853665620484472
Ni 3.4128099863862493 8.20470281727386 7.919686637160408 0.18273858608523366 0.49020550028950416 0.09298651693106567
Ni 5.6679070558549185 4.745031369061814 3.6647298593603432 -2.17762230481365 1.7881035183129461 -2.4768583464676954
Ni 1.3282104289337977 0.8043213962181066 4.034246510489988 -0.866582864312243 1.778689681198214 2.064976104670128
Ni 7.232507931624127 5.730547372150037 7.865863109842069 0.10671620781233233 -0.23456919760327985 -0.3076643749270572
Ni 5.2529697798130925 0.06143428920192096 3.713646135529017 1.635607276052022 2.2451183907830945 -0.30147007319088726
Ni 6.692637212609805 3.4885795521732113 10.610940663912944 0.019601833391327532 -1.2370616034623596 -0.651326250994646
Ni 1.4498272974000037 5.712767609094276 11.519481074121007 -0.6366606785626712 0.40416944653434267 -0.8921576274575539
Ni 0.5559565621982763 7.388140246059808 7.73244727631409 -0.06377544258474822 -0.2635972094045138 -0.5267524461756025
Ni 3.0001659891352745 2.055700590060174 9.592747722197316 -0.26069289127352524 -0.7432840695508812 -0.49740124670699504
Ni 8.623916007555202 0.6732765023165252 7.5852187779414555 -0.28208678356826905 -0.21902147967666796 1.4376690994082144
Ni 0.20036678302438535 9.079054186703578 10.816967551363351 -0.6219925350275353 -1.4946254621886 1.1441715028998425
Ni 7.690131257510001 5.6641610626109 12.835835891265926 -1.6603963100712436 1.6287889675786078 0.5164515784702266
Ni 1.2498826238582372 1.6265194031221852 1.9109407926010373 -1.3384391726705982 1.5056392968006005 -0.048303057980761975
P 3.224998676327551 5.149881873051452 9.445211321453161 1.8902156516943638 -0.6842901075151764 0.6409708759022509
Ni 5.574220678478878 1.387095615416008 12.23433718778926 -0.13089280505853584 0.5397033499093156 -0.26468041516636354
P 6.913970593918034 9.522406191986628 2.2907936441135095 0.14377711722037176 -1.3537369793699332 -0.11603671388230984
Ni 3.654600145434381 6.078943016981632 2.426428750224348 0.5875369244528269 0.670801071889806 0.04262194843558466
P 0.28320348484610103 4.940206753644122 7.736967136942911 0.3582865679592991 0.8707609069493326 0.08370072075376553
P 1.4734087816995514 0.08624555567377351 9.133609553189835 1.0032171998402466 0.1001516672209372 -1.7518139398532926
P 4.285982738429436 4.057641608784223 1.848946431726291 -0.09801533760422475 -0.36717692847039346 -0.8903195458075506
Ni -0.07891620011193815 8.624281470310716 2.601098019594759 -0.45595223553358893 1.6341561454277922 -0.22528083032281848
Ni 2.87671267032261 9.136934350608126 2.5914297023976336 -0.5600474607833065 -3.8432101863881623 0.4004328623100459
Ni 2.787439255719402 1.0191751228710708 0.4412149618201793 -0.007484995523135496 -1.5022045600874387 1.332599940281002
Ni 6.636794503567249 0.9388098629335193 5.8139249588499124 0.47379723413480984 -1.1543636129414958 -0.10365016729249893
Ni 3.6585105969183815 1.0699104899053165 5.036125194799465 -0.13632554603833297 -0.3606836074365659 0.32600791043125144
Ni 8.869187199349605 6.175105404526281 9.732407486903254 0.6546388603076467 -0.9203436029734666 0.25227458530284297
Ni 1.8248103576952506 2.553424316794833 7.727299733402674 -2.8415973549205575 -1.4070734860095444 0.20804569739145462
Ni 5.196076365348435 8.935765376835386 1.0280768819385058 -1.4017572160029537 0.07180474064712794 -0.31312976891700267
Ni 1.5219422356318244 5.546381553077591 4.4681375986896645 0.3323374521937051 -1.7131993128048881 -0.14932581495274283
Ni 7.4494100770217475 8.759530099557598 13.470176905266868 -1.1951202260335676 -1.1952894046215803 -0.15013031313190917
Ni 4.371628935184166 3.4304344277709173 10.721756280639928 -1.039464612208055 -0.6587276856650397 -0.732966232564641
Ni 3.080796209570573 5.626454442810731 -0.11748257104445281 0.31323929791167343 0.22771515079592397 1.6763122099705516
Ni 3.135579076622138 3.8871349601991176 3.672285801830597 0.07508983915630293 0.037379726200038856 0.2240929806623044
Ni 1.7381043189495293 4.374835870863802 1.6679528293717083 0.9923373197029492 -0.7967907832197697 1.0402948214188343
Ni 5.7281718642391946 2.3704097054022575 1.7244643352568543 0.690559999684288 0.012458023257694673 -0.43990572359368757
Ni 0.5656486344745103 1.992100934031832 10.138230121822557 0.3084105090644624 1.0383958046239086 0.006356281235330988
Ni 0.537283242705283 8.379394014409602 0.2635571207665516 1.50174356129062 0.09756693721289648 -0.33328438948800665
Ni 3.6303791013126836 6.5146111678299965 11.174542706956574 2.3955580076253065 -1.416653930609128 0.21102663439664948
Ni 8.670101363283298 4.213657659113195 11.575751374587512 0.9992605291853436 -0.9161555330340481 -3.115014635739287
Ni 1.4173467950036878 7.7422736561529755 4.591389912986796 0.5879287605746069 0.9271194882447195 -0.6420713080552813
Ni 7.361571103733934 1.032678971687317 9.753789799071495 0.17301955902525687 0.6561545256212248 -0.08630961913152232
Ni 8.777739281351087 6.237133570705913 5.612204136316348 0.02403467235170054 -0.6297876055919218 1.438494680633303
Ni 6.017846780828561 2.6846254460243966 4.27924086424709 -0.9282669715856012 -1.4875035064318383 0.5311194648950466
Ni 5.121814333427968 4.750248349896779 12.229027927608527 0.9794982589567519 0.8752138005143636 0.8455563826592469
Ni 6.245913813407139 2.8607784941821945 6.968689504987383 -0.8100574184216888 -1.1955603988947796 1.0795766497375925
P 4.355091745497153 8.835573762411196 12.17996546633765 0.6821185537851543 -1.9648365216340484 0.5420523097574665
Ni 1.751142202752495 0.0725589754797703 6.570568997640538 -0.19495132610134167 1.367473355119419 0.07648517684193279
P 5.583804939242236 2.041456679164012 9.218697505585517 -0.9216517802619287 0.7414668138364844 -0.7237871371685342
Ni 7.6666502754682195 4.460308472809664 4.400486788016448 1.2309565190058864 0.9843663856823306 -0.2642888361548997
P 4.19159284524903 3.0275574226610567 5.758791247553055 1.7380415686595487 0.8510541725490245 0.4595618072617182
P 3.8506617771988103 7.73149250486531 4.105520884384126 -1.1364018862567526 -1.351145821603989 0.1459296447870003
P 9.265485874860213 1.6438240645957782 5.9507103589837325 0.9984709434045127 0.8021078245573089 -2.6463819765245518
Ni 1.4373741540058607 6.885336587023503 2.315519026837816 -0.11692734401737927 0.04021539587662106 -0.4046998651165159
