# total energy = -381166.21560980356 ev
CRYSTAL
PRIMVEC
9.26596362059800 0.00000000000000 0.00000000000000
0.00000000000000 9.26596362059800 0.00000000000000
0.00000000000000 0.00000000000000 13.56167437671236
PRIMCOORD
 96 1
Ni 0.45508113467813643 5.802411410850683 3.952319963340635 0.36598187972102775 -1.753839969144386 0.3980211675447597
Ni 4.37789919578675 3.7646035819379984 4.862199620800154 0.7842366007038429 -0.33650932418320756 1.095509776028081
Ni 7.970591350823559 6.454188572477187 10.483635638933082 -0.1581588398633405 -0.4329969122889962 0.07574675601401147
Ni 6.11923324605822 6.944534112291988 5.242712911572328 -0.17705104878215316 0.7602716052478132 0.10376201028001485
Ni 2.1256121021469685 6.227450437605625 7.396998538785092 -1.2336273809698304 -4.858371445964162 0.000842293395637259
Ni 8.96185489518093 7.4289957650759995 8.268688526327441 0.07876266002219984 -1.8072785485795004 0.8589975957658174
Ni 6.290653576876525 2.4164985045998884 11.772374612621473 -0.6115073192254953 -0.3108957373801614 -0.300655804819708
Ni 7.490883137483321 1.9873453899053075 5.206896254991513 -1.9416390004716624 -0.775177061604736 0.05600222639723258
Ni 3.9887472469377157 0.428218178944334 7.465755696774506 -2.208707456254228 0.19718972851355718 -1.4178587495505066
Ni 2.2409918837334293 1.694781847999517 8.146539031568233 -1.3375595982791222 0.38539293725778784 1.862079041359148
Ni 6.980847424533985 4.542277394095762 5.862711523654266 -0.03144124922841682 -0.4467710832549531 0.36283587789287836
Ni 2.6175699196678446 4.03184324470182 0.2042867045162782 0.5719449835518408 0.9030215667552512 -0.7497002574898701
Ni 0.09099732436941814 7.789747534792163 0.9550929279583245 -0.6990402692411574 -0.22273775218599057 0.29968058539063225
Ni 9.294039698415318 0.3793717240285626 7.973654678465101 0.03286692593134985 1.396067621817344 0.5845973822085286
Ni 3.733590401005628 7.133828487334536 11.504938511424498 1.2833879973327253 -0.0806310806895063 -1.4120441997512585
Ni 6.755545514055766 4.5480778874520995 1.1139643639643457 0.5038048362404937 0.08686703429688909 -0.038453675990507974
Ni 2.1509174493612817 7.266202046581579 5.099514853381396 2.2254731057483412 -0.5199230819585949 -0.5587343983988378
Ni 0.3289324499307552 0.31620750180574025 12.994823954487854 1.098488656150747 0.07842198885332945 1.2524825660031202
Ni 9.045665538005338 0.3787397852954919 4.270191632249887 0.02192971019355578 -0.7732327933941715 -0.15665088785924633
Ni 0.10643534670327631 7.320000232567042 5.622846297827554 -2.135085202782387 0.6072652561196896 2.406994274486706
Ni 5.598106174406749 2.3053532684828313 6.68273264369883 -0.7488656774037168 0.537650581145345 0.5844873389932257
Ni 1.8286750253143542 0.45601977681391453 2.8877960025734364 1.2374840357117591 -1.94373779198222 1.708922025585773
Ni 7.675813243562873 2.392101221840721 7.776440684138749 -0.4437081280589132 -0.49737604989601436 0.7399624613768159
Ni 1.442905153262546 4.5341974736377315 2.0985740196968163 0.7050026574721794 -0.44417272640015765 -0.41759034792593897
P 2.716002253412863 4.225066388407447 3.6934947223290346 0.5798781223559885 -0.7264351163143424 -0.61473996723018
Ni 7.733456804536964 8.796429642959351 6.518757514816337 -0.6409053127716382 0.618346967855148 -1.0605178333339285
P 8.120060613333292 5.2986858192682265 8.280378466292868 0.8916117822564129 -0.7199183982417472 0.7634068084426853
Ni 8.817389253138325 5.577767383804253 1.886741114239002 -2.0889297872722477 1.2697747774246648 -1.8102121772865276
P 0.7852051875571746 5.527814572807417 13.187820082079693 -2.4498352809116324 -1.274608194257566 0.6384098000432941
P 3.8925294785475932 1.8745878760821755 11.267500041524343 -0.18240485689489874 0.23352918637453976 -0.17827695076945424
P 6.759233367659316 1.3432682442198856 2.2240333167353934 -0.36604281486595025 0.377317359338505 0.17290257383141835
Ni 1.907092877190857 8.22610956934494 7.605075022507029 0.7041333674933486 3.290173866815366 0.962539519615226
Ni 1.6737759080014034 4.458123910609716 5.519778202379378 -0.057797370624442394 0.6687621870829062 -0.3531510465049466
Ni 4.874897697630067 1.231409528888071 0.4760055341945631 -0.03162996820045521 -0.06559244118882897 0.10872372516066438
Ni 6.8287651602247506 8.985751815893384 0.550275940661646 0.22548934678919874 1.002022922421829 0.3525200977891671
Ni 1.4886512166814632 3.9314094627699503 9.222454568265594 -0.051511023395098374 -0.7508891355916487 -0.43989749606357137
Ni 5.261084538054136 0.11611271932525666 11.670349864700333 -0.11993116384070956 -0.3764105312535195 -0.025626956539484897
Ni 5.1486883968202966 6.502399382274357 9.404153632758316 -0.1679467724880398 -1.4579836425958503 0.6618461766893633
Ni 3.067867963817959 5.616869751158482 9.610033156456632 -0.3449263446023092 1.118405706789648 -0.62502926497133
Ni 2.4581304800791663 6.6874777437751565 13.217818639972897 0.8897850134603191 -0.6481229135659998 2.1082979073862145
Ni 5.329791659838877 1.238099554771899 9.218968712673494 -1.7595025667468018 0.6083859999876942 -0.26576233537663263
Ni 1.9037663961765994 7.011573360587687 2.574561948560106 -0.12456454884766288 -0.7879032509221527 0.929304154600864
Ni 2.232902697311571 8.519507047995253 1.0728559154413508 0.9228221464209462 1.8855696682819205 -0.943170371059995
Ni 6.813207606957511 6.579816510057434 7.412431928137037 -1.3033261310175488 0.6798696098499776 -0.05604259271686478
Ni 1.7832347387017617 2.145515392449548 12.473092741994794 1.7718315206258 -0.06039624169987017 -0.6713057794403665
Ni 4.493149253879618 8.91644240645982 2.4296422742899293 -1.5844081274703874 -0.5409837592836361 0.051844495475117165
Ni 0.11385831032590026 2.0078324359290516 6.236308699025209 0.8462179275026458 -0.932713180282413 -1.0302724041858256
Ni 2.5740198896761677 1.9751421155438098 1.3350178300274198 0.07178879980752798 -0.10674526127805488 -0.3636105512753738
Ni 4.483503385534653 8.025742367527913 0.1917118650052771 0.6485718281779604 1.0633205928900462 0.2951302470157885
Ni 6.456375339940599 8.831825624782374 3.482054693737528 2.7508471835191783 -0.9439080205569678 -0.18567864255016409
Ni 1.2170565509184736 2.51538487057248 3.386689394019583 0.37978587548365556 0.6615019059760673 1.5340204190464548
Ni 1.9333526186794558 0.7421536664194446 10.547076913474363 0.6156732776777267 0.4005372490983941 -0.6849004874056657
Ni 0.17747285839076424 3.9480233359135837 7.179157582381192 -0.5490886477789576 2.0336063321095947 1.3179477375854658
Ni 0.2730132848250588 3.1317567844121323 0.2086815511599064 -0.5394493249169806 1.0711650286351295 0.23613397098723848
Ni 6.623922497878792 5.477667176570192 3.555721885959407 0.40716915259261494 0.4686396011932703 -1.0630128318416403
Ni 4.342790458842395 1.8721416616315791 3.2360053636519965 -0.5824155440658615 1.0360406741281705 -1.4615045112649152
P 0.22193651241588386 1.843824876173161 9.572955402198824 0.4570123013669871 0.6365272383086006 -0.9902549832526236
Ni 4.748815727822247 5.813132130999699 13.375621710349547 0.6831153704807847 -0.8454445396717309 0.3286039532932018
P 8.084905546569798 7.129927516562941 3.914686251253146 -1.549830646605834 1.2246526882750457 -0.7020651721104102
Ni 7.5965799868695045 6.730054847564892 13.291105927677826 -0.05688385767123752 -0.34169138260477927 -0.32712556897546247
P 1.4506978288419081 7.065260355007214 9.830749341436366 0.0662149052641763 0.8323501683816181 -0.7108889410496272
P 4.1894109595972395 7.8969176724270005 4.807586956594207 1.3659227228028477 -0.4704110912713963 0.12382535668879319
P 3.7804205821924226 6.338873652637522 1.7695813410011794 0.6223789718326765 0.8970386096989389 -2.561566168329737
Ni 7.714007546461956 8.745411246122293 12.024215170099515 -1.5768706814427615 -0.5649518400634593 -0.4710201856103049
Ni 9.320725674240006 1.0776779230174507 1.713815990895028 -0.9418850765896681 -0.6833943351737843 -0.7904437579558193
Ni 6.378958212157521 7.168872362532094 1.6650214253766935 -0.6686292610494678 -2.0912365810285536 1.2576563968945762
Ni 6.477557333251444 3.2416140515570953 3.612504638893874 -0.9486576194268113 -1.3062103945438794 -0.738460937130625
Ni 9.114845223945307 9.013392185992355 10.3205972989936 0.8336758291715772 -1.7038420399597043 -1.354016972504197
Ni 8.776452224946148 1.8022670284045075 11.584409903388247 -0.08586019029892955 2.086625307508787 0.8162558339229168
Ni 8.281964799300223 3.6657357478930632 9.772705490824904 1.251995856174689 0.01892409059801257 1.4002657190590917
Ni 4.16273424973638 7.12376565061731 7.107239804130043 1.399306697579932 2.0549734849314607 -0.43971829017322983
Ni 7.37742141040926 2.0217406476349042 0.2780252446596329 0.2731216039551812 0.9186991253915082 -0.08068301697336427
Ni 6.315884796380213 4.133861506448281 8.90014728247187 -0.8588464148999337 -0.05412274998633259 0.11551632260246558
Ni 0.8112258671790102 7.512537694949396 11.889968032966449 -0.7286357235100871 -0.4705756418737186 -0.3084053668581398
Ni 2.372800219186963 2.171608346589242 5.955785350517543 1.2268473819335193 1.3228143216491477 -0.7234636923908443
Ni 8.513641692892119 3.1273739835214807 2.3651965692696924 -1.0911599836998174 0.9720857685427645 0.26689413498823067
Ni 5.252133616996272 0.7342655514126543 4.916107145158787 2.346791893965197 0.2113354238863199 1.9704680088882125
Ni 7.793713367310554 4.626050973064857 12.424962546082929 0.6966244607108132 -1.3592797635650333 -0.5019364155731871
Ni 3.1451090382883042 0.405188552446182 4.936314359074926 -2.630184540829083 -0.6638007293125728 -0.8547197943260699
Ni 4.145064056716353 5.966548694100166 3.7570990778336877 0.3141970338392524 0.45327520292205803 1.3615258792867324
Ni 0.8378988706543383 4.1560998196355206 11.467535521836327 -1.748599546681053 0.2466549251232204 0.8952236679773873
Ni 6.509645365987865 8.124109839526136 9.31878260162527 1.3102372563150855 2.097193827053253 -0.04210541381048233
Ni 4.714420470092651 4.983003697611535 7.553242147449489 0.14960452253542622 0.13911673563022492 -1.9749288728730439
Ni 3.5592976214006384 8.458018112032535 9.520227435035496 -0.2862422004975393 -0.07597686974694656 -0.312488535788578
Ni 3.9342819115566354 3.4402207202467996 9.005033360023102 0.14124638037871806 -1.6615764464222738 1.7521335279762407
Ni 4.695258456896312 4.181544156307254 2.1081355677709466 -1.3516289318879948 0.1468909802590051 0.4610581893015866
Ni 4.990092159939968 3.5343536467756183 13.421758797442008 -0.18131316649261678 -0.8592716753628106 -0.2574895538448791
Ni 5.630852090574959 4.620000298685163 11.4232015913048 -0.2562392263775458 1.2469186987620977 -1.275368212352042
P 5.842597895972791 9.070841161726058 7.342751880150353 1.679099542907702 -0.6593547777260773 0.6830189541122366
Ni 2.8121088302370496 9.240667746765943 12.564430127236701 0.6576239110778996 0.33142651034366144 -0.5849154276695797
P 5.994837681667101 7.101314220262027 11.696537331671074 0.034108511647934804 -0.3525851466991476 -0.16198644113954683
Ni 7.206946207901414 0.9686638585808374 10.160894706032208 1.1530654629553625 0.7267698739459418 -0.5371602717724879
P 1.1446337776386974 0.1597387302203236 6.0363149155504505 0.27071453717558536 -0.38873048627145307 -1.1086146888411552
P 8.656087354820215 3.7172359748491783 4.590328829315089 0.32931589175856185 0.32330439545715933 -0.007418661061574319
P 2.8812143884663963 3.9042416568262057 7.215949944953097 -0.3372922250958191 0.018764167981380586 0.29855572775756967
Ni 3.045722310269 4.259730359088056 11.40148958486299 2.092575868665267 -1.1967418207973906 0.44669317882916615
