# total energy = -340854.23169390025 ev
CRYSTAL
PRIMVEC
9.42236016311040 0.00000000000000 0.00000000000000

0.00000000000000 9.42236016311040 0.00000000000000

0.00000000000000 0.00000000000000 13.79057652547497

PRIMCOORD
 96 1
Ni 1.073187963293365 8.494398907166218 13.302886463576357 0.19083858948454877 -0.05338947136473386 0.08340632944179828
Ni 4.8880282931195955 8.036019936172034 7.709291121826176 0.9454152012301137 1.7372530113199824 -1.0317227634791069
Ni 1.645068683272008 4.927536248747342 3.7759014847446117 2.1845303447873925 1.8415693514415703 1.1046963276233557
Ni 6.934517780972783 3.1469174940084215 10.630135104801159 -0.1669584404328415 -1.5096162791704777 0.24333228850789057
Ni 0.3534035156056113 4.075067069279392 2.2042301594390854 -0.8003790147916603 -0.8831235422797437 -2.117285198486489
Ni 6.605781061703418 8.325672706015238 11.623442184187796 -0.6965959214657229 -0.7315395274204433 -1.1668614882981903
Ni 6.068037552132436 0.8332136444999412 13.588240752771487 -0.2693045442019362 -0.16133852314290278 0.7477727014498541
Ni 3.2008981946502915 1.6156332305219294 4.147432678822015 -0.1717124101780591 0.5126779703604074 -0.45630473377700126
Ni 1.98680825939 5.364102456259954 12.392239864306843 0.8614951653766905 0.32361112806430076 0.8883868475612119
Ni 7.227685091109132 -0.1668813030560804 4.319939130819131 1.9260889685522053 2.234510790470577 -0.8805264709765287
Ni 1.316793659644369 6.176243934777092 1.0917462436187668 0.08073546747785451 0.9715779756684108 -1.3455819543629666
Ni 6.146638879546379 7.4653829677180426 0.38191934601625094 -1.2128302417188208 0.004935489628404403 -0.16417573548138178
Ni 3.159270208014617 -0.12475204686653105 5.685399280045496 0.1464441225295736 2.9086465831605715 -2.6752827187193025
Ni 3.7149727358127587 4.388464186411392 10.669024011374592 -0.26126958971260167 -0.07094136420556814 -0.26490898623740183
Ni 3.7171493009808985 2.3660488284482333 8.18729969548177 -1.19778851689435 -1.4395727441888304 1.4999211633699006
Ni 2.8102848370295277 7.7108354466359526 6.8980739768284955 1.224131525664253 -4.43207457140316 3.1117740173148025
Ni 8.103295586823622 2.14378477757704 1.222742488480649 -1.1195285075401817 0.8968894857155845 1.4361763169127717
Ni 5.462632075148422 5.85264240172693 4.682976067324769 -0.29512176237535626 -1.57449189679794 -0.10121996058445147
Ni 3.1293165254626003 7.352295802575133 4.31475400609174 0.33628383843596277 -1.0816823832266853 0.02667493818802503
Ni 8.308514588391073 4.004361679574977 8.60580229657083 -0.530290541235848 0.3429640786696158 0.271265524583049
Ni 5.48787457768282 2.0113629296418263 4.9031295095480685 1.9995178750663176 -3.6116244968932385 4.987384260391166
Ni 3.2774548699365877 3.332782968063497 5.946386403953501 -0.8146720343755646 0.2883235085066002 -0.7048656176736829
Ni 0.8117466816316617 8.49362627364333 8.927122676256461 0.6879837543166797 0.4998016286183714 1.1654694930466702
Ni 9.422360035236483 2.596067481628426 10.450706044886156 0.019289701467547427 -0.8432354478355543 0.8880304926630578
P 5.414926666290019 6.320142217235224 12.436879237209778 0.8264350884487637 -0.10973853957842392 -0.753720948613489
P 0.2534256799797275 5.653783493183264 8.633024436948633 0.48394177876797945 0.9292252217338125 0.36098005563106217
P 4.778295488149231 3.7381423191394054 4.229155634115631 -1.2020606619071426 3.0349700236808697 0.6883010284467823
P 7.045192821946671 7.871910691438321 6.948051116691394 -2.4430920486505276 -1.8499935709495234 -1.1150972112417052
P 6.079250160574368 4.216779364209348 8.703646909884736 0.14050410289605478 0.3719769209621981 0.2596670211121721
P 9.006504175081322 8.662946083476529 11.533500104235443 -2.0295697001463755 -1.8644151456914921 0.7300953387747491
P 8.024901551330455 1.359863267365435 9.42981689096837 -0.24083986110334002 0.5681952867014214 -0.047890653033691714
P 8.77895418023036 -0.0665906450770268 1.4839896695256263 1.79572478230363 1.0753117038136513 0.30616850710782106
Ni 2.3206047859982877 0.6985850798444752 2.003950359002106 -0.43775756690243317 -2.523974840339524 -0.818845191916648
Ni 7.334544076268748 1.0520441873742943 11.821584993368784 1.0923501473531767 0.9392283556931115 -2.6718731788171213
Ni 3.715773636415754 6.39590741427856 8.96842559147092 0.3119917986578175 1.7780898428306864 0.9451740317535853
Ni 8.233964875792282 3.8406670186828133 6.039872233515108 -0.0512729392423633 -0.1179555281715775 -0.4612993587781152
Ni 7.2260832899031415 7.527617655750779 2.591773712160369 0.3839603185763194 -2.3174584351084024 1.0317973254707842
Ni 6.958563643782706 4.426012291151809 12.973098208927059 0.8288362416910886 0.9106340889951866 -1.059339496755111
Ni 1.4097075519518358 4.0025243193681055 8.98185716570115 2.014569884303434 0.18253264072201467 0.6826448586022695
Ni 1.0176996850458573 4.941500186319563 6.772124348001486 0.5288684640773408 -0.3635007651703869 -1.2956948397245365
Ni 5.239925173355573 2.216110813207515 2.8633788935920816 0.24273322147131102 -0.6435520063658658 -5.3929385030881765
Ni 1.0341699703874507 7.048801585840167 5.604862599880317 -0.3137748587001693 -0.5292129919009532 -2.4865894577125305
Ni 5.715075945212477 3.4062208421781297 6.710425792254753 0.36245921127974995 -0.0843057013276161 0.585038069290373
Ni 0.49158148328635076 3.1172464822574617 4.45086753468876 0.8402851069579785 -2.184971546089869 1.170045285342811
Ni 6.752383561491662 0.1431030352711576 1.969156410099988 -0.5109645872137265 1.9551234081113429 -2.172233786808227
Ni 8.360177388464274 7.540667624399581 0.5014627122553033 2.2117223318211523 2.7934719601682407 -1.2760906923403637
Ni 6.329592844350565 6.7860025420973855 9.013479548215408 -0.26084201525687983 -0.11721685023334005 -0.7667528420967827
Ni 8.308844370992306 5.568322687663669 1.099507441579791 -1.3546132113272993 -3.2745073639227025 0.2162752843900985
Ni 7.854064741531582 6.446986028029577 12.243756661455565 0.1997024676330819 0.4555393163658864 1.6537487228477388
Ni 7.960509142849649 2.0832555367106806 7.291670453636415 -0.12461185714583055 -1.7265171129597168 1.0114398448603548
Ni 0.06417004078397455 6.5906864409269685 2.9263739660796624 -0.5496661175489823 0.33098170949675904 1.82289748606368
Ni 8.004897880975648 7.25913692890675 5.001028772550179 0.06931128480131289 -2.137077807732384 0.33690810228352297
Ni 1.8831151872022227 2.8805191087321806 12.496095943323231 -0.27726853624401926 -0.33913262073866757 -0.3643880528713466
Ni 8.31439414105306 -0.024357742927089834 6.390111720620887 2.130074379831357 0.6535170879983777 -0.35633664332177983
Ni 7.611184566903291 3.3947915194553877 3.14836099956582 -1.0087813241915853 0.24514645889849393 0.8475389603069144
Ni 9.459672580976019 4.6457794166136654 11.36426226893455 -0.6487973139252051 -0.028574469203583044 1.4137871505842943
P 2.629309567832741 0.7038116629560208 13.266603781788671 -0.05428987169181618 -0.7828237795167162 -0.42755671511003146
P 3.3515805763337934 5.624037102552023 6.4972505498735496 -0.8101427790466436 0.8977986277934151 -1.6292833907165232
P 8.76700662770568 4.904479733741118 4.346210555069377 0.349638662476314 2.8243527089074973 -1.2648493150985893
P 1.9396116579735005 2.6299031765149605 2.6444399935773237 -0.35630990384890254 0.6226936748596179 0.6505700895549119
P 2.6343316857315218 4.596707765550153 0.8941697182758965 -1.8119265888744729 -0.3968795977411488 -2.461227324798658
P 1.161089160062086 8.852787793466474 6.7442124908691055 -2.1631675628409 1.9874272624503708 0.4484351012209374
P 5.701300454840962 2.678654467337274 12.59696042302843 -0.19483434090750315 -0.9258655612329602 -3.102044448731864
P 8.903498935176117 3.5767090246556985 13.500326364698717 0.7462765765203019 0.08230384040623889 -0.19976443121926885
Ni 9.000794224899968 1.129929415425559 13.345650786832282 2.0075350889438393 -0.9788858221837333 -1.6984170122893911
Ni 3.429569450345446 2.260697420894254 0.6980348140184174 0.34507058348965736 1.393536370755058 -0.06810698008056656
Ni 4.3303659144341236 -0.08593286575736026 0.9160559761657437 -0.24158805212327425 -0.8572631295732139 1.4425595947312964
Ni 0.8169101349309714 0.7697041111544366 3.784216717475708 -0.6851802234296135 -0.8815302296506948 0.22675664353739655
Ni 1.1245586702054742 0.5030513221572441 11.183440584206338 0.8342057335331181 2.1743379776354232 -0.30413707850008914
Ni 1.7779710715690187 6.192073499636289 10.091157266065562 -0.4897586425600726 0.2624985770236963 0.6667556981758388
Ni 4.9096431870404285 6.880094229409257 2.523013097567228 -0.6887136905041688 0.1940547824290013 -0.15973775431468618
Ni 3.9194096814972847 6.312962378888373 0.20426451649588115 -1.104697098954304 2.7306622239308713 1.3657103496817256
Ni 4.154054713454779 4.175500004894977 2.119019046460424 0.9699890339147359 1.0638209295652323 1.767678417689375
Ni 7.361133976288185 8.80779602429822 8.822672988557853 0.5821769456924941 0.947885002926845 0.9330183702276575
Ni 9.057921993793606 7.207841600874923 7.429039040590128 -1.2455490721080806 -0.10210801961635964 -0.48593284105607926
Ni 4.360847249148113 8.476741404460185 12.51809244282549 0.5585875884083283 -0.16080476212661984 0.20749213888082974
Ni 5.795524055193327 3.2979108135730866 0.7303657580073243 1.4954366452359857 -1.2617876454541301 3.5315852841514594
Ni 3.1681837606079504 0.15602297535147386 9.348025152446496 -0.037610354153606196 0.3807130152836153 -1.6851508913081046
Ni 3.980626754646216 4.463984402093812 8.04853848371485 0.662239298362724 0.6964311137530845 0.9378160487266171
Ni 6.8559918324391225 5.526845458788558 6.694497292615187 -0.13005565386922116 1.2314440001652665 0.910727162929625
Ni 3.8061058020735663 1.404412185612033 11.263839697915003 1.9017915294574217 -0.8940142210503185 2.272447417615351
Ni 6.590073987524678 5.301179935944645 10.557402965453166 -1.0222505623226135 0.4479602184670479 1.8367763009283014
Ni 4.295512604663784 4.355598994608488 13.154720794258267 -0.5677895666225704 -1.6373139743304832 -2.145924716600053
Ni 8.658734288540778 6.484392797369466 10.216265478141425 -0.0753592907676057 2.3212775517441764 -1.381139539752602
Ni 5.80341057054282 1.3571025158751107 9.26772214681019 -0.717954589647157 -0.6608223634105393 -0.16982830578146882
Ni 5.503883167382687 8.114451661105342 4.977791348231279 -1.7565697093707233 -0.7987731037571211 1.3007100335509405
Ni 1.1166438877758758 1.859747734314836 8.509833675139939 -0.14578540589965214 -4.812905086101246 2.806670975357018
Ni 2.6176258413890476 8.279597365442932 11.148136885626313 0.15346092016703894 -1.8626883928083726 -0.30383368832705737
P 1.9676902908785052 7.703401204568151 2.5608825047848467 0.5922533560918897 0.8585551089117602 -0.11179105123207846
P 8.326944724619995 1.6094992741389904 4.646789493609442 -0.16505145321811573 0.753825078291521 0.8184057903863841
P 4.401014769978327 0.8011418154120032 7.078730770256091 1.2518498175151278 -0.30305155874539424 -0.04814364958476225
P 4.903038112655727 8.42957307012379 9.867184941319978 0.6243445801994796 -0.15985191129504728 1.2151882004280363
P 5.314352395273906 0.12981939209348123 3.384028357587137 -2.9916405076552994 -0.48027769965283096 0.8595874068310163
P 6.252696964103001 5.216030068306212 1.9550765774993342 0.3778135822486332 0.17399092179959066 0.09724452087647123
P 2.5158549306484583 2.5113887319917563 10.254120751818991 -1.9750155190495793 1.1144683194084548 -1.0438570848487958
P 1.053184292938558 2.718859677607628 6.8291757957788395 -0.09728900096116147 2.615640838686953 -4.174382157518856
