# total energy = -340863.423123169 ev
CRYSTAL
PRIMVEC
9.24057009806145 0.00000000000000 0.00000000000000
0.00000000000000 9.24057009806145 0.00000000000000
0.00000000000000 0.00000000000000 13.52450838965559
PRIMCOORD
 96 1
Ni 8.093381132535997 0.19788588680422983 1.4564949789038466 -1.3965551029767238 0.3414281016410636 3.0601277538934197
Ni 2.6792478864512845 8.79696738823464 3.3284090317781976 1.5960238573324448 -0.21562350973871253 -1.3520475074826521
Ni 0.9918273619883915 8.4744622476384 1.5651511476730782 0.5995072094408256 -0.848913729167254 -0.42867205966139726
Ni 8.116759775145335 5.596569823569356 2.060837510640322 1.042015917874999 1.8064691653043277 -1.1210549714870368
Ni 8.473898572856118 2.4040359841453958 11.393330132151151 0.2752358220847066 -1.260233927813765 -0.7049990579277535
Ni 7.9507991343296425 4.637869905752694 4.231778263343401 -0.004500973194147087 -2.4177381432667713 -0.2529680118254417
Ni -0.3548231108183339 8.787052256408625 8.814801688723186 1.9965909312275099 -0.8158673402352465 0.6155421514165011
Ni 6.136200642185994 5.248274251541234 13.498514063244624 1.431399978570051 -2.1862612114355704 -3.4719781140117885
Ni 6.82979784149701 2.4933830574219513 0.2989860413198427 2.540826364679224 0.6737434423475815 -0.6451252643902567
Ni 3.062204837304555 0.6203527436672804 1.0056420144393636 0.4720478555438709 -0.637483945794915 1.5172894794450191
Ni 7.881984608040418 1.4704611767061204 5.912915200069397 0.811383336321964 -0.03774559417988983 1.6063707477844076
Ni 2.951123942914497 1.0696237225132976 9.57786764669368 -1.3519279511856523 0.9694871545776529 -0.8649221887803686
Ni 3.25606275955803 7.869352748575214 9.441675502781536 1.218772832455501 -0.29558276117217486 -0.39517238524205495
Ni 7.648641729316707 4.098008072881024 9.548776483585888 -2.6397649854286667 -0.827573315818265 -0.7038867987001813
Ni 3.2776579721185124 7.168159800558715 1.331298189474254 -0.040793894087910385 2.3634081623656398 -0.660065944860489
Ni 7.265629335042228 6.086634223626117 7.625578190151234 -1.5549769666934639 -0.062765256152679 0.4355970689160047
Ni 1.2891057459350304 5.800601613614483 1.1293122616716986 -1.0414176221693678 -0.5788957038380611 -2.2213703964338776
Ni 4.231700642553711 6.802732211377346 3.609407379144153 0.6404759385437034 0.6764793532215059 -0.07991888511383011
Ni 1.8101168155960092 7.031685819255431 5.361656047911421 0.6374350948348505 -0.08645514357045112 -0.15886795011522317
Ni 5.267707170674608 3.628319130118172 6.558615751855916 0.9341697102232814 0.762320517357042 -0.12098120237177874
Ni 1.535792008029447 9.330203732271963 7.4551016826781575 0.540157920948231 -0.21245951018843412 -0.32079011367573784
Ni 8.560223979676843 6.3081029696411335 5.73633899220643 0.29181326682741354 0.598982190175291 -1.1159459323952459
Ni 6.765696006010458 6.768385011939043 4.083522555033436 0.5269061981446475 0.3374575470290898 -2.2282923203646914
Ni 7.957036519215532 9.21360621747172 4.092448945847911 1.3115513471408187 -4.397440269158743 0.8587494843107533
P 9.05489018369386 5.438371261722772 8.484100162358375 0.9501635145483766 -1.3970726660430908 0.45029735124065673
P -0.16127936795170397 3.773701021095527 12.826129516887756 1.0467696305099004 1.4308315076610905 1.1076780359594989
P 0.8295740379374685 4.891061529268839 4.717118883913248 0.750189795531779 0.3099025202289566 0.4510008050655846
P 3.6172674081573946 6.265531662723657 10.891949729825855 0.13705548222582203 1.0905781430544186 1.2356948050218204
P 2.891134161167533 3.3280560419965073 9.673066773078729 0.7236974056682053 0.5572112768860921 0.1445762160828994
P 3.226659265177432 4.554935788195855 2.432004417973729 2.162923308040578 0.8139600959102047 -0.292302033538374
P 1.6823844137031743 2.1030890938288334 6.839749935603831 -0.7648265716083473 1.5372186142687783 -1.0078341297869675
P 6.153009239382193 3.892553235024894 11.43766361580602 1.3452983616842766 -0.18317670206391679 0.00017226391180615494
Ni 1.9759942912798896 5.787212027392773 9.60392975088948 0.4284031222707267 -0.14550566987570424 -1.5099168411300319
Ni 3.179347545746678 3.4411144184096476 5.242302071020122 -1.012052024523057 2.307398222658923 0.9051825789623121
Ni 4.938558060103619 6.86342427645961 8.03792662264384 2.147085055456741 -0.6507197277588986 -1.1533611398189105
Ni 1.8431333729253225 4.429707580827578 6.98580084386376 0.31331334568271846 1.2482399886766826 -0.8766698162345998
Ni 2.164455720535794 0.2577546170815566 12.285122777368143 -1.725509497630809 -0.7805588947419396 0.2205332883355041
Ni 3.802106533894382 1.9237111450808257 7.383556567894444 -2.431738828421238 1.1085966911190264 2.1423670811557813
Ni 6.186783523468014 1.622385391386009 11.461236310389586 -0.007573184361567602 0.31441120673258754 0.02886166142669868
Ni 3.8068284652672557 5.202256211938665 0.5070652011131478 -0.6277307230628931 -0.9857226425999089 -0.9947490144682353
Ni 1.742050775493092 2.7732799288199086 11.947862294274437 -0.10624029661717832 -0.43356538319795657 -1.755943131530318
Ni 8.73119300954165 2.741621735310189 2.051951778334733 -0.6945452095842812 -0.23262261539987034 0.11552712123574296
Ni 2.9417262830197557 1.2749769140972134 5.060762752902026 -0.8153888579369312 -3.6777039050208145 2.184844533593702
Ni 8.500391287623302 8.954981138677198 11.203513111246712 -0.15687200273111693 0.6270509233870492 0.4606033611523551
Ni 0.9037259175749743 -0.20450398318241464 4.572947507632266 0.02859838046298301 1.1723222543024454 0.284576125649026
Ni 3.70107937988336 5.687367666367519 5.562887021128528 1.1421709275300458 -0.12971909646540886 1.6151904029585666
Ni 6.080230508476603 7.648558564184895 6.03474380166061 -2.168352963696582 -1.331522905166739 -1.0815337734639632
Ni 1.9760035318500908 6.387220731704828 3.0940561587314823 -1.055536320958937 -0.579987394240343 2.037310520434059
Ni 0.5884099405953604 2.55474044355871 4.696358094841943 0.30502333775978435 -0.13008959243095017 0.27591536465023453
Ni 4.822404092673038 2.9557349874449557 0.9032454079245057 -2.497187287833035 1.7197178306496963 -0.5856692751164687
Ni 5.508035920470518 5.858198087679306 9.896532406314252 0.0013200043630041782 -3.237181630889051 2.4721653118674003
Ni 0.8540772579403066 3.2828234508610503 8.693919321520589 0.07454245129326517 -1.9886693623875877 0.12489724959673329
Ni 4.085856723066289 4.336026680126603 11.771516176609481 -0.4793353903442196 -0.9418783917214488 -0.27156942897671293
Ni 0.7138885674160935 6.97851557831704 7.373291218457799 0.5344230753469829 0.7093293098719913 2.0390339308830687
Ni 7.622638764770195 1.4150177554982053 9.184263710854449 1.4209052496863144 -2.186228301315106 3.8241601117352464
Ni 6.642879587464726 7.596589597372676 9.498072550834229 0.4498294104653027 2.672983381162164 0.17870221123233093
P 4.874945974837739 8.541419419317158 1.9370074015435037 0.43768480468296883 0.06302390913070437 -0.3202967189790871
P 1.4591137564989003 1.3914265797742376 2.5511551023205983 -0.981988115258141 0.06518877799250708 -0.40660196723523523
P 6.890536109430281 7.384925096341259 11.671907450124362 -0.882842520704215 -0.11410967206292606 1.0921128345313902
P 3.519354326304217 1.7492399391097184 12.798688719617918 2.24505694141754 0.9123014493952805 -0.3300581692412251
P 3.9576900143739926 8.428434967465629 5.058288128202112 -0.9156217720177651 -0.5566605465889445 1.8359167811414834
P 8.627042542802581 7.6833493109928614 2.824661195367324 -0.1089363553921027 -1.071028245946949 -1.000291284442703
P 8.808268605590852 8.601196667949491 6.120651534708234 0.11435341264261596 -0.28178673582934693 1.4886818430106556
P 6.813506716232084 2.5413508573369987 7.933896283317389 -1.734875512226741 3.6474661891821962 -4.707880149948408
Ni 5.678348869851031 1.4029865330960878 2.1825311999065944 -0.5633654694129459 -1.6309245258643719 0.4746590679144728
Ni 8.457515041889181 6.295711365001165 12.79878297343397 1.7274835906380444 -1.6102857665680976 -0.28406936121593657
Ni 1.5630701712637411 7.8926112637719354 10.756623427341577 -2.1063076164290626 -0.3710631508986771 0.8949220775765684
Ni 4.140209756990449 4.797537718261288 8.335384273652386 -1.9025494906693687 -1.1885353737271982 -0.29506571232644024
Ni 3.995945975007454 8.705467262101177 7.438858608378278 0.2638062400915263 3.443838161242463 -2.2419510487987067
Ni 0.5350327108844602 1.3298381793824454 0.36436677172225634 1.0569221455628701 0.9713139233737467 -0.7900724906593296
Ni 8.589812285461466 3.8152096624398526 6.8150813093943885 -0.8263384149698995 0.06911228141662935 -0.029990889935135448
Ni 5.2865486933150985 3.022119243771232 9.559609204032894 -0.5792230052704928 -0.4193484682676262 -0.2966078600025795
Ni 0.34500592903645244 4.544447741017358 10.465886443040452 0.3789379256610635 -0.3501063461413519 3.264089253913172
Ni 5.334442568668536 4.558243912327927 3.7101111131981286 -1.403631293097215 -0.4365162382961644 0.9708279848762636
Ni 3.2669019484041772 2.3826717858399458 3.2031447861861353 0.8680936445298146 0.780503873134288 -3.2032163296871996
Ni 7.207838809003178 1.7474565090608638 3.7423265130909877 -1.4236213630658965 5.770262290184585 -0.7520756997005822
Ni 7.094410809781986 8.775834204184223 7.4951882002685 0.2537694246808146 1.552080104761643 0.7743854189413761
Ni 1.3339502331220323 3.9232042063826698 2.735561769372164 -1.4044468470199747 0.3657311971628024 1.3740389241520787
Ni 5.625973317949954 6.213498011920028 1.7152457294531054 -0.7409505363216982 1.4211780437317265 3.2318242232318792
Ni 2.343556452177762 2.973550806793099 0.6943318246420216 -0.1477695262092165 1.08606200035162 0.7771120738439197
Ni 7.05199659255793 7.55935934003156 0.48557071076785924 -0.9296224571722311 0.6721318748860876 -0.10355195115173778
Ni 8.534396585964156 6.717589597542392 10.345274824544752 1.458587080507804 -0.9724372383449125 -0.36126544808196487
Ni 5.519706760634784 0.33185012924083435 13.452639252480175 0.1995757122472305 0.8419681510873565 0.8027274604191788
Ni 4.192492903189513 0.1542223444889565 11.18049485087523 1.8913942453834973 0.04428905172536244 0.11263360173803183
Ni 4.6462233812146865 7.6219180002944915 12.641006705645587 0.21836713392212068 -2.2588388256929806 -0.49336024386840194
Ni 5.711642644286385 9.107810929236814 4.176895744746706 -0.915725387475165 0.40314871857931217 -1.2929579004093477
Ni 1.7956830449415486 5.145426705200553 12.3148090331969 0.12235442857022154 0.7541495515104754 -0.022031525878742703
Ni 5.558748169735357 1.2090454457108013 6.4047473212056705 1.8604242793645442 -1.1602470683054664 -1.0751738926842063
P 2.9243817327518795 6.849674308000047 7.430932971316607 -1.5464889838271108 -1.3464499587902166 -0.39773448954227625
P 6.435123847628467 5.287907057134692 5.671773280095772 -0.3953153385778224 0.5774864821953603 0.6799351729805903
P 7.859012550519939 0.7220165729651737 13.055248530972444 -1.3808993987173381 -0.08297875498607644 -2.4908754866823943
P 0.7806479908925439 1.095432635085582 10.081912105408016 -0.54765397221496 -0.4924577866587906 0.36761478733876046
P 4.909126844012419 2.3362101988677133 4.688365925674823 1.6857697558390254 -0.40507087530268954 -0.8003553606425765
P 5.5667505035297 0.2325463415723579 8.995461304558116 -1.304919700756914 0.28520861702670236 0.7711828528436783
P 6.799701304351313 4.022540336046851 2.3364264282104243 -0.09978039992444751 -2.013127752540268 -1.902323747811808
P 1.3886359275734392 7.234322283200159 12.916581762360387 -0.19490684601665142 0.7789650678922585 0.6687827559081967
