# total energy = -381165.90238745516 ev
CRYSTAL
PRIMVEC
9.23457132269755 0.00000000000000 0.00000000000000

0.00000000000000 9.23457132269755 0.00000000000000

0.00000000000000 0.00000000000000 13.51572857555102

PRIMCOORD
 96 1
Ni 6.101484516586085 0.5569748658010855 10.435021410845403 0.4110345490852921 0.17095110653200238 -0.6147541082975672
Ni 2.510252025984648 5.935908650514745 3.9571080583047133 1.1839431263708255 -1.999646944445014 -0.7955733658729008
Ni 0.009384171505950733 5.14027644365615 0.34396192965602057 1.0996795911350545 -0.22196410724475965 -2.83080849183517
Ni 5.232696034712591 4.1536917683857775 12.149153644598977 -0.17050142058909343 -0.49120257409545076 0.892475930028921
Ni 8.539319033271711 0.4381822621449158 0.6067464355369866 2.1503143610273163 -0.17641444363941874 1.4281896991628693
Ni 1.7828910058447056 6.404359990953505 10.815231803808164 -0.14093501978588632 -1.137006609720287 0.009783561749325086
Ni 2.9171457131478062 7.663244474525363 12.976477977211628 0.08684440858906979 0.29794534786708043 0.16715461560404762
Ni 8.607146960560836 0.6328821196504896 3.923183936631558 1.6951100594033452 -0.10770376853658226 -0.5795803886099115
Ni 3.3047760842694243 2.721418971297161 13.102823536855514 0.5594892742869912 1.0599946138406064 -0.34954147477681735
Ni 0.6328719616218962 8.351672541438491 12.48768195241471 1.032162422119687 -0.24346290054848396 0.5811032530123411
Ni 8.436999981622495 9.28323764001879 6.531124800141152 -0.3341469945986181 0.39310881784480683 0.454312900157953
Ni 8.078587794563886 4.992717226480804 6.954558528225691 -0.930933719784487 -0.44265731819689574 -0.665012490232487
Ni 6.726323324504944 2.978546378708785 9.17830151082107 -0.6568016722869204 -0.547943478430921 -1.0338819759139548
Ni 0.30747336749162074 5.2865797591145025 4.045744245438709 -1.0944517670772118 -1.168748678018574 -1.8986588973657106
Ni 5.766602017578215 8.243738870348595 7.694504422335631 0.7554369028633312 2.1797388369360204 0.2780128706092115
Ni 6.967631911025312 1.9703528062489568 2.3263538467023674 0.9557718618740895 -0.8389933847297486 0.6210692518823175
Ni 4.486893575390023 3.669116866197962 8.280979126628903 -2.0298692336646655 -1.5123131092763504 1.863091284673746
Ni 3.9109979961481365 0.48104452552306015 11.950904941285751 -0.1276555290681608 -0.14994365104239984 -0.17622521044674813
Ni 7.709094121767092 7.088937241572615 3.7774032979171897 1.0087139612887595 2.682946148801831 -1.3357978783930091
Ni 4.137614379493965 6.034829379870918 11.879473684217428 -1.192449878290256 0.8137947739769339 -0.35223470533826434
Ni 6.975601346185356 5.998445168363887 12.036188978983947 -0.17206208020799402 -0.5454255971050735 -1.0754865388286188
Ni 2.1557275935058504 8.698744674758363 10.697645235183165 -1.1653221688355286 0.38602902817989 -0.32406029978657735
Ni 7.283657415135377 3.6823961799408838 11.300257353082666 1.0196393499520116 -1.5124817736437306 1.28553743957556
Ni -0.031130663809988697 0.8501438821190026 10.657949506354706 -0.7540472216046562 0.7825772107235491 0.42549828991910593
P 2.537272382042916 5.094454500128767 0.1066823866586261 0.0362947206659762 -0.05752406235839771 0.17836565382851863
Ni 3.1018833149747542 1.4615002157230728 7.442516977392232 0.12413337484751523 -0.4409182240186019 -0.8386514280092976
P 1.066389841728182 2.258360620584315 6.90287447874281 -0.15814624145785022 -0.6353712703272864 0.9858015754669603
Ni 4.63890385600354 5.6197723315473 5.438729481756891 1.004963750217708 0.3710258699028384 0.8313798340485489
P 8.0845902660054 1.576535272256854 12.452797435310911 -0.5906099069511958 1.3001281929055415 -1.0501244059147463
P 8.515512308077517 3.034378597686327 3.6380554616738365 0.7394677811285846 0.4975678541918463 -0.6646612775406553
P 2.160797373231069 6.71562045619615 5.852621127163711 -0.6398470467104529 0.5311053238276595 1.493893726228898
Ni 6.826075165291482 9.015056450583328 4.6416123558093805 -3.293766983483263 -1.2022542659751876 1.458716921217449
Ni 7.922754401370695 7.185946414638953 7.807157882892847 0.4919271109663012 -2.16961229002498 -2.0276488289745784
Ni 1.10456556009622 0.685668776964321 2.419409699731609 1.170844127095022 1.0135507205557706 -1.4772671734158107
Ni 8.078116831420012 2.6193307839341564 6.8253751847756865 1.1742212710973712 0.7179013678117184 -0.971000763008702
Ni 8.99638414711449 2.8780742413492653 1.0959663271633908 1.5177201392245345 -0.9485599175066824 0.8749260940706157
Ni 1.5096030983982327 9.0414303866402 5.837361921302233 0.08468571037485415 -0.4735133843458039 0.9734433110119236
Ni 3.1456459490691255 4.302405306992185 10.604981851440487 -0.7252009867969254 0.5659872233065091 0.27378546279142524
Ni 4.7619914588403995 2.6200233767927927 1.4127721525608505 0.9023646498975427 0.3828154063385988 0.21994116327745994
Ni 1.8394804596810237 0.921927899816658 13.103526287742744 0.25033057420259464 -0.5956266434394968 1.4199374864564063
Ni 1.0703791765939277 2.0989534482405627 4.707920272638083 -0.5186110480153907 -0.502759939915747 0.3775137916200273
Ni 4.299865799843851 8.045472621349615 10.238096945077888 0.0363127183881052 0.4567294800192457 -0.731780954007288
Ni 3.353904004375366 3.8535497271671098 5.681971787538573 -0.052315521574264744 -1.9473992999942071 0.21022162199685088
Ni 4.5009024202773755 2.504101801399957 10.43287252606934 0.8538795578129617 -1.158910865992546 -0.4703779240406157
Ni 6.9291329826565775 3.3041573679823752 0.5250214016750367 -1.0427705366528364 1.88912010463734 -1.9427499741476542
Ni 8.088644242871286 7.133928073669636 0.49093013425866366 -0.3349813175744554 1.8668188700369783 -0.5287075130194443
Ni 2.4906008579422716 3.2993646254006115 3.4537555785335474 1.071528068401503 -2.0664616880767186 1.2596091497455726
Ni 6.431842075584197 0.37228620720281463 0.1486904521777856 -0.5793461611119184 -1.02914111879486 0.2480299510938761
Ni 8.973380829636314 7.4734740312589905 9.946643712135103 1.1814316728028813 -1.5108203267809077 1.0011227792050628
Ni 1.173261537101502 3.06862038861731 12.538906120239456 -1.9122520626691135 1.680248311800164 -0.5387157891850657
Ni 5.416380895394411 6.427852740718452 3.4124244071015615 0.42010000172167 -0.669981404201988 -0.4894976755892021
Ni 3.402385504479913 7.691520732300624 7.54142477834838 0.8451082393782348 0.7642897252682709 -1.0970362399749365
Ni 1.054624997702812 7.628319325307192 3.656288199541726 0.7756637714331673 0.9289999930968839 1.3338350982396836
Ni 7.960837774024249 5.058532017194159 9.588369120191073 0.37617218999046825 0.8287274840273664 -0.37125701207703804
Ni 2.8497425761453123 0.26860505626494624 3.9744755168278796 -0.48050164273817886 2.0894874595479305 -0.9036216622330955
Ni 6.318109093624653 1.3559952369241286 7.094446586898781 -1.9673495178638891 -0.27708341681640664 0.38459512394684087
P 3.0826477026475594 1.5037576146713416 1.8941075670845382 -1.413770952634378 0.002689116796388917 0.8543354144034577
Ni 9.076106202429264 2.8340715083972325 8.817540048785967 0.1297823456031765 0.6599993532886118 1.300549082493044
P 4.726456827906628 0.702940195944423 8.6741788677911 -0.05606341865247119 0.6211039617749948 0.620030526205158
Ni 9.029563962328899 6.9031284294576425 5.57431884742071 0.8507009029746638 0.3906485292297724 2.4948195589318067
P 8.998074073689564 8.259059024381633 2.251815156341629 -1.8825213683738997 -0.6639945904909338 -1.409758231930559
P 7.8736541849791 -0.39643830536918295 8.933248305578342 -1.05907724423266 3.846896376990498 0.42834990043528814
P 0.9063297851830215 4.082059197659878 10.497152531007957 -0.6032497072023932 0.0025309939519698346 -0.3904184154968373
Ni 1.5343425153087247 7.530580621096424 8.572026961885102 -0.10197689335513405 -0.7036425438998591 -0.0001977178331028853
Ni 4.167959181273687 9.233814213626495 0.8981525721653877 0.25465696949209043 0.033159260360788055 -0.6738136334638847
Ni 0.6598249053085903 5.499270408716015 8.186707080539895 0.20686170438568247 -0.7215839588696282 0.5058151818023031
Ni 2.14792438063188 2.891205801949011 9.015937428699512 0.5089488423352784 1.1841007349946124 -1.9820806534264768
Ni 3.0158632819321136 5.261618712489247 7.573295131331392 -1.4434795354424041 0.40861565523115434 -1.070240459938331
Ni 5.050451767176734 0.9356190754461823 3.221095168174685 -0.21931715654021583 -0.21948427824569944 0.24021842546925726
Ni 7.062166218943457 5.157138771121084 4.29993413567257 0.0968071762287365 -3.7336179425796154 1.959821327807644
Ni 3.8636523483317524 7.721015953507087 4.640801560436203 -0.11120638237320203 -2.3637197800687875 -0.9355907589405242
Ni 5.91538943275621 3.9985879063370193 6.855961932327359 2.2035259120532893 -0.8017866937724644 -2.8943913587931376
Ni 4.358597674256218 0.00985051736409924 5.962139450714167 1.3197421104817273 2.6631388842679167 0.9751793198664237
Ni 3.7347839037681405 4.7645863734174245 2.3328549850021014 0.5537395162874076 1.5030885053542888 -2.2841857890982014
Ni 2.197449387310107 1.757394354075438 10.826653121775651 0.10936264429624391 -0.09903066624261656 1.307267375053484
Ni 5.490497565839954 7.9055596293336166 12.29881280332171 0.21000976309636088 0.5971271392444232 0.4662844706975324
Ni 1.7410399280401707 6.855930534784434 1.436559485155004 -1.1976910720845373 -0.5108931105458427 -0.42147502769232575
Ni 6.244731188894988 8.152455131580318 2.025521059539353 0.18390149604508327 0.2509962328110516 0.0544878466352352
Ni 3.884744109520093 7.240476559042259 2.054593337373474 -0.27634062511311114 0.802681694782908 -0.4226960445836205
Ni 1.0334501253714352 4.250423904308661 5.887843629582523 0.041483978176399525 0.319698680383772 1.5252431870744572
Ni 5.419520649686897 5.065162439494171 9.974919046453218 0.8096565834388443 -0.7936949179032653 0.554980073562728
Ni 6.975444358470731 2.1013452022457204 4.768173080968015 -1.4441732190753191 0.8210414282370182 0.8377762244931959
Ni 5.441720559449055 1.9515604533512891 12.662777738192293 0.8544454576187608 0.8187670303805448 -1.1704669462612618
Ni 6.45450371391878 7.203196594104723 9.747786450563419 0.5075452771195323 0.2129228229780978 1.1997646667841144
Ni 0.8264895273537075 0.38229832956726234 8.578974129985797 -0.11521627486354351 1.5133487496297162 -1.1445026609870161
Ni 1.4400667753911387 4.389459612037055 1.9976114142505956 -1.3047528361617466 0.9604312150229718 -1.1701818109206747
Ni 7.77897212391778 8.516066382364425 11.657748853367861 -2.053294040346509 -0.009642408185770491 1.109745974232121
Ni 5.137044343649181 3.607845484637262 3.815097895112762 -0.10115645433636772 -0.14934047024076216 0.8421944081655495
P 5.872808823807245 4.553881156677336 2.034238494986723 1.0639561695915158 0.43006379780260123 -0.7299189610978849
Ni 5.340943681231735 6.094798686857382 7.823958338729076 0.8252366972652885 -1.4341096641917301 -0.5365342081527147
P 8.996984394258643 6.540920833533706 11.941159698036165 0.2701013290716187 -1.1613598417536708 0.6011558007878421
Ni 7.899076960176779 5.508403399878567 2.047822549587445 -1.2671072578948308 -1.3068619120849492 1.0118067412814704
P 4.482941178810072 2.035761275818578 5.150005988134274 0.1947453807381227 -0.7081964818191288 0.5388836822214977
P 3.6965712471143086 6.235635136018231 9.313310021940781 -0.6908937288746231 -0.1601185346928726 1.0501781419708172
P 6.04158908617121 7.279852771698599 5.792260274347831 0.1640705773620852 -0.27595470252860216 -0.7402877059267186
Ni 5.496980234996792 6.010339296389535 0.2813700043781874 0.03159345853556494 -0.09575970880082862 2.101219146162562
