# total energy = -340891.5787494018 ev
CRYSTAL
PRIMVEC
9.08826345629898 0.00000000000000 0.00000000000000

0.00000000000000 9.08826345629898 0.00000000000000

0.00000000000000 0.00000000000000 13.30159222404417

PRIMCOORD
 96 1
Ni 6.549029925282758 1.720408275924505 11.07332289272458 -1.2627129854818768 0.894933133320162 0.8347690622357559
Ni 4.835910436665657 0.2529636344052312 6.1940060008732765 -0.6502566720795511 0.07476330905481963 -0.6963277554060008
Ni 2.685890857987706 1.7158459676597713 4.710093425936279 1.111399193564828 -0.4317491559248242 1.0218528126635626
Ni 3.5320081875628317 4.435772372363468 4.660119791563187 -0.35605613596688357 -0.678051068584 1.0202150199498237
Ni 5.191361509458489 4.686417590756083 2.875059426926206 0.8110542351173193 -1.504608798653557 -0.6065440616829489
Ni 7.382205567668679 6.413087680215252 2.4456835101967775 0.03271420240356947 -1.2167149214852078 0.5256008490696626
Ni 5.0625535512193025 4.66748673793648 11.328939391238329 -0.3531343343343983 -0.6458508297023715 -0.23024383075504867
Ni 5.399364595623752 7.753597454597654 12.74750099000158 0.9212303764537941 0.2079423390443709 -1.0444337832878723
Ni 1.7316322813168281 6.740283341862553 0.46985231577055364 0.7523176405080592 -0.31559391418677907 -0.06117631439900432
Ni 2.786616082087395 1.5987527810405882 0.49500044963379025 0.20452842826681547 0.5367609794515401 0.16353244547042806
Ni 0.5640403519522693 0.2547758341422589 4.958873732663707 0.36501488782206815 -1.062452074242164 -0.16385331914495654
Ni 8.248326165153525 2.2427834839730454 1.3022009261801986 0.5744260981024817 0.002894805049291789 0.6059498797423758
Ni 6.88784038765183 0.7437589445288774 4.785354244603782 0.049247167061586154 -0.5731662575534515 0.04074067225247177
Ni 0.9753887892515667 7.604877111083503 2.787508549560696 -0.4143787829671766 0.6020831976981179 -1.0786914189191616
Ni 7.7197709379416 4.055446722438013 3.6844610808863965 0.0981804024271793 -0.49824302588200003 -0.1620070099648371
Ni 7.256360383322527 3.552384074275049 12.522212026705793 1.215991670165938 -0.6199783328109839 1.0477001127439698
Ni 8.045830566654455 8.806990809259997 6.953580341502332 -0.7827103938673036 -0.05165629072371104 -0.7785284945754721
Ni 6.727696096948895 0.7200667504744264 0.12259703897998521 0.5944146254092666 0.27743925749392867 -0.21881759119597796
Ni 1.8142173315192895 6.686726205201047 9.282609628205797 -0.018115478653788156 -0.9258784167487667 -0.5208129407627159
Ni -0.1328704120127642 4.589991115280336 1.3635067162809718 0.5720118322340342 1.0456368024570377 -0.019808035864862662
Ni 6.425920308242751 1.7988036366647309 7.144272103399338 0.41418157935470606 1.4133516057087725 -0.5111023983431713
Ni 3.123926980983 4.339518573893757 0.5241119751987209 0.903920681530753 0.39518369809596454 -0.24487906416972016
Ni 6.305737112041876 5.642357496169939 4.885887706344137 -0.7402059448461897 -0.15821668968446947 0.06363146080771623
Ni 5.3008114664947215 2.9051815673896195 9.208413045191282 -0.06054202324911508 -0.3811817273899177 0.42214942805153105
P 0.33596492707487363 5.654035914736042 12.469112029697106 -1.260698269044693 -0.07805714931474299 0.6832752930974169
P 3.9601562798967116 6.131851366963885 12.53689684282961 -0.1557962531684349 -0.2615853211808076 1.3377035800561543
P 2.5940176025132162 8.5457759404453 1.4652498258899247 0.06298251436980765 -0.1307755627543812 -0.29456691831315074
P 6.28408886844308 7.627715917197599 5.73601932189642 0.28104677233952885 0.9899305100336694 1.213352432770878
P 4.77591880946345 1.4658278394469706 12.414203468256785 -0.025468833695065814 -1.6934928355148964 0.017450591376279623
P 3.9927377044566135 6.058827169937718 8.174001437624005 0.4649649805551605 0.023650292429088303 0.7944423375922511
P 4.8189335604933 1.0161860039933792 3.9368585164771 0.16357229756942795 0.8493119930469374 -0.10766880153358878
P 0.12230621454876714 5.76599423249153 3.4958977902953685 0.6999314135968591 -0.9043112321009522 0.4112253249398596
Ni 1.4423710314165366 0.9674547352373982 2.6939984978342575 -0.5756977657260537 1.3697546949544281 -0.7150348448972009
Ni 1.7691940742613395 6.6836725486732576 4.784901649082698 0.9321503658004077 -0.28799209330911046 0.231460219660653
Ni 6.2700929426907095 5.811989933941366 9.287144671680105 -0.7289969635042477 -0.7558971303292014 1.2723628498668154
Ni 8.659388322153342 2.010678323070584 10.153437946170984 0.6485098645917734 0.7546984820354099 -0.5212623695953088
Ni 2.492310845958165 5.199431887424791 6.887604092801467 -0.8402162013932561 -0.24285252065799462 0.18909872397530658
Ni 0.6690070686160056 8.987438280567345 8.700837165386352 0.2713344301477714 0.12403695847896702 1.2595793249489018
Ni 1.460638441002423 1.062599765563091 11.426347399169437 0.5423477295106982 0.5953337947894264 -0.19613171956268802
Ni 4.307473356878914 6.45186730046549 1.5757594744474084 -1.5542688848828459 2.1949337995089038 -0.1846219191508756
Ni 5.524964396856063 7.723133595427559 8.156150270505298 -0.021920454222175152 0.6665117004858327 -0.43739272736384666
Ni 5.552583629558306 2.91266120823001 5.075049913498205 -0.6540084258124994 0.30854214954632025 -0.2094963137950521
Ni 0.6946586922757885 7.254906261166436 6.917107322522194 0.6381686305667654 -0.06600458902558311 0.11574746477666517
Ni 5.483467385826633 4.482286104831411 7.421077888206367 -0.8576104856103037 0.018331194209020043 -0.7311273795836892
Ni 8.319014678466472 7.133241678019045 9.320957555940945 -0.005695507722880514 0.25062985061056836 -0.060605272386882715
Ni 4.773274124792061 0.10421602610065446 10.484461584394195 -0.27880168505909403 0.3792549426808501 0.12573260101383507
Ni 8.206574682746778 7.346515957000134 4.791672405371995 0.478960266392988 -0.07248171210949451 -0.2629302652444762
Ni 7.310126550043971 6.264758132030552 7.156483094205107 0.7822054292064271 -0.5460848279556273 -0.5049677462003432
Ni 2.288997303746295 5.211582895691622 2.549064324884028 -0.5714287060370546 0.7745543404190725 1.0116848709916255
Ni 2.2495269754719147 5.24796321438431 11.571893212251572 -0.2439822633870637 -0.19375036381470503 -0.8002419749931637
Ni 1.0136140254297943 3.3038382447452905 3.785832480519199 -0.5828950548054412 0.6311531184808807 0.7921913367745453
Ni 3.7233797515678098 2.6719767266066152 2.763166544667742 -0.09466519018506923 0.16357641133448603 -0.5031726019731334
Ni 1.0086790983625622 3.1917163382472413 8.172804513324273 0.1624104160508429 0.9844512320866529 0.15061522318812773
Ni 3.6578351953820327 2.787279525321112 7.09900618950659 0.520814997645245 -0.1885325670591914 0.17450308554931881
Ni 4.019866170931175 6.973515447435985 5.981459691796579 0.69735388267767 -0.46260522207373234 -0.5881917844280063
Ni 0.8884686373712605 7.6210905731239125 11.332890059371156 -0.5623840793362831 -0.4724867428535024 0.8983197904042077
P 0.5126162307284784 5.418786214671035 8.033948570986501 -0.9078310723287527 0.4422461988014061 0.8122575113968012
P 8.563070905839302 1.6048328293057414 7.899296859332527 -0.24969011240511838 -0.27954370543144114 0.5658167591669159
P 1.6161386290693447 3.0951717153463116 10.35163206956707 -0.4633701252642149 1.275739479648532 1.213993665899303
P 4.1089402412551905 6.261041032269047 3.7458477565321022 -1.1453431546104405 1.137178616521777 0.7667726395911245
P 6.982076591629967 3.9188682989272188 10.420786484005342 -0.9774891989465231 -0.08618132108377416 0.7254439560456667
P 6.37638927230092 7.636367944026338 10.543467135009301 -0.3046698110751076 -0.522382599242681 -0.6395197452780212
P 2.5853201343671004 8.715063024204655 5.90041328460053 -1.2762925239385243 -0.2764416694673497 -1.075021683377058
P 6.7824892374430785 4.008633077275377 1.4831673373320018 1.9494764942382103 -0.4271661645398321 1.2918721235443362
Ni 5.210228744433763 2.9512590632107356 0.5757378558716695 -1.386389732407948 0.06746908938625155 -0.4347555468513158
Ni 1.6458299858440164 1.3127814825184516 6.939148179103135 -0.16969872218214002 -0.8264060349830414 0.26238082049890943
Ni 6.867364530041383 0.5176156844663868 9.031461828842984 0.5529769270897702 -0.713427648311081 1.0805009613240748
Ni 2.7226347072194157 1.5877741587621055 9.417846624027598 1.4095975379829788 -0.951862242407038 -1.63624362408444
Ni 6.151418398226777 2.209202350430832 2.703056770040353 1.1455434435467047 -0.4007506506607808 -0.01772672785580173
Ni 3.9112159810807925 6.8917756057367505 10.455304617511885 0.7760453231423021 -0.2973020578561267 -0.4183778768242408
Ni 8.376843298961493 7.503306678480587 0.32901513199510884 -0.2768147365360523 -0.6299547272974054 -0.45424270904164993
Ni 7.788950799517602 3.9710531078039146 8.510744320052387 -0.10113331440791615 -0.4303916134556652 -2.35036469891812
Ni 3.2008773078306114 8.582837878898655 12.480830436622501 -0.24895631956288738 -0.018215751677078305 -0.04218871755290799
Ni 0.0033844693183005055 4.776627694014544 10.336507381491034 0.9871246651537581 0.05120429078795698 0.3003850676568246
Ni 8.569032806679273 2.31222690518984 5.723010381557497 0.3715915125983213 0.6452448206872564 0.26634443313234774
Ni 3.304892483308456 2.9426070363819976 11.78434591221447 0.633078874748684 0.006648872775085323 -0.7921964789808679
Ni 1.1724041648748706 3.2019042816033503 12.895361583790942 -0.9018005498639566 1.1144989155360743 -0.0038697673680513993
Ni 3.129934323140349 8.269510907315068 7.963357302092742 -0.2477013641098637 0.5509416418272963 0.6629959740230904
Ni 5.661306525516493 7.963699929625772 3.5528821111135103 -0.38069501756148627 -0.27619021557817597 -0.16491801296404499
Ni 3.197578268188981 8.755560326251773 3.573578813526415 0.5134001932384126 -1.8524854841334417 0.6099114354932851
Ni 3.1963877056736822 4.200240936130719 9.286466687224827 0.5408009538488686 0.745691136330477 -0.12750229131974813
Ni 7.291241138541747 5.87747996054629 11.766694686892228 0.6925868003063298 1.0343787130447153 -0.8922892679394117
Ni 0.8420476051907683 0.1822424033437725 0.2892421645469926 -0.069015607937765 -1.7612468031314183 1.1014798775685868
Ni 4.649455623200959 0.4348106982878166 1.3663531604015187 0.27663861596950423 -0.8809620158520505 0.747482681013261
Ni 5.996127240219794 5.559254414949372 0.41449933824627583 0.2363982803922187 0.2049426329860987 -0.9594719364334959
Ni 7.892520650085145 8.900227304255822 11.285071252268121 1.3005120586075216 -0.19264710344819724 0.4800673834142377
Ni 0.12885158190386925 4.869973248172075 5.879715673361278 -0.29499166455539516 -0.19543957859166985 -0.5066590178598371
Ni 7.926247195842968 8.977913780444954 2.5629511914746916 0.21831082676288857 -0.6148286702892444 -0.5964812781303083
P 8.5779120400949 1.6259448653594797 3.518830205523262 -0.7241913145854882 0.9502473325114343 0.8056086386217157
P 1.7559797391678673 3.159098560633438 1.849467070235617 0.4113569654217174 -0.2697984531192192 -2.041915366195922
P 4.740701788495635 0.846185491551193 8.348717849983661 0.10981284445978508 1.225659018052373 -0.25814955602638123
P 8.871971893110288 1.587992277085519 12.581550207764106 -3.509981332728439 0.6838103396652804 -0.7780073319646794
P 6.434999483454841 7.94277874710502 1.3401217055319947 -0.7153240940028456 0.2652686835696657 -0.3447322263136321
P 1.8062105713973167 3.2633863840155493 5.9281343058537 0.39868014128499724 0.5863207926575387 -0.010319122537820939
P 7.155607894432411 3.9619557560648735 6.17063553134586 -0.41924665258243926 0.5032865018431784 -0.4693086022358369
P 2.495982504402294 8.65174509257039 10.287863360064419 -0.06804424516343119 -0.6965457849540778 -0.6493002217035527
