# total energy = -340889.6731444891 ev
CRYSTAL
PRIMVEC
9.11815112225557 0.00000000000000 0.00000000000000
0.00000000000000 9.11815112225557 0.00000000000000
0.00000000000000 0.00000000000000 13.34533584425970
PRIMCOORD
 96 1
Ni 6.566372525658565 2.2559855350685423 11.561051208603583 0.4646574766170707 0.5274283891967045 -1.332866306568511
Ni 4.821441110838516 0.4407048508017126 5.6196276257745845 -1.5585299741520449 -1.8782538513467975 -0.051236686687789176
Ni 2.989166928785734 1.6606158736778518 4.3186972732976034 -0.24059406364112115 0.3068534489899876 0.7980236271856062
Ni 3.606082780694323 4.403820682607335 4.900207345358118 -0.8785963438333514 0.7880855421362879 -0.7287874185966029
Ni 3.7608907462520405 2.8241192797952612 2.037792743702457 0.9043541695237458 -0.43495840689074117 1.3670306111550456
Ni 5.133664833104234 4.861187130503147 2.2969862122935885 0.37399909359854944 -0.5259829149994296 0.8323175153714698
Ni 5.068935080041787 4.5899039056666995 11.543648305843337 1.5951504535885561 0.19072983182082634 -1.3894861119450845
Ni 5.786670326176532 8.012684499318569 12.405102934256572 0.1663568022931006 1.1207140432078504 0.09062033069173425
Ni 2.3515437562397565 6.252516654386202 0.12583960022747406 -1.3837283835257008 1.535898609905774 -0.5838533049536525
Ni 2.738691324246301 1.8405808175000138 0.05299742833143595 0.2470583312092261 -0.9630647959910767 0.9097845965106977
Ni 8.09221301125133 8.899014355134206 6.962488706865873 -0.08303634769688925 0.31582608480224317 -0.10186453614698585
Ni 9.034774503513805 2.6744083605767344 1.2573784166370778 -0.3587231412760854 -0.40440701646644545 0.5353795257229812
Ni 7.149086193634595 0.6164727097760586 4.729733484781864 -0.5555801690405722 0.24661610146548496 0.13733753224261508
Ni 0.8320896235199235 7.41710512045775 2.2385598369311084 0.055790367496742634 1.9566141337242562 0.4173599770826876
Ni 7.698381838653325 4.093675898741144 3.7725665384476263 1.159050219783888 -0.31349460845558913 -0.269614105022555
Ni 8.045938395560116 4.3023721359707965 12.929348283376095 -0.1002640244290854 -0.03867684774490758 -1.9407514556603869
Ni 8.165185572704882 7.24113392671889 8.779175409997645 0.10117342361723221 -0.17131491762932433 0.8926363668661852
Ni 7.220426606081501 0.8531206385133783 0.19975041940607577 -0.5773579270372959 -0.468385061980303 0.566642854612637
Ni 2.1327628441422264 6.756276253934604 9.168352678388992 -0.5389708426186652 0.2866828875793837 0.42341466791719984
Ni 0.4185377142092184 5.352318091089512 1.4003665232153821 -1.2248295801725422 -1.7943988644033548 -1.0006607519669797
Ni 6.118042165279992 1.9348442612469614 6.674549355825852 2.299679770968743 0.46090649421507074 0.9173053303677751
Ni 3.5471248171358236 4.287865157928486 -0.015610274298198362 1.0288544407923765 -0.27566005410631883 0.8366814487671203
Ni 6.032048884376775 5.394717492658802 4.778844757210325 -0.23951497164432944 1.6676697038042052 -0.26480819899347946
Ni 5.440755036427261 3.036015987982079 9.096714102408468 -0.6203555136447444 -0.16393328045327252 0.50909616654642
P 0.4164168323156665 6.126239382916722 12.37687769822265 0.24373877991768986 -2.1067117938460167 0.3249984953301306
P 4.382110365373684 6.449796966720209 12.395374779087911 -2.098391961126412 -1.005961595354603 0.40769674296131075
P 2.5531734265411936 8.503979586620687 1.1823433294555743 -0.8830366389928921 0.36145648104684847 0.24922782805671917
P 6.294979883011616 7.81570508596344 5.866596389487448 1.3515944791056336 -0.15062499338014057 -0.37921663324374694
P 4.9654987765144725 1.1443461711287914 12.616493585069819 -0.47729470576510696 0.3267692140773082 0.21520904790911324
P 4.051103252305229 6.274728469917984 8.265193451503153 -0.13053310772627197 1.1024733518301078 -1.1804451405198961
P 4.978136533627382 1.1801531496153712 3.5292942730995347 -0.5842430841929035 -0.8330996449531329 0.10170667041288291
P 0.24738637502294358 5.750380085693571 3.6239789754169127 -0.37300793332987375 0.060254059695051064 0.5110370923228748
Ni 0.7778202131414088 0.24767724403585978 4.619754908001654 0.12454500846363711 0.1590060183549842 -0.07467023512038108
Ni 1.8134087278921682 6.76742775245487 4.840900156621101 0.5116628988323317 -0.597918267687151 -0.631145662281713
Ni 6.003153464253534 5.754009109741867 9.067488605223547 0.8389805292139422 -0.9183126885863669 0.6105737516676323
Ni 8.823534302189998 2.351024021639875 10.345797737194454 -0.5473739790806961 2.108416692352266 -1.5948416640988856
Ni 2.5246518506038313 5.027593383974011 7.021527821967162 -0.8426487220941488 0.9827609888684236 -0.304488805412553
Ni 0.3917786768360159 0.042225244887574065 9.192813941741665 0.9846759465029494 0.39321628995694863 -0.11399525797224884
Ni 1.545180083598885 1.4408410831349339 11.311760051862828 1.0531557365419024 -1.5489006785923969 0.2817062603003987
Ni 4.197741354678842 7.013608707932123 1.283417120091146 1.4836895320023866 0.9245013338955819 0.7180859730186987
Ni 5.847005130517173 8.06086480854268 8.190752867758706 -0.7236285001034828 0.6425942704382869 -0.9802153396284344
Ni 5.336762525696565 3.033481142038797 4.539589037322723 0.8288691518115531 -0.610774811934845 0.11444185859136419
Ni 1.156993046392577 7.405123870207849 7.04474901680082 -0.8953403960609095 0.34525544580695383 -0.026750014400334577
Ni 4.951821550201799 4.6580529653073155 7.077205074840793 1.4540616818336247 0.2655167950247298 -0.025064399167795546
Ni 1.0770177450669358 7.810544212568125 11.40130667616208 0.6171269794051177 0.4419314957744647 -1.0964834527952598
Ni 4.810408148279627 0.5208397197676684 10.511520129349684 -0.2708922004040302 0.009836526474447575 -1.0350073477676498
Ni 8.478959380619369 7.558080851137917 4.778123511476104 -1.2136257410369227 -1.399886995563434 -0.07629414387704925
Ni 7.188111879380091 5.912336681537379 6.915058821458784 0.5570390129742858 0.33606220934345993 -0.18123680472872658
Ni 2.523767389968945 5.425053580620312 2.563599120251801 1.1740680333489586 1.362486443427789 -0.1913607805366059
Ni 2.826116154836912 5.302487396557005 11.18440501495991 -1.2253121762359156 1.3927997496993496 0.9685607861086416
Ni 1.4104502862681727 3.678316771926991 3.4119081105483806 -1.505232805390801 -1.504894448214776 1.27254051309526
Ni 1.6756061137165423 1.1064055453374344 2.3522759437550285 -0.7659084918186164 0.15115875439642354 -0.5314369961354654
Ni 1.0551888918719083 3.5607017437888713 8.285304445073308 -0.6231330763898817 -0.1331756875554416 0.16329076177326715
Ni 3.747496182616495 2.796527755247161 6.774065766291955 -0.11285240261705726 -1.5882670962051615 0.7683947485755799
Ni 4.196008906012569 6.752264267549553 5.942384635931236 0.16740401261069235 1.2833751418169188 0.31372523640915645
Ni 0.6471324920936358 -0.01797825808046595 0.07084347322421272 0.4055131050464307 0.744713088687924 0.44168646964319414
P 0.27742977034136285 5.611227985188428 8.04181881499474 0.08236914642653556 -0.060730228000521226 -0.15374039908067072
P -0.38026245228074457 1.6973711398554439 7.891297292163413 0.176019007973213 -0.1654214349630248 0.09012565044350286
P 1.7930114243845343 3.562060348269264 10.500590201895681 0.5098965509605283 -1.245741647734861 -1.69645191814322
P 4.169374787306356 6.1899843756846575 3.787219406903937 -0.17388319257713278 1.0218006192693887 -0.9340676374277783
P 6.896777840769264 4.250799874621141 10.424108064170298 1.1970729788845642 -1.0525978071559035 -0.09820174258341798
P 6.5747338700110465 7.9340678024733196 10.244426694840353 0.1583321322164112 0.6736873922986656 -0.6864241231390437
P 2.5183512083491264 8.711071029296317 5.7506116867258 0.37599221276917827 0.041506089663586584 -0.8797456269464463
P 7.211208155546759 4.197796063584092 1.4822794316019856 -0.18744447620133523 0.38078089240707325 1.6986401840437906
Ni 5.739210350871554 3.012536749478656 0.30556838394197045 -0.8519322042786037 0.2091939520632849 0.11336559480804992
Ni 1.7097809431964763 1.3262076903329774 6.9663320074597355 -1.1497317705964392 -0.26680851725295984 -0.7900210685961039
Ni 7.096127973351922 1.0779933872105731 9.345498289960567 -0.7685382161319796 -0.7768562490793718 -1.184787990869624
Ni 2.602849112508825 1.8449301754674436 9.0490052015846 1.3556555365488847 -0.36422607337218565 0.8621896203405539
Ni 6.522240675423005 2.2545813398337744 2.486729461114224 1.3530016438658052 0.10804366837450426 -0.165373869554541
Ni 4.497819699978905 7.165608283020304 10.261268831321779 -0.9729350039169372 0.5957675398927352 0.6703914951562131
Ni 8.181944734013344 7.262050964826405 0.11698678754282407 -0.37211421787101073 0.6551353403280911 0.7432313619360749
Ni 7.618607136646936 3.6091647156901123 8.236300766825172 0.5043720215978733 0.3843133310403639 -0.0869595940106954
Ni 3.1434825141961946 8.732899882491346 12.390983477626454 0.9225146424828563 -0.29785664480801605 -0.2328786972747344
Ni 0.11741716426412954 5.169417102685564 10.443819682732125 0.6227052448238437 -0.7822866760663236 -0.8480724642128813
Ni 9.045005068795687 2.46160895545328 5.471067417196497 -0.9076099574568819 -0.5557740302189331 0.22698341483622198
Ni 3.8651568015089905 2.6996200477464294 11.466232469468341 -0.6694741255482664 -0.7476220348046028 -1.16805627993724
Ni 1.1614609403213838 3.533356409314399 12.562791323675738 -0.3784684422238127 0.6139688933921102 -0.09919213152114531
Ni 3.323018904927226 8.663264564258085 7.780917516744698 0.4800285597565023 -0.3567734737488823 0.6254992626292131
Ni 5.704725504261866 7.966956972679863 3.391917476569777 -0.8445063441281778 0.13740515225575692 0.8317351605054385
Ni 3.0775674015199823 8.468282025944609 3.4036880975344634 0.8890640761338946 -0.5986271208287175 0.11307351748892784
Ni 3.4395944638655824 4.436354244929748 9.16536283671704 0.17392715844119078 -1.3956513602155318 -0.16109092590847093
Ni 7.3027908629364235 6.210709932623796 11.369985827906056 -0.2150529819472232 0.013612705687428167 -0.00410862285173486
Ni 7.7801625338522395 -0.08482159851576535 2.4695143922620053 1.1188163119645056 -1.0166136757518105 -0.21185941471059
Ni 5.048045396386896 0.5712320923940838 1.4279379878315575 -0.9562215478169983 -0.5123766370699047 -0.4514386639339516
Ni 6.046254963440206 5.538556322713754 0.16228758472057472 0.13058170157602028 1.4321232298893207 0.44386933622712593
Ni 8.086970074498137 8.9989036979711 11.35598673086749 0.1512705973839395 -0.2647364652152795 0.1081717093119363
Ni 0.3083275363967805 4.8417107602339 5.923073304192828 -0.34630497011739064 0.4581181328366562 -0.5563509857683256
Ni 7.330300324126648 6.390155141846076 2.439420847113773 0.6585320247144659 -1.318477899057323 0.3258107068187809
P 8.600823467065291 1.6342370631961416 3.3642256523620495 1.0718576838267797 1.6656840408327442 -0.025342592529846674
P 1.9713898099544258 3.6346134747825607 1.260660039137032 -0.7326227331822932 -0.3634945945227998 0.49421230745605205
P 4.769495005302982 1.2047903932799344 8.09808327678473 -0.47174215137799397 -0.47902300131012343 0.957288812739248
P 8.690217818244928 1.7605143346656211 12.348972509284447 0.5913575837504976 0.6376197000418309 1.506980384209527
P 6.426007711087031 7.951127862760662 1.193938881923459 -0.580529125676426 -0.6402008305054459 0.402088652745914
P 1.9826871988886943 3.188517061368392 5.691679253989751 -1.1045582593835945 0.5899992699503903 -0.15853653491773342
P 6.849436401425662 3.822812108844952 6.105744515194724 0.879285399480576 1.1350641412819356 -0.9888362485282259
P 2.5503741542225327 8.913557805780016 9.98191057207033 -0.27869472716758453 -0.45947773218834415 0.7579491277622237
