# total energy = -340875.4840787183 ev
CRYSTAL
PRIMVEC
9.22496318450273 0.00000000000000 0.00000000000000

0.00000000000000 9.22496318450273 0.00000000000000

0.00000000000000 0.00000000000000 13.50166609408720

PRIMCOORD
 96 1
Ni 1.9366057449024952 7.410219196590933 3.752923504942909 -0.6984890247233777 -0.5523590910001132 -0.9280535700232146
Ni 6.092322507067899 1.3071127075680546 5.800734335962512 0.226411601493152 -2.017335105753397 1.1285222263983596
Ni 4.076225254461326 1.4007553087870515 4.605067486050509 -1.745370241110478 -1.7428027374936177 0.2792613983043319
Ni -0.21064004171551653 4.130993860848596 2.6744099974051325 1.2986382386235762 0.44268560033166987 1.0949091663296047
Ni 4.179673991538444 7.646904076846653 1.005318959698942 -0.2681094954525705 0.30096665119190746 -0.9208989612563043
Ni 3.5973205160431405 5.491353055879566 12.981433681198013 -1.4231675633579297 -0.33096628287779134 -0.3389557288411711
Ni 5.674385550292541 0.7194216683780097 9.692333022373719 0.4544530252802431 -0.15471381873753354 0.4760371792089221
Ni 0.9858349149708716 4.76657537388046 10.070352640981927 1.8278630575990713 -0.9724665489209511 0.6750588187248954
Ni 6.840522370575727 7.6830751574672504 2.5714870832291545 -0.16280713726862928 -0.10259678632732007 -0.33831063905800446
Ni 6.812386232883092 8.213648914644928 5.224253472026267 0.5772129168189994 -1.0091970715727652 0.02392797157050718
Ni 3.472737388325423 2.2181792959819395 8.95399464450308 0.9561043055128435 -0.20814082820842217 0.8772303167237603
Ni 8.40646909498967 0.9144336999738235 5.942393793018865 1.0923722588403637 0.10171026995730871 -1.1511759592421336
Ni 3.5262606246836747 6.4806012072262655 5.151074606624835 -0.04964208850715967 -0.10066383097066535 0.2676379551327907
Ni 1.7545510965863782 6.920512026291412 9.319511670516265 -0.34739023276176945 -0.8455532973354535 -1.2251856779603805
Ni 0.8664066966769718 7.049504686408173 5.796522217775477 -0.4621102847151848 -1.70743258552444 -1.1168908128070185
Ni 8.473405427808608 6.175439425300897 1.1988061048814467 -1.752158724787221 0.6432786980998212 -0.5264104894551515
Ni 9.26167853136129 5.856301824160989 7.8342473965526676 -0.9197594483352224 -0.39668085146678134 0.08226321697629058
Ni 1.6065826872126505 4.727157106221236 4.210494593515852 -0.027936578509268017 1.8344021442691696 -0.5586724348126507
Ni 6.16265362633631 2.5988750764080613 0.09417672658699802 0.6820895003194317 0.3208754743006925 0.8326399317078952
Ni 8.355113724978228 6.256157853107638 3.7119452960103003 1.273714221688387 0.7356599773467201 0.9094464964449887
Ni 8.050533115733067 1.4232549939779817 8.110815482611777 -1.4594170326082672 -0.6439659539748329 0.4244179123707336
Ni 7.626480008370753 0.7974500969220707 3.6209170493559246 -0.12185434900535141 -0.5985751845448594 0.4761999300390315
Ni 7.513409634699071 8.986294930574227 11.621937020224177 0.14620629548715466 0.09786904183434757 -0.3336273746497222
Ni 0.6335446411621801 3.000963546443764 0.7279676742660285 1.523797455766866 -1.1774667746178624 2.4505292216548638
P 2.327910232983217 -0.2483830560616306 0.7159447797562541 -0.44144889971109136 -0.10809868998215577 -0.938799752796125
P 3.2193091999017915 6.00726834656754 7.725261836576165 -0.8719477281685821 0.28134116365149614 0.1762288099911739
P 7.551361133213006 8.632296193584985 9.099123610210647 -0.3870029620573851 -0.4927642621556158 0.34319599217476376
P 7.883127708943476 4.056068709917586 0.4344588658269999 -0.05464494103838976 0.6692746079429506 0.005345580582629504
P 4.726253059829801 8.469171169709945 5.768924817932432 -0.6978123103713273 -0.4885612798178618 -0.35360150377880395
P 0.8480776173387761 0.9066874983933297 11.499557736209665 0.6302761151925661 1.082415661848284 -0.06907808574458427
P 7.365699524294325 2.953565685635646 5.437795687157555 0.496631458420506 0.44734803880434565 -0.4530129503996069
P 7.507330383964827 6.38430181661203 6.516687418185627 0.7654366943885204 0.8100463626780953 1.0202222190386752
Ni 8.94574199244412 4.372457272030474 5.700416551387977 -1.7400794250251839 1.3536572751719333 -1.4164215028833476
Ni 3.555162434320077 6.03931586864761 10.631657517994189 0.42737648077842527 -0.8069492118100103 -0.4505449484750886
Ni 1.6530303768134433 6.890586245742262 0.5976955117564917 0.502931689606921 1.8804737418162516 -0.2956907475049488
Ni 1.682633283651367 4.686124470005879 6.687753290364213 3.123326498039092 1.2173381568915036 -0.07864978859341938
Ni 0.0512022356226894 8.505683573968126 2.169609864850227 0.20231033756957414 -0.15809996160094708 0.5007249117635892
Ni 1.8489224698964302 2.920051394410287 12.145099441984721 -0.5492575692566541 0.34775481519003976 -0.5702804513652243
Ni 0.745838272934282 5.025012717309698 13.227582451177954 -0.1965253554566809 -0.39435348888518534 -1.845021828766545
Ni 2.5734787527792666 2.5743735742075238 2.713618858400217 -0.6675167447115794 0.8131422279945996 -0.6872319637523197
Ni 4.3892190301247425 8.162810142571448 3.3872302821330273 0.46679303490283475 0.3424616851119005 1.0221795998753622
Ni 8.55522162623352 2.1004318659790555 12.731571863538962 -1.2401836940311093 -1.2364782201550641 -0.5681685472285442
Ni 6.623256037809515 5.231836391758511 5.022308880602252 -0.22791723950440104 -0.985968697172444 -0.8119114409112921
Ni 2.6205352899498013 7.909132880142013 11.970267017340591 0.3550729461180078 0.6340103854240178 0.43412896901091036
Ni 6.993435360212816 4.225263759563692 7.391284959668267 0.3622167562516407 -0.760419186569271 0.48450973545630743
Ni 5.161228523594764 9.394610250755019 12.795204737043889 1.1420225748776398 -0.570859720907462 -0.8226478534921897
Ni 5.851504843308475 3.351013999192858 9.847305023792117 1.4309281811399552 -1.2305379434112291 1.6491055676487727
Ni 0.4228271097559691 8.788493270113412 9.91594797479897 -0.9201042332691509 0.7843458725881975 -0.033088812134168824
Ni 1.6245713654095815 0.355355729072712 5.359027416566626 0.1123312400062646 -1.4729004118066826 0.5266943392441574
Ni 7.913404038093387 6.564031774207313 12.27458102514991 -0.4126851973148376 -0.7820200526684983 1.4590017994477196
Ni 3.2213017919482207 1.002790397291876 11.688662101386342 -0.4763480255811216 -0.2959254892235742 -1.58137422574007
Ni 5.202519458779104 6.243750277633344 6.769937564819924 0.30455051188842386 0.3236286115657975 -0.5038405745744355
Ni 5.83419881238671 2.5848346824512776 3.8274796573468035 2.6082098363302046 -0.23815151563789952 -1.6381205293921788
Ni 6.526532298889095 0.5083508208820846 1.4217789998695156 -0.9218091317753996 -0.4554506133068221 -0.12379270367864488
Ni 0.2656208222558792 9.246549591749513 13.362328720828778 0.016347845230404105 -1.182726223244589 0.11706618358808871
Ni 3.2662273626246576 5.395247389492066 1.822549222667094 -0.9126562616315379 0.028236112027557825 1.1147002329136029
P 3.0764237452390937 3.3330068710695713 4.688534952884267 0.7998251991707193 0.9495770459172873 -0.004534397535243804
P 5.468761121056856 2.3422273758353382 8.012279960923214 0.7300261760997104 -0.36080342084388184 -0.8138567375631209
P 1.263884530116353 6.33713457988336 11.51681302983395 -0.9293776881512769 0.3174088559083308 0.3879879516784737
P 7.1332304522109125 7.948366648537679 0.2212939516896885 -0.03630860462304715 0.48434698462619813 0.08595275001273583
P 9.060795733199052 8.494668967933697 4.39136291156729 0.08573986267098137 -0.39756299696141856 0.5069878619541656
P 3.1067185243153608 3.7945502287869246 10.438259854954508 -0.5816658103840304 0.07669292197736469 -0.8571739122935174
P 0.9900230482536442 5.943302451891889 2.343227361843824 0.9343409456938231 -0.17605834585158064 1.4407767917992607
P 6.248971606792042 5.222574528727888 10.824177887035647 0.7543783796918297 2.017934944120925 0.680600317368415
Ni 8.234700280616925 1.9814482909103313 10.325358298108982 -0.4840255967310374 -0.006566597473924174 0.5102194815175858
Ni 2.37413652346774 0.22441198924382316 2.8273977092439626 -0.24033052556708934 0.620882332682492 -0.23827595703090573
Ni 9.026266696024123 8.22964500079543 7.411483016546309 -0.5973140584442487 1.0539293814831332 0.9777177700175613
Ni 8.141970950752542 4.065902520665241 11.650722595324538 -0.6155205541499464 1.4736879407049845 -0.6566936859541465
Ni 2.6826377420635135 2.4432499475966654 6.490426715507061 -0.5113425393784354 0.7247523292952808 1.0988882055820106
Ni 7.851366160721921 2.360529702780318 1.9526645608026063 -2.2162258761184606 0.2443982678785597 -1.5553736879112503
Ni 1.3136716563875508 2.2510662897112 9.468070477533377 -1.355168055389505 -0.5141383569560177 1.0980438553038443
Ni 4.132294580656683 0.8478977305568068 7.200533016068014 0.5518849795771722 -2.3118063790289476 -0.4395714801827204
Ni 6.758696947187636 4.773853869827834 2.423076798119205 -0.2940483268055194 -0.04769062120774367 0.6217133132242196
Ni 4.8561036415221075 7.896005757539843 8.528394510815831 -0.4506423932849013 -0.009406895136196703 0.10373089993176328
Ni 5.743978672506719 5.218709269156341 0.26796211791043356 0.9306622112906552 -0.7018700253804686 0.5812922290946957
Ni 0.39679979864580484 2.979589306760539 7.3513602415305765 -0.36440373660063047 -1.2505041021205108 0.7250690892047512
Ni 4.771067930948103 3.2995571545864584 1.7437532771866309 -0.42263099567363993 0.24669194900874292 -0.26109012671194387
Ni 3.685022240975561 1.5179953658151502 0.45131656353831845 -0.9644398219617326 0.3998939590874403 0.8451658320890476
Ni 8.549566723805459 6.595765647539334 10.194135964392121 0.07294296801662921 0.09926077997555163 -1.5158550609913377
Ni 4.6996021412088105 4.461376692102379 3.7821140559267796 -1.4925354124287908 2.4515880019366807 0.31514911333987655
Ni 6.520157849333157 6.224470104591505 8.707805284685158 0.8289542553261918 0.014007370022685555 1.0030894160131305
Ni 4.3516918799169915 3.1912099620618677 12.067086695878062 0.39980885557280177 -0.011934803764372994 0.4467271173908951
Ni 5.099513519934526 3.3782368655308797 6.012548715490578 -1.0031835183888336 1.0014603650501397 0.5306574376569635
Ni 4.403194849339282 4.349422538975225 8.392068927468948 -0.34170372389995346 1.1291912274409261 -0.4633356724818537
Ni 5.387516870348975 6.971396923180781 12.337120740518255 0.721007774651184 0.16352627482284096 -1.078112149376924
Ni 2.5972238079992147 7.951641510465838 6.966292751054442 1.0267775036586897 0.8171960863489991 0.8966112923535333
Ni 2.714463865027314 8.934349162919396 9.434424269334576 1.3414681893049092 1.6825399360478184 -0.2282136876988973
Ni 0.9049246079300305 2.4296431269092436 4.800220659582945 -0.5092069810926715 0.8316557134177548 -1.1011939708970517
P 8.561448476378612 4.054159142539758 9.071769749395498 -1.1780972091130097 -1.5063908302546445 -0.33741280983408345
P 5.167898171972396 6.275078252585538 2.3570934039965454 0.48562765111083467 -0.6038055797058633 0.850982695881141
P 4.488147535244684 1.0893205519007019 2.467415661137527 0.9534887222668678 -0.0428075820838295 0.08465460002660259
P 1.751193209989618 0.8404245878863793 7.650854206079435 -0.41252707447041853 -0.4957148601435075 0.793080424247718
P 2.7344820351233854 3.6783987174138195 14.113966728113015 0.403896395378614 -0.48400682767796005 -0.8791658431835763
P 4.543091415932335 8.091759476175161 10.71845980901676 -0.6758525182707844 1.4376331039639563 -0.32371448641138445
P 0.36322277767083644 1.6696998852759326 2.7748624664420647 1.604646308894133 -0.22437297379656843 0.20661590692346352
P 6.395464022057304 1.7772445060040447 11.760599286744027 0.20160148442800765 -0.36455620301809477 -2.209866509559336
