# total energy = -340889.00968591566 ev
CRYSTAL
PRIMVEC
9.05668020222929 0.00000000000000 0.00000000000000

0.00000000000000 9.05668020222929 0.00000000000000

0.00000000000000 0.00000000000000 13.25536693922782

PRIMCOORD
 96 1
Ni 6.348705554166198 2.239680752874954 11.668447270983695 0.40284867084039006 -0.12992324205641495 -0.5895572973169654
Ni 4.85608316965303 0.25739718706826314 6.1154163437578 -0.728041541569514 0.6531406784955655 -0.8423679576289362
Ni 2.8626897744129813 1.749198130699711 4.565267738820076 0.1560047696348152 -1.0377681983422387 0.9619728484784787
Ni 3.3939365135520663 4.098636789258912 4.560906947369711 0.04228744791430136 0.7815042893743444 0.3720944203766688
Ni 3.5911276085651127 2.629924040112228 2.432903210684367 1.0205636615384939 0.8614416864309358 0.22642934210496488
Ni 5.233619934761829 4.31103405009784 2.7564531059372532 0.4246246290649009 -0.6472641651101304 -0.590590623677486
Ni 4.988736362536698 4.947954132212731 11.061802764651613 0.39672481733083936 0.25727126718648596 3.0248972128259
Ni 5.784275139276055 8.215377881963885 12.04759069113568 0.7513393357551899 -0.4475372719970164 0.8601571632915573
Ni 2.000982893132895 6.48701917208928 0.48286414290619534 0.31397591896738186 1.6312754814458874 -1.2944303711898157
Ni 2.540353474288546 1.6661483745214334 13.29897662848511 1.4455392461849104 0.18214286148276373 -0.0007785300372373689
Ni 8.495673073235588 -0.17332855438289113 6.909001594607553 -2.0897214299356075 1.4164562127760252 -0.41933946940656175
Ni 8.627674185154715 2.5229827619275933 1.3162987860334219 0.06999288424936978 0.2222037340593915 0.18266350987292412
Ni 6.874599795388013 0.5752160151772437 4.7835038412956585 0.7354985120681914 0.5627093238861858 -0.10086206302440048
Ni 0.8091428158620819 7.534496674822892 2.317859826515317 0.2424344592839696 0.384059563158345 0.20907928086229152
Ni 7.703702628441077 3.9185628195650524 3.4409343434033133 0.3978226783807084 -1.3568616410418437 0.4976334173224591
Ni 7.8437279588960775 4.139663549944583 12.728691069934198 -0.2990365240487301 -0.47334369153715894 -2.476072360231291
Ni 8.53679040072189 7.335077636514332 8.826523558287308 -1.027459874437695 0.4457848080822839 0.40002714223119495
Ni 6.993378154415069 0.8210143120887434 0.3159522463479836 -0.9823922926750952 -0.8686726569617362 0.16030185434827232
Ni 1.9598474522864677 6.4372979985430705 8.832673949718133 0.6844849971348018 -0.06284650301257565 0.5879845535132068
Ni 0.29509471216275196 4.992087334160031 1.0827405922271502 -0.7314698505247725 0.13085295295953592 0.7483694544935886
Ni 6.743939072118219 1.9019118699230606 6.872602797434108 -0.7207964299713263 0.15736128366270963 0.7930788815858213
Ni 3.2111817665595406 4.397960065343107 -0.02052243702289825 0.633537045332025 0.38874848399358214 -0.057251782533617526
Ni 6.359428663360864 5.746644633614032 4.599692179739773 -0.88514802890894 -0.564197478395938 1.4192384035068524
Ni 5.481347304526761 3.013601234303782 9.227153951888909 -0.3232293192448498 0.061999838741564194 -0.152625311639621
P 0.2722320290115585 5.948355011978547 12.219884066987364 0.3510404279198471 -1.3167017809935067 0.1435439181636431
P 4.23717682418357 6.624436178686118 12.447319945071005 -0.48904567565344803 -1.591796963735291 0.19987575998615253
P 2.5548713324296344 8.665042047094907 1.1500914991841162 -2.0511566822885317 -1.2922768151819228 0.31822543827235517
P 6.63290417454508 7.704291312645176 5.924909984299299 -0.3987202504943133 1.1063883706137978 -1.4345981737923745
P 4.828659542422079 1.0685161705201054 12.657814397428684 -1.2640581866558618 -0.3111983562222447 -0.8593418664791136
P 4.063071206651268 6.077793083439828 7.817127583882858 0.6746070758994576 0.7800747560166694 0.31371778020998875
P 5.039517167650286 0.9967148109801506 3.6696816287600864 -1.28529704142998 0.515120518363629 0.9426985736298991
P 0.2697568383503237 5.61803072003849 3.2768064702964868 0.6219580822451741 0.37253279346566814 0.6701266715306008
Ni 0.7332858749898883 0.08903531603195516 4.68105286508629 -0.06341137437711016 0.26053168310531255 -0.4369885499468926
Ni 1.9459454483896677 6.82229746802383 4.426378116044983 0.26349256550584943 -0.7323936478906226 0.3397049483023698
Ni 6.0076581530314765 5.54644672082005 9.18538635477408 -0.1479281632742678 1.1915451070877994 -2.2088097861600473
Ni 8.923492526054506 2.7355973830880345 10.21546054109851 -0.044095447657317606 -0.7718688231671094 0.03442707132961812
Ni 2.426538175936047 5.2783327642331646 6.690076278779172 0.2868806054124866 -0.3543170417885898 -0.20679871235823094
Ni 0.8402561345507248 0.5746698973694411 9.083889952643357 -0.528470971528606 -1.118889845514918 0.3327768537239688
Ni 1.3140880504300285 1.0065503655286359 11.409543958020945 -0.3192736770312114 0.6060750924663304 -0.42431275425143694
Ni 4.260416265225387 6.8772715160066165 1.4788480798052568 0.38549449583265866 0.1500776055171028 -0.14753375604932656
Ni 5.649031735894352 7.798535125381398 7.822959180175464 -0.6301812414859147 -0.20860182700524077 0.3252129253337818
Ni 5.584267416763396 2.8443771673254705 4.960582766892664 -0.56675289782794 -0.38117581385264676 -1.1875987208455419
Ni 1.0871095346895714 7.4621790845193425 6.88307413092302 0.7135158371495132 -0.6296456806974188 -0.9316063203714794
Ni 5.619751489250472 4.372800608127922 6.906973803941435 -1.4788489160806335 -0.09972306432395082 0.49898504625434703
Ni 0.9004332452297396 7.391700000268595 10.808531801020083 -0.36298140233180715 2.0960895382454807 -0.2398736405353288
Ni 4.838739627332267 0.5629686667279652 10.315697159032462 -1.0686165511816628 0.6531998138682751 -0.13389405377870492
Ni 8.072861964491544 7.508494946361841 4.3540569030694085 1.4402003504705003 -1.1043001206262015 0.5868738369475313
Ni 7.220628370557418 6.004270954687891 6.997309659230446 1.025622307008324 -0.06724463208027127 0.07024150992506613
Ni 2.531586607987502 5.021820414807063 2.2884989754188765 0.47194783963089687 1.3262950811088965 1.396551503432298
Ni 2.451679519791107 5.783469094750442 11.329732870633219 0.5997550637855735 -0.7069314990637762 0.04241446041046889
Ni 1.0774551137423474 3.3851696472510224 3.4731045766553152 -0.13195184245066952 -0.02879969784051169 0.6395187168367568
Ni 1.814161696792054 1.328062507767333 2.299289104046008 -1.895283038914942 -1.414500888821867 1.2802149989213822
Ni 0.9690466533874964 3.6715328141649763 8.015083062693227 0.7076082134158265 -1.0140680265118214 0.6231351332724108
Ni 3.945642292953608 2.718299124167586 6.872005962217953 -0.6518101326096 -0.08652507757643808 -0.3075293920110897
Ni 4.270586916936206 6.85480189277016 5.757959144016816 -0.04401291524584033 0.11409964476059704 -0.691271423929016
Ni 0.38169106425372457 0.35935185721017615 0.6114128483852832 0.5025791913635087 -0.5929562956961852 -0.8949146213774007
P 0.12017580476078718 5.585562522012414 7.693415145557445 1.0351130201075787 0.6253498815355424 0.7761234846784052
P 8.556814720341318 1.8214070408425036 8.048009528730494 0.3750434757026638 0.5279071286053361 -0.6679923987964174
P 2.0446904311172314 3.741722084653706 10.349061062716775 -1.2121231883494674 -0.0610780982582432 -0.13902700412989605
P 4.253161864494874 5.951923343923394 3.549906129258087 -0.9605808532269587 1.6141799594161814 1.1110844905378865
P 6.970084373292875 3.8705443018706984 10.504586901099707 0.5529964674737959 2.549027669543094 0.18283320268156897
P 6.424537136334215 7.930074346617309 9.754067975285823 1.4331210750262156 -0.7432411321280877 2.1685478533162073
P 2.6202786758450674 8.663828451966458 5.6649198697289815 0.3301329883432185 -0.0373766408762453 -0.3644217343227595
P 6.786070747771583 3.9251832526911508 1.2587589805887707 -0.13782372785041425 0.2545363847538261 0.9153842020856622
Ni 4.933925334795048 2.883637875398844 0.4459029259008334 0.9350914507066025 0.5600163504350549 0.7437188430954547
Ni 1.5491088980664847 1.248889010656046 6.90404487360904 1.0938573280263224 -0.4497751601885996 0.0009893604964628122
Ni 6.997553283924141 0.9513951839445889 9.311364774451269 -0.05208052274532322 0.45259077526052377 -1.2194773147216933
Ni 3.2140346207794046 2.2688342059979503 9.316879386941668 -1.278162744378044 -2.177062061434805 -1.3512288682360987
Ni 6.397430492905471 1.9218818494621122 2.3857541342760666 0.8009287166475432 0.9038713163500561 0.34659396211271926
Ni 4.3108619731766415 7.300952066036714 10.295681896093095 -0.5849681352843862 -0.7724912872424566 -1.168842009063329
Ni 8.273023650565273 7.287964786826285 0.1867405918882795 0.1252649173487972 0.673060300237628 0.08681278402018597
Ni 7.578974030612589 3.8701367512678604 8.411272060391902 0.8249932137959146 -0.05221833387476813 -0.7701790941695124
Ni 2.7921472934017926 8.426099656991147 12.164052351402606 1.3358870956727058 -0.6705647875092838 0.005038333754855838
Ni 0.18098688304421626 5.157226838429902 10.067808580362406 0.2868482095126544 -0.649874606149784 -0.01569427080680523
Ni 8.837562745616173 2.4129712692015803 5.8159110284043365 0.049985587889507466 0.404082286137175 -1.0570234470274247
Ni 3.910692564590252 2.913081142283858 11.405473886000603 -0.49610206827959724 -0.9540062853332344 0.8884012457389151
Ni 1.0859321662813732 3.6004288189898777 12.237208590279995 0.05890345920442759 -0.27104980902781706 0.771250215746504
Ni 3.195785410452335 8.3933054184828 7.846408736194744 0.5770882183156771 0.16143982460745745 -0.018647439897858206
Ni 5.696081188821958 7.757816291817872 3.456920289382624 0.7517931354631568 0.013977545226014637 -0.24119570178086203
Ni 3.540781524094552 8.51232830787156 3.4841202166160175 -2.3154547744148126 -0.3617151340248738 0.8997917469640438
Ni 3.6390465027787733 4.6117429982316835 9.28598071157052 -0.2821549178020431 0.20105666766813116 -1.2837579790776343
Ni 7.288915738232906 6.249426227314913 11.021413594242382 0.22580764936056594 0.3378923205736632 1.1302937164764857
Ni 7.7640291743411325 8.843956761740696 2.4850760275236476 0.7654490356836946 0.8034206298314615 -0.32261482558930243
Ni 4.4474185951674885 0.39759006610442976 1.5296823193312168 1.7241714955456755 0.7971067717982917 -0.7820899866744854
Ni 6.225697725549692 5.822104891899464 0.09816716653954048 -1.0293462928271304 0.286917372187693 -0.005677252890435383
Ni 8.163510275242729 -0.06791423245688853 11.033754226496312 -0.3463160258609842 -1.2954510991448465 0.49475481022308343
Ni 0.36449786282200786 5.001605904906309 5.475818201348261 -0.617629372962833 -0.19136386586039947 -0.2655594753372072
Ni 7.30380492025658 6.01130799509689 2.541279066990991 -0.026948503564385846 1.0599655603748843 -2.475193814281079
P 8.568787651384687 1.6374930388019056 3.628643094390334 0.14753555582153943 0.2336279167359331 -1.0065521777507505
P 1.7169563496752107 3.359484902592179 1.274814663004567 0.4127782712492762 -1.4679428106910912 -0.6042614362963594
P 4.9662305125799895 1.231056407611877 8.130126446862278 -0.022834224285696158 -0.5850858918091729 -0.39420359357088236
P 8.411310098448167 1.6706404878327121 12.213614127379705 1.451538915411771 1.0671397095258204 0.8100687312755983
P 6.421702395474478 7.847903088405149 1.1198557727935843 -1.202401075965697 -0.6604996899637979 0.6416187938988951
P 1.8900657324005756 3.228144928317655 6.069897469760851 0.930235922386514 0.17014249458777794 -1.6446899550795804
P 7.338129737695584 4.032622648279254 5.669452738100544 -0.6548499478771883 -0.12761773385168987 0.17319053738548237
P 2.617661295306842 8.84216353908821 9.904277542471737 0.44202225571605813 -0.06554641844224195 1.0786086293973682
