# total energy = -381173.4816147482 ev
CRYSTAL
PRIMVEC
9.23889879512742 0.00000000000000 0.00000000000000

0.00000000000000 9.23889879512742 0.00000000000000

0.00000000000000 0.00000000000000 13.52206226886940

PRIMCOORD
 96 1
Ni 5.041057160800646 4.182190675606635 3.8083395704590774 2.3006117958647088 1.5984149832724408 0.9456319452266102
Ni 6.337625702776479 2.565965483373411 2.1301980519438817 -0.09200615529566734 0.3866700041979986 -0.6551193994884911
Ni 8.367125304076833 9.253034045269672 7.02020846066909 1.1275526633962387 -0.6502458734462737 0.7234312964910121
Ni 0.7592951801712079 2.1214451194760686 6.044172416531343 0.010413482023840131 -1.960838970438881 -0.3904731799941727
Ni 8.44160930402987 5.367790807332415 1.8146333098456564 -1.702401707968752 0.6714430763491791 1.043567835743151
Ni 3.9700101319547585 2.5512479180142957 5.509171823765225 0.7165019163610306 1.2294058866893152 -0.2539830833535174
Ni 3.713436680863744 6.455467853533236 7.8230133095799195 -1.3900021323495544 -0.3501680526172227 0.7241555762515464
Ni 8.23275476384898 3.8398063349641687 5.6876636478154206 2.2791335713862746 0.2659500259074065 -0.0765293998163069
Ni 7.159989299876415 4.212531218380855 11.682818164303246 1.1080372190711305 0.24179399748649322 -1.5425986476337692
Ni 1.0680166701278784 1.045501474409006 8.290065499213489 -0.6648278850255066 0.22941542131648232 0.0040718560765284715
Ni 5.343603370979519 5.757884819986476 9.484753011533886 1.2167681433206463 -0.2373120504557397 0.48076955168758495
Ni 5.078169816197738 7.098753880416141 0.1021277082461988 -0.2681722303697059 -0.19552236811346327 0.5315046161486072
Ni 8.811830445944786 3.1743469516080194 1.3623744445391526 0.2894802478188628 -0.8515151713458432 -1.29511479885135
Ni 0.6104131020214698 3.7074406357174374 7.7452883040223774 0.3143788108327553 -0.41422760210129306 0.4737149588336487
Ni 7.9340704132558635 2.1628908182839726 7.751156852368962 -0.8478631764155526 0.510201998016089 0.06454703064345012
Ni 3.5196692619831906 0.8935123546834548 1.2834816422073534 -0.7487558912987299 0.892304180337747 1.7141773604474413
Ni 4.792309056764981 3.0538070424803516 0.25095897245401905 0.5384674206196856 0.012625402073494387 -0.9057268815015563
Ni 2.179918108275717 7.448261411825637 4.76340331493255 1.4194978278158261 -0.2755919198725447 0.6174856482961172
Ni 6.866534165851572 8.900958100068692 3.6448581848514148 -0.44444911998999587 0.05282819954462514 0.40308572655186065
Ni 3.808523424539835 2.554111976558756 3.1046653311111467 -1.5520510512959205 -0.25254557957604246 -1.0778599241568017
Ni 7.324949833138813 7.833523480548236 0.8579749314858174 -0.7567607638810774 -0.5768689032160194 -0.5618940270737419
Ni 2.7732032163114595 3.6785044055198552 11.714351448877759 -2.170332970241088 -0.8398228226095794 0.3592787566692393
Ni 5.979692295907151 1.8742768670891212 11.750428423749579 0.4789895769690267 0.17630002954874155 -0.1837346314499158
Ni 3.2814812189679063 4.397161366614727 9.245953353435882 -0.4176728803374162 0.03803432906490224 1.4184007380969057
P 5.315138324606994 0.05484856890612608 2.2444998567837438 0.29356470230088155 -0.899971724185334 0.17660779059714746
Ni 0.31543170195938564 6.033481163151826 4.932307010087773 -0.4648670215247156 -0.6827901259308822 -0.8031372942630878
P 7.027503494948786 2.8856498503263937 -0.0881067558362847 0.5620832602664125 -0.6352157185860285 0.5177492142357277
Ni 5.061530559944274 2.145115177511256 7.770885596291031 0.8017632967336966 1.3340042768276963 -2.2510586675269297
P 1.5239563126089408 7.138185499344392 2.7106457104714696 -0.49996772188259053 -0.9655194281791565 0.09319349073554918
P 8.911102410655202 4.008591772218201 9.954684965839418 0.23446301104271877 -0.9993967976528917 0.11080426183877692
P 7.525350781164279 4.065503387166192 3.6370291422366536 -0.2469457168907618 -0.23153066788727222 -1.2570663287190609
Ni 6.0968600070711805 3.9568631793458318 6.032327224725365 -1.6777975362668267 0.04749238915400853 1.107354591181809
Ni 6.907055974806424 8.332885946122733 10.44289885255714 -0.14037477640704213 0.2499816755036082 0.8413480010048542
Ni 3.4305138911636917 5.275318671940461 13.231554126660889 0.04798269852686575 0.5095278547671999 0.3092782563813964
Ni 4.240026180407677 7.792512009971268 9.783130630695789 1.757150521574858 1.4392017340026568 -0.6437468959854913
Ni 1.3249689160586444 5.57782792652521 8.818142461420836 0.9659079218668267 1.1046724163639556 0.4906752408370711
Ni 6.2281539940883714 3.2436386905869043 9.566466449587052 -0.6323545949881497 0.920094720187454 -0.21472722317668824
Ni 0.8160053871312334 5.474804969011405 11.082235250318249 0.8983316174787496 0.21198925542023492 -1.9143323422369096
Ni 5.589330355195706 0.5311738409947763 0.2856953831490605 1.7192228932911489 0.8809820704567084 -0.26396564848752607
Ni 2.4670907912998077 3.1747165075492405 0.984572786379946 0.7000913362134911 0.9792149233883781 -0.8650314606647231
Ni 9.12227591436725 5.287569451391928 12.947387781218628 -1.5037425939985198 -1.292163172422194 3.9578986137726933
Ni 2.9569833858805232 5.288992241765627 3.6351628847334894 -0.9586409558917683 0.4043872189721036 -1.175966278812936
Ni 0.9820117637072865 -0.002865906324166677 2.228746610899358 -0.2897011055804172 -0.3054280293973708 -0.7039778157520908
Ni 2.8410167315254617 2.6957073354374748 7.753442555865413 -1.132859677431449 -0.0599828083115354 -0.8887228907443919
Ni 0.32319330061487384 8.074594059905042 0.2927936288900575 -0.2830938846765447 -0.5359207429384318 0.39263187820838835
Ni 1.3881999376015095 5.272436135598939 1.3210691769889127 1.252608035837391 0.5333792074635008 0.8633080502157131
Ni 6.024371609200736 6.4784357552801035 2.2597800710633678 0.49710994071882136 0.3201241979569648 0.9469270098889497
Ni 4.593340138011746 4.799053452692259 1.670542524473845 -1.1646644806468716 0.39696855791052926 0.315197964299941
Ni 4.952594707370936 8.749273863994647 11.920982186182352 -0.17108686077891827 -0.36699103771183245 -1.3899651084640319
Ni 4.073605901177457 5.324201684065431 5.701522919501051 -0.46901241115165676 -0.2812218644648124 0.8055675009711352
Ni 7.0097463319731315 5.991111574490872 4.664597914597924 0.10608114533149472 -0.5010326728119952 -0.2590211599980571
Ni 6.115993765927883 6.08507117254624 7.325455200888433 0.3598703675066512 0.05402607650746825 -1.5237622316535564
Ni 4.056606327881304 2.308283364458734 10.024485768127334 -1.4060550720473592 0.3026522664244465 1.1953536822006123
Ni 6.590586744542061 8.161033194556568 8.275082777466547 -0.35083911054231837 -0.07616944537372689 -1.063340390384388
Ni 9.013571034257176 6.402436575968062 7.396757324187558 -1.5109306271065268 1.4873186441145418 -1.733077539786054
Ni 3.075481498432947 6.228468116638409 10.844720723005839 -0.5275127213803947 -0.9036113778204502 0.948440875430315
P 9.187410149007402 8.458303993674516 8.847511995959499 -0.8605109470865503 -1.0304001880129414 0.6490850203689531
Ni 7.942182166165659 1.8954801392166603 10.201097476326568 1.2987223136969503 -0.5344050776248538 0.6745623387044511
P 7.893751860068684 1.598717479517892 5.5719279659236225 1.1020725168472632 -0.49139386417065045 0.19681666144485457
Ni 4.264629367194446 0.4213750752986884 3.996648648087801 0.741933726170574 -0.5850910340154956 1.3558866787230843
P 3.020038868351308 0.8164405392520208 6.023118814559998 -0.48595675231547925 -1.609072462986287 1.87593188808184
P 4.66475682365265 4.342208398155206 7.667590091270574 0.5286602047212767 -0.14121398447888583 -0.5000034602165323
P 1.6211772418455812 6.491102285165444 12.992456976030203 1.0803225267646812 0.8949765849635877 -0.6960873572604206
Ni 3.651693121984292 1.4643654170870997 12.533288338512724 -0.775426972832013 -0.24091288043312056 -1.266884343250747
Ni 3.4724030571010602 0.4836156869190819 8.445514586438719 -0.16779507740152394 -0.5061818211131025 -1.1981379298139687
Ni 4.94978608221766 7.111706816155928 4.448920447852247 0.44417426906205437 -0.4025573648522164 -2.2448995899040693
Ni 1.917348612038396 8.129029650046855 9.646679490518864 -0.36333724300932907 -0.5630047436394175 0.5169112917154647
Ni 1.782469932391364 8.122747199046103 7.383654718291577 0.05436777611760315 -0.2764108162294143 -2.1243583032831865
Ni 0.8674346396912147 8.698681655641531 11.667943537669114 0.2840498208319108 0.4553634529096544 -0.2565140773054872
Ni 0.09367781165018704 3.0784287070641825 12.29344745655033 -0.5921484550829094 -0.3819078069226649 -0.5408891426873007
Ni 5.670216911830391 0.8977058907264569 9.382661334991957 2.0223778103836265 -2.234140551615352 1.4524909949123952
Ni 9.055903667324008 8.500405654278085 4.921895695333732 0.182485332423847 0.1160246296974518 -0.44311805988339814
Ni 7.8321376457686585 9.24000719834164 12.36887382415348 -0.13797208050282045 0.9149828528821855 0.41951224753900007
Ni 4.809142329887584 4.391645744192008 11.380275649683787 1.2332440294884826 0.22646970842459707 0.3231663272173983
Ni 8.300475890077676 1.6592599815883764 3.269309894043802 1.4735519293477526 0.3845586142819506 1.9519046440637287
Ni 1.9574731483564358 0.4410493097194264 4.225374211228129 -0.7660352472044678 1.5507773267898193 0.19185906032926311
Ni 2.7607214643967297 8.374359361626228 0.15647737663167688 -0.3049662592696038 -1.1395116355303279 -1.2645335836303835
Ni 8.137252269739015 0.7452890099989425 1.2445803360547543 -0.2840922440340721 -0.13394496162129835 -1.3921137793759186
Ni 1.8964687013594255 4.027355975133684 5.577255114816318 0.4328012513384224 0.783167021788748 -0.056572497078405795
Ni 7.73496291102467 4.548088013009268 8.241615791429599 -0.9815386864255482 -1.0147897351691941 -0.7753765792100518
Ni 1.3935677376477404 2.1980448271925934 10.350962573279954 0.16684634033500942 0.05813315669730633 0.06471878033462403
Ni 7.953592205850848 6.85187203388364 11.974407964714777 -1.3605102935380247 0.5977035805731835 -0.18205595819591228
Ni 8.489004853491426 7.372326904803309 2.926498716289226 0.9543076186237371 0.1337611277452664 -0.35165286469286533
Ni 0.5939826448747967 3.8219105885105553 3.512031464568011 -0.008435275251546763 0.27842578977691407 0.08973869941772933
Ni 4.302573523459284 7.986889196154834 6.257320272859364 -1.0689654498806491 1.9257081881740186 1.3125250239079975
Ni 6.142934394042873 0.3361296063373051 6.291977229027043 -0.4604100141946264 0.32846459950186013 -0.4901839030229494
Ni 6.605627671349744 5.084526178386734 0.23426705447893217 -0.26752816902780374 0.3878959061852997 0.4331578633468927
Ni 3.7015924129476194 7.602144505749944 2.3839120639397007 0.07553566844446992 -0.16713096145496378 -0.10382988740347279
P 1.726583835180261 5.952927206864241 6.583526378285039 1.3161379380702365 0.04679844841077747 0.04204447866555985
Ni 7.9537769838214585 6.389280384460605 9.451190864842074 0.2457663518706799 1.0587262886511446 1.6759136889805524
P 1.3879135317470632 2.1048058632226057 2.369497534452387 -0.24868172574526204 -0.5541190111140134 0.7843592423246363
Ni 6.241772130522355 2.1638331859340854 4.493827038049684 -1.226203063481301 -0.2632570524562756 -0.602059543549034
P 5.579223000203319 6.542544472183367 11.543135257420346 0.4992745524703079 0.2491807768688676 0.30164439398522247
P 3.1987284048300566 0.32765291693555487 10.628922226689411 -0.09582167238701562 0.5237198299968657 1.177171611974947
P 7.274911958697527 7.5875562849702565 6.076746924970243 -0.453243064132542 0.2389632129059175 -0.07476793704050994
Ni 1.4353737534983342 1.431105382377235 13.28131483414626 -0.7373736176037171 -1.0241554926548104 0.39241127755715005
