# total energy = -381169.67941624485 ev
CRYSTAL
PRIMVEC
9.18842195335186 0.00000000000000 0.00000000000000

0.00000000000000 9.18842195335186 0.00000000000000

0.00000000000000 0.00000000000000 13.44818430865141

PRIMCOORD
 96 1
Ni 1.8151359934761802 7.751720255212683 8.10854251259605 1.6744044514248777 2.8030488052233986 0.68645291949445
Ni 6.11984733661467 6.20756920053354 8.44490858629422 -0.5000170870632872 -0.5304895446205316 0.3038545142626638
Ni 1.8513751294661271 5.524042495084211 9.211764171150046 -0.5683217849769567 0.14939266363493625 -1.4778914372633707
Ni 7.777043545980506 8.852732098298732 5.181423700280272 -0.8207292963132381 0.08271881645647045 0.95585285162367
Ni 6.026107056348585 1.5985373239297758 4.139794790276329 -0.47599347045518026 0.47867358839050456 -1.0090512900235202
Ni 6.442112858058739 3.6497606298110514 1.003031106111202 0.3900402062218122 -0.8027827391371464 0.45417791724198553
Ni 3.6944623023747156 0.819637555641996 3.5024316353156135 -0.40844416265029654 0.16304496431104823 3.715855476389871
Ni 1.7843180264096787 8.437397051387581 10.55710717877359 1.053810596517082 0.5983250162072663 -0.8377302017466087
Ni 1.9506008976089864 1.9309192978903083 8.589745680769253 -0.870605612318391 -1.8957766907219094 2.1665547341455786
Ni 8.907825876035986 7.456560578385841 10.92978313931037 1.3113973380614576 -1.3523539829794773 0.24121344239267486
Ni 2.3441777614511228 2.5069598439049514 0.6509436425350408 -0.7757717577659413 0.3154825854198954 0.48520933262649335
Ni 5.8363753324499 4.217357016095786 9.870617207260175 0.17797098949326126 0.28492065347263834 -1.5898562950691522
Ni 6.747728959012498 1.823056413157553 12.60137852464219 0.6030149654837679 0.2927236944568249 -0.6435990575537174
Ni 1.2668812352996708 1.3213318235036327 2.665255219942986 0.12427632818328274 0.21769221934228314 -0.1426103506057802
Ni 5.501301150871453 4.396788519039925 3.0813290159752307 0.40512409713812814 0.3352991059251903 0.014330814800375319
Ni 9.198161631363151 0.34685281961737 8.40884035495169 -0.6471582356598855 -0.5516890615162822 1.1581919855486507
Ni 5.079047222266481 8.036230551052622 11.708163761760565 -1.0833890815051472 -1.2444296137916568 -0.9947451578134933
Ni 8.693992921482728 5.3506845390187125 1.6132847410859283 0.22765652964384664 -0.22253386370530062 -0.99237511491942
Ni 2.9850058703118907 8.211949931547485 13.162235203460234 -0.6814611227068135 -1.1499078911629872 -2.606350671634279
Ni 8.422181024714318 0.9324869969421308 0.5446262503665626 -0.45864392343313914 -1.8430374513466645 1.1265669024442018
Ni 6.017341301852031 7.139863240615684 4.93805180698957 1.8665298780416502 -0.08205444339959417 -1.9941938917502429
Ni 0.8973109613664934 9.072767237637287 4.421251773517519 0.9205981421864339 -1.083860621824927 -0.5595761775738427
Ni 0.579436586750415 7.224653997947132 0.08828970839254614 -1.0709572834996974 0.20234196213845795 -0.4925518890344936
Ni 0.393529084048235 7.6089229904003695 6.253002271480774 -1.4366496570047644 0.14185161806288474 0.5450581864633258
P 4.514611653116773 3.254336893166182 4.669142532700679 -0.313330314963583 -0.9625857994721294 0.35171739938221364
Ni 6.277787120725014 4.109439000831605 7.547430395649071 0.7347462072831992 -1.4739651056257712 -0.11002007537458472
P 2.736091520928609 5.3171835527562 3.044574409516461 -0.07105012186929055 1.6742383581606588 -0.60430257394694
Ni 8.737187692854112 1.9543589621677815 4.734097324825459 0.06264878517947274 0.3709765047221417 -0.4463692198308442
P 6.033274025433818 6.464165070628686 2.699763257246192 0.3839721456508613 0.5472256264282899 -0.43223792263578464
P 4.691084484207776 2.5054253774469597 10.892545221859441 0.2935451619168557 -1.3785751214595354 0.2546286873573163
P 1.555002580947938 9.077416579120785 1.0826974805467084 -2.8038764433310166 -0.38172088772283935 -0.18046958754539888
Ni 3.1988388248651476 3.66234876781973 9.89425993566173 -0.7993963391634168 -1.023815078596256 -0.9042464403012879
Ni 6.986857639067865 1.6102801271232727 8.627050673700081 1.067441557036955 0.754474538950062 0.7705873853515245
Ni 2.7826492547169104 4.326800309396054 12.02102217685917 1.2852204225557737 -1.327804061554255 2.1838389751473226
Ni 6.002814406821579 0.5743057719591406 10.567515823106605 -0.3742315213243297 1.754838071391597 0.6301724997351663
Ni 4.641292425909216 2.3954032135667296 1.965721364694447 0.8595020462060616 -0.38228447353579326 0.5230487720717701
Ni 6.50108414983954 5.923821543711646 0.2955180252811037 -0.7914367179967079 0.5331750618724946 -0.29276586054867004
Ni 6.725594050645412 3.758156443014247 5.30840217794241 0.273219048764994 -0.06645221808596298 -1.3926714516516014
Ni 4.714910062205225 2.6051013782631216 8.435199180868109 -0.03617105060391835 -1.0366528537908728 -0.17151726344811752
Ni 5.219354424742771 0.29076577347228 7.8095760725743215 0.98972790710456 -0.9872732749164804 0.5386589678052013
Ni 1.7591325619704181 6.183366897238023 11.460206845939695 -0.1763393674271092 2.6332588088790323 0.7234865752089799
Ni 6.877919708972326 6.559228483648968 11.044590633318276 -1.6512498676852851 -2.751584061685203 0.8892322262806427
Ni 2.032148142008271 2.199910349134146 5.065608236389479 -0.739856789036887 -0.5330508775898046 -0.3609582012541912
Ni 4.744469215470858 7.382143549384172 0.9845871868230124 -0.7333840368283499 -2.528257269764962 1.0750746481021807
Ni 6.9251206322939165 8.035697622582182 9.377136469738653 0.5893793769782043 2.2125962497856735 -0.8395238033119219
Ni 4.474357176754714 2.1462867189015573 13.208685432712258 0.2821055526213464 1.4570318202055423 -1.208541898756112
Ni 7.931675498205358 5.740135801425888 3.878953869261467 -0.09010868116263837 0.5583119661494385 0.1889424009031004
Ni 0.7739049421406867 4.163200457392756 10.860067825797051 -0.426052362650363 -0.7614692251003402 -1.0271117470696567
Ni 2.930573658951737 3.1312120396506424 3.0677999835635683 0.37975913601077826 0.21688952093532968 -0.21717208517275502
Ni 3.8175687790464474 0.6020943163238456 9.595628873039502 -0.9810105818362201 -0.20787343347964846 1.1095855373948569
Ni 4.985104796718504 9.018886331591382 5.590060387623301 0.23821450766535104 1.238695539521357 -2.2657203833041626
Ni 7.860400909494907 4.369894008126493 12.805737297370083 0.8840463112043291 -0.0063773642812535326 -0.38345381125354605
Ni 9.12243065802919 7.613360998180071 2.4108425188922644 3.3056835324151903 0.33082024421823025 2.1749635270345635
Ni 3.985101275624719 5.842246734046649 10.115441790053922 1.1357472833918891 1.16716436425059 1.3976925590152767
Ni 8.007167572569811 0.6818222531861097 3.0709598818564032 -0.40308289833838323 -0.9445325415148442 -2.2638355075766237
Ni 7.793573516986062 3.0964981816967834 10.750384714685085 -0.621424064118575 -0.6754460268609851 -0.5891022120574176
P 3.793816708424233 7.623100725398465 8.954218218230011 0.23008827901379084 0.6653680737996928 0.11282463470291537
Ni 3.8104753173364476 7.034223953983732 4.62551682434199 -2.6784945407883805 0.4082922104534646 -1.1637489108111376
P 0.6392412683979221 4.953763089603467 12.929003652582947 1.7798968141324378 0.5310449029033694 1.2622985236522777
Ni 3.500614165462974 0.2595867014249456 1.4927216195972641 1.050205652774643 1.2363877173237867 -0.5997854028028766
P 0.7683487034152504 1.7475000198397705 10.601970567562768 1.1057985595485988 0.5414982370262093 -1.028571362334319
P 4.3695356596722315 6.124184271753426 12.512540267461967 -0.10799815984854948 -0.6401324391613556 0.21362756235460628
P 2.7638497435010305 -0.06619890445060132 5.866730203052433 -0.23634531566709618 -0.22514841851001224 -0.7611072137752312
Ni 9.034681228844608 6.91890007066481 8.589866049096198 -2.08357675049045 -1.0400541661629379 -0.027339311244901302
Ni 0.8017256459820562 9.482635173515472 12.500476788344015 -0.6086248554713777 -1.818914590156532 -0.6092216085151121
Ni 5.725370007425927 4.059628565689237 12.058516451281223 -1.1025183461354302 0.6909271532157197 1.7517452913988862
Ni 4.0218090211317765 1.765472573084278 6.272649874038407 -0.11146580668217577 1.1412872393735118 0.490473152128594
Ni 2.266746930064895 3.496617201934671 7.221446319860395 -0.6119063544361267 1.2061176055853358 -0.6538891266258158
Ni 6.621553549424782 1.729040480234344 6.333395450088898 0.20644827099734767 -0.7733770322815197 1.2643106689863
Ni 7.3483025915112075 7.794308590738394 1.4987593316304775 -2.442508922453548 0.4002359158078913 -2.008473541597709
Ni 5.6251151360298035 8.62028340096768 2.84294643577848 -0.3022714860462601 0.9867382283486166 1.1681503823129429
Ni 7.2706788032649925 5.839756671710625 6.295539151843822 1.4442575512590095 0.1319778105925985 0.7898403200438656
Ni 0.9604289879526349 4.076893610447125 3.4466082968791723 -2.70194017340583 0.10970820056112074 -0.012603547696623455
Ni 2.7558925701320414 1.3049764325142552 12.085076503637344 0.33785966756351493 0.22491187701917395 -2.3049975836372303
Ni 8.867314123860611 3.266649378517736 6.504994742201944 0.24259181079744027 0.9431040365984337 -0.7408947433830981
Ni 0.12997849741384132 2.5288099111930076 12.511719741385928 0.6636030114794701 0.4610844145538317 0.9567064578732168
Ni 1.198032389971914 6.502600239453724 4.425219334095729 0.06587603386751881 -0.7417033553273227 -0.6466990366352798
Ni 8.94745553970856 3.404870809221785 8.639477095483246 0.12946250036991255 0.31728904250101486 1.5893891256247465
Ni 4.055852124286633 4.483021858610323 0.6221976646079238 1.950177634070293 -0.8771074179926507 0.5946694217325501
Ni 8.946729654378133 2.7927289535457573 1.622846212919381 -0.5459639861070468 1.768032458594684 0.7761525381441279
Ni 2.5968501753931994 4.453012472671386 5.121970016349502 0.39759539286125073 0.6340818620919015 -0.2027790496758766
Ni 2.3272251230379757 7.614316594058103 2.602318205268356 0.5887270881061861 0.1783941930736089 0.32788687262151917
Ni 7.444082701440012 8.381044459849463 12.460656924338023 -0.34473402608584497 0.5325806228216053 0.691497423896893
Ni 2.4538507652989945 5.966924430863989 0.8591376625657239 -1.3493604475687921 0.11681138726480526 -0.18081642936185632
Ni 2.356536188912197 6.157960910673062 6.721550226165399 0.29813149573595754 -0.9563099937657465 -0.8930251176641717
Ni 5.3102462942185715 0.08916812152658238 0.10735200847488485 1.4304435281940526 0.639353394903486 -0.0620052380582029
Ni 0.822124861451448 0.8158748968722488 6.513883621552013 0.6815616528404197 0.8775810151949596 -0.429875335940879
Ni 4.024730939297295 4.827560114750039 7.8669053933608515 0.4647783184656511 0.8325666552677984 0.1480952849797514
P 8.192369404469753 5.2523132941129385 9.886324814505311 -0.11977535498913568 -0.44078684064706025 -0.29804176423562867
Ni 8.358312304058607 0.36946828245004154 10.495984877425029 -0.42251401047980136 1.4630831686059447 1.0488859055219548
P 7.876499024670968 3.6120054042069207 3.5088736379126093 0.628104304352228 -0.29102728059100846 -1.483862310134825
Ni 4.848454586160064 5.217792393019066 5.547255205340653 0.36564635075847995 -0.9489378696713915 1.00191262209621
P 7.147076151810437 7.892532820893702 7.196244316261706 -0.02276994670666401 0.5406651996019527 -0.41123843756598205
P 6.415585884021473 1.396437984148112 1.4368578521044446 1.3910303165037525 -0.6299871231972376 0.5008506387081761
P 0.28883528603021924 5.4215364603215725 6.5560299939841356 0.41248542259920573 -0.6248456882056141 0.10541882915714748
Ni 4.626159095033089 7.249572998151172 6.868350886401348 -0.7816390151799958 -0.8973669395726351 2.089840472011975
