# total energy = -340870.9773406152 ev
CRYSTAL
PRIMVEC
9.21047397378634 0.00000000000000 0.00000000000000
0.00000000000000 9.21047397378634 0.00000000000000
0.00000000000000 0.00000000000000 13.48045966961250
PRIMCOORD
 96 1
Ni 3.8326070851473992 8.628537622607306 5.053514331290603 -0.9441417338343288 -0.8612449970390975 -2.24980345496359
Ni 6.786756023361462 1.8286750950614978 0.9534028510075466 0.971688790214662 -0.6030676730985743 -1.5094985226456907
Ni 6.654401515189259 6.745677310317063 1.9406062986810886 -0.16501211533974808 -0.7754069182273549 0.3752566201547344
Ni 5.478343750054666 1.6146697368582175 12.363104740685241 -0.2880273174224201 -0.6520456456591739 1.3472840246557376
Ni 8.065492150159502 3.23451575997898 8.568247703359317 -0.2652404014348915 -0.7634435752178916 -0.28596117892201073
Ni 4.284832137113092 5.6169613803950735 8.335412452566805 0.9997706360525427 -0.36740652798269624 0.176101026164058
Ni 3.3637571280146346 1.4191221681035866 2.9387941573808076 -2.4524171827061956 -0.2716856428396031 2.2499402376517703
Ni 3.348928265234033 2.945988458447844 12.325885216153308 1.5575136170723887 -0.39673253064032316 0.0453912836506057
Ni 8.878767774174628 7.949633600521495 4.145618589119327 0.279643464234099 -0.8306606964943372 -0.11153908312227241
Ni 7.228232452429663 9.197615955378895 2.687450459533874 0.22003577987379522 -1.8110089621562102 0.6470512777683759
Ni 0.5430163761728376 8.554890674288243 12.936994624957816 -0.021875459916852646 0.8770505966127862 -1.47938576242071
Ni 6.34942430749281 3.7146761789096203 11.801292550676148 -0.6097630828408789 -0.33858806108910716 -1.0816276187293503
Ni 2.355219459931958 7.845785508688399 11.449142980484584 0.8307535133184596 0.6514285809004653 0.1480037537072096
Ni 5.088363079872394 8.174387581622268 13.356452495415267 0.5653804429604457 -0.860900469215485 -1.8813147496603084
Ni 2.6448428078425303 0.6589992672068298 8.027182105532399 0.7488168264436523 0.023773448270513895 -0.28902670522121193
Ni 6.337404639214123 4.063559715099939 1.7548190689877021 0.6731911693885374 0.9220351317432764 -1.3608730761940822
Ni 5.53732762412111 1.7716530519095068 2.754569945087339 0.551924574565856 1.6398909910290405 1.0559656951868717
Ni -0.09258368240410479 7.5487385189137495 1.427756066221932 1.333852067520548 -0.7812026989735256 2.9060536256224148
Ni 0.6668097489695318 6.231576295519021 12.522591462509057 -0.013322685250835119 -1.1299869838693444 1.3624635606096536
Ni 7.533403080075425 5.738604107564893 5.600928708691849 0.2310380445215698 0.02478646291606054 -0.5416337341628091
Ni 3.607696525992422 3.2237118742388278 8.561048797055392 -1.6583623103603502 -0.7020626010072489 -1.4172925926343913
Ni 5.981382985846806 5.890613766776725 10.29366509795681 0.9690840056019633 1.487807153715186 0.12386032369178669
Ni 4.104914742357642 7.639185371401643 1.9095605547217256 -0.3307423397924433 -1.3717629836337084 0.9353974119827954
Ni 1.0176284057003504 6.294566725678359 10.306755023288357 -0.5819977398021525 0.32827305231634435 -1.7201055530064182
P 2.841182477341963 0.43597593412871266 12.731458297392278 0.9663910321508326 -1.0254320453743888 0.6806111160016923
P 0.5764918431145128 1.6648576084678441 7.071943607101142 -0.9535990225924867 0.4470099387386366 -0.15308605332612343
P 5.270159411278306 5.0247739689175654 3.4304529317743686 -2.041273618846865 2.2620635032778655 -0.4222463586407115
P 7.9384244539351645 7.238760023956512 10.350215564851428 0.2515011974719282 0.2506427061263748 0.10556898158176659
P 1.7922384608005908 8.64795330132874 3.5582620711377353 0.04486677860570337 -0.07231844705875287 1.1756109523560463
P 1.1157660037918482 3.989369348828047 13.139902283307466 1.073065845202268 0.5090416591594008 0.34681481987427365
P 1.6055789992405443 8.637674412593864 9.475833052564314 -0.6510205468287692 -0.2982127425958541 0.2635308749429526
P 4.656078703633411 2.420383561902615 10.43282430415529 -0.6583371350948405 -0.5207021262164646 1.0749396651862133
Ni 4.17346829867815 3.1762410923933486 4.597160223930783 -2.0911710178979406 0.9666761674914192 -1.8587664320461474
Ni 8.470531944966794 3.157368831624744 5.6422736044283965 -0.24576969430478962 -0.11921973959598178 -0.3486724419083027
Ni 1.963166433149912 6.932520981352644 7.904172544054108 -0.8599738436361576 0.02383335497417186 1.3248148970189442
Ni 4.1529934154723875 0.7448012777690979 0.946809072830756 0.44130491793405935 0.7685839817682505 -0.8278815910873033
Ni 5.969344896620566 7.135179035862942 4.0966308422428135 -0.2533896727438926 0.6164093845128029 1.1896520038301448
Ni 2.7943472181870814 5.232009628894919 6.398661658208673 -0.48349903480360606 -1.4244826826249273 1.1687450784741487
Ni -0.08903028162102643 2.6414901953877856 1.0456383775028895 -0.5258425327668235 -0.82194054301252 -0.1885747331510365
Ni 6.340324359401359 8.635417846518553 9.166887972764831 1.35631399606849 -0.9500809821368993 -0.18394829012261868
Ni 8.804632670745397 8.175907309795436 8.391275818117679 0.5778212398269598 -0.9234165854718355 -1.10033008023486
Ni 8.653728268386775 0.4245632360719154 10.063297333089094 1.3951605366220423 0.14596718289315508 1.1263195623200861
Ni 4.9878676004940425 1.2655559388234794 8.611816007465578 0.49812835468100664 1.1679392947434015 1.4050124897154577
Ni 8.274634378208647 4.801189717986444 10.398260159213201 -0.44696340177141736 -1.166936307400184 3.9448716053854054
Ni 2.0911091243830415 5.809635281331352 2.611933785038126 -1.6310579661184428 0.53098242509655 -0.3077366229258894
Ni 0.9128647927738431 5.094405150669956 4.9016437502327985 -0.6208509652239242 0.5423204758171886 0.10666427152847437
Ni 1.2723072161018527 2.0929972715072798 9.156467242733793 -2.325336038084266 1.5316840576037942 -0.8964583117154367
Ni 6.738787875932037 3.82530317944242 4.080076857723823 1.4673776822162403 -2.1239199301941873 1.4270159905697424
Ni 3.498994514478967 6.234459173811151 4.470227921670966 1.3240361098713906 -0.2134964360933807 -1.5976745055619903
Ni 8.095168296668259 1.408760385104719 12.454488298356232 -0.052612226879077136 0.1668406839080546 -0.6666518256081229
Ni 1.8644301542629238 0.010804806787530374 1.3442631214355005 0.21403431087472172 -0.5092208650497424 0.20249699965908352
Ni 1.8748564105782288 0.4873105097235473 5.828087544495736 -0.4872682720380511 -0.292975919676947 -1.5198901502926596
Ni 0.8268002837089371 1.3550541125123658 3.153739904956696 -0.5347498625587823 0.14643332389629618 0.6936520083460506
Ni 9.056041762956145 5.053261964309119 1.2201298821564435 -0.8380729297980083 0.19232674399430102 -1.256774508510255
Ni 2.0138793017648147 2.8667231211249504 5.530668451580504 -0.003797776479535395 0.1662112778541718 -0.15976860755262162
Ni 6.268408980152329 7.040172998855547 7.3605602502279135 -0.1157880882066135 0.8315744665578582 -0.06906625867004235
P 4.040644056343332 7.233537685325083 7.044605078836929 -1.0614611710838042 0.8683633532514334 -2.3444791866716206
P 7.752289989380395 1.973629531360324 3.091473418036212 0.9869459734840486 2.027864801640127 0.8687970983547425
P 2.3461563537356147 4.938131042099478 9.115581028591327 -1.060203387417303 0.1484333850454605 -0.825269864496069
P 8.798341917155861 2.7645421250454496 10.59041090523896 -0.051460886883453315 -1.6790985144664372 0.33263107217472393
P 4.347610726375565 7.006435033411234 11.072984468299113 0.46828993116333545 -0.3815707352982203 0.9046668156681581
P 5.052248812193675 9.003947323274726 3.219309267773531 -0.14388124689840381 0.16433617231864603 0.47272996921256005
P 2.1382759605938872 3.641056862011887 3.212420754435884 1.434263416160775 -0.7550746344279061 0.4199369937812445
P 4.075874118539482 2.044734388916998 6.697307586230971 -1.0190066014640193 0.6766716717379702 -0.3872317902387396
Ni 4.009558707346729 4.509144015472579 10.477296155739053 0.060201094969928585 0.663364927326735 1.421008608033398
Ni 1.5813370322600824 3.8971909272701195 10.93979733329749 -1.116931950457599 -0.24453273657389502 0.23633297437192202
Ni 1.8105673036163656 7.248919176532291 5.603988428080492 -1.3502132824873907 1.30625950261426 -0.8103590088225077
Ni 9.235986789132925 3.668973808029281 3.240163622498897 -1.4732904481562497 0.2986017505041567 0.1231895228770072
Ni 1.2883610718947651 1.8103738836670535 12.696463102277436 -2.1120740865991947 0.215702442605764 -0.5325729095121214
Ni 4.762284676753361 9.261684010970116 10.772342630609389 -1.2762202759396923 -0.13785818063277547 1.0831432840429283
Ni 4.963929579148214 0.034700459953985754 6.799503319068514 1.5768706814427615 -1.8126179585145428 0.6651096779319835
Ni 8.497177845602994 0.738528024079739 5.412485178361241 0.5738977364028374 0.3860573103146641 -1.5878233237995234
Ni 7.51439266220017 0.7789251620646578 7.415020860622584 -0.14974593320929694 -0.05501517989361493 1.7004098743497038
Ni 6.780861320144329 1.6027329628435218 10.31443840051294 -0.6107545002198708 1.2768944191885814 -0.32012651194980996
Ni 5.008968795916626 4.865699876318949 5.726647070507888 1.6175951557453174 1.1274063676263615 0.579515339699931
Ni 3.9597576756357267 4.88717870116638 1.5664289594050003 0.32125856867172414 -0.24111419781064924 -0.20340022819964323
Ni 3.1657319418140526 5.27562122222793 12.517738463876077 -0.6702446851657038 1.508377264557054 0.4794194654175936
Ni 2.3996507854311027 2.7459185470688183 1.094249416001933 0.48037128780790167 0.5708795184018038 1.2318502344647495
Ni 0.6273548424519767 3.9310670498210847 7.278544665435276 1.8871984621345947 1.4553050673224226 0.7005227673239548
Ni 8.261693662552283 5.918908342218966 8.65170472729802 -1.1328704760647266 -0.2441529846369731 -2.9479530940696774
Ni 2.4768529766279994 1.1771906534091359 10.744168712373622 1.4457799014408068 -0.9718764807454359 -0.45383493208027
Ni 6.82441765063468 8.575908975446835 11.621585154722807 0.7274501878424181 -0.06362657571170977 0.27968203078151826
Ni 7.553684543331876 7.069084676040832 13.385840354094812 -0.35993901596105754 0.04680539038931294 -1.8386650333105818
Ni 6.330119154456697 2.6918714869467246 6.8495023759657165 0.14195214819649102 2.297017650755547 1.6554016850701296
Ni 5.546648623583202 1.6634299850324448 5.1749728489848845 1.1916993732774765 -2.9999546839479496 -1.962630000901033
Ni 3.8219874088827823 7.947561243921721 9.068682217167385 0.3125656688834165 0.31620815073201025 0.6296202267761222
Ni 5.825744399966925 3.8149321859697753 9.183738534539433 1.6671025184468256 -0.6619865589219696 -0.4316715086093534
Ni 5.53210528548968 5.7346067619457735 13.27251007950853 -0.23450157759013807 -0.07857008439541951 -0.5658406704263159
P 2.700345122821354 6.824233441159145 0.5066709256023205 -1.0077605962365548 -0.4325330852787002 0.2648868747502148
P 6.341448037202126 4.941842863031517 7.393977691184794 1.0113475422568647 -1.8098388531075087 0.8261820918976933
P 8.672637371050488 5.993227655123733 3.147430730419608 -0.08430621554824835 -0.21257700960290485 0.5467831395742325
P 7.561771339307881 4.939006037108271 12.868123307292008 0.954637234049014 1.3999394460679244 1.1401166161041782
P 0.07722061214445032 6.185864714164905 6.829389464379382 1.6536116830492424 0.1765093173460702 -1.0568992627447347
P 8.231676728513786 0.13018544159777348 0.8101376155993802 0.12685591598500087 0.8200767503309038 -1.7291478657143444
P 4.78565164872503 2.8842690736696994 0.7123481734166442 -0.461858830826011 0.3538701840591583 -0.34919951805636634
P 6.938627525466644 8.410249394097827 5.773222594302265 0.34541074043789544 0.4350283408967282 -0.33833403609677215
