# total energy = -340892.07071952114 ev
CRYSTAL
PRIMVEC
9.05285657375435 0.00000000000000 0.00000000000000

0.00000000000000 9.05285657375435 0.00000000000000

0.00000000000000 0.00000000000000 13.24977067245744

PRIMCOORD
 96 1
Ni 6.401836290510951 2.0363495990841325 11.640891068774534 -0.43020880802089784 -0.38699010654157867 0.20573736097325213
Ni 4.743189981072893 0.29705048350576924 5.936904199575753 -0.27457736256510135 1.6622727011583498 -0.3340150970064441
Ni 2.6266773353990485 1.4380010316818663 4.775190924425799 0.1659063450192433 -0.243505066640329 0.39658906308392344
Ni 3.2367765108728506 4.124001737414329 4.649675781336879 -1.0060387284494416 0.7044817519717028 0.09542263717638404
Ni 5.170086494340483 4.6409198582808004 2.733082803158074 -0.22291027320811288 -0.9424322073423897 -0.16967583936400457
Ni 7.193879781101642 5.981430675538656 2.48127125544204 1.5060347324668062 -1.8811139465034121 0.9812571506293875
Ni 4.998960343049084 4.357574494620561 11.821352525954508 0.0461081072119722 -0.03651712108942743 -1.2208651962081556
Ni 5.750247872516466 7.706941384989318 12.174790538347159 -0.9753793516923717 0.4036200017887759 1.033074649521311
Ni 1.885999754051727 6.555544745400476 0.3976612176541703 0.3967566990100393 0.23122702060392433 0.5405672405715077
Ni 2.8430949290493785 1.3783698642186888 0.4258780668823437 -0.7241650893332431 0.8209820357539925 -0.044776789995058366
Ni 0.44275259187875526 0.07459191854100479 4.703019739781812 0.2763863907493821 -0.42306782610074234 0.6470613050707049
Ni 8.537830683927435 2.2199234284174127 1.4517242572409117 0.4580314866601209 0.5418049696333508 -1.225958551570663
Ni 6.926005749640366 0.663059292792207 4.504074159673904 -0.6733850305668984 -0.10764797559798235 1.0074883164117745
Ni 0.8680892979269866 7.356966995592175 2.6733665388413734 0.014966391501845193 0.7779116869270796 -0.5082780415204988
Ni 7.469267683671834 3.715636421929818 4.0743178489565475 0.687240705503068 0.35213931741098065 -0.7555968254799633
Ni 7.84325930204724 3.6937647200031383 12.719501834745543 -0.23119668158662116 0.7569232576008706 -0.12988853216373758
Ni 7.678687419048439 9.034316507091706 6.938719581670924 0.9829232254779007 0.09833518283748871 -0.5274854676868851
Ni 6.952584937081065 0.28790800346613615 0.3226184668466304 -1.029095096048273 1.4480563561798092 -0.5173951733304186
Ni 1.9237230081611945 6.447996807118625 9.081008426391058 1.4881321411547728 0.7199700774152891 0.3159844647569784
Ni 0.25339127122025734 4.802947888530681 1.2941764858004339 -0.6381421482042042 -0.48065822292070126 -0.1085504328075937
Ni 6.270814294656303 2.021837869701489 7.091661259593068 0.527903271950594 0.6521952838631607 -0.39227989418560827
Ni 3.52004039882227 4.460098097401871 0.5961134170687823 -0.6810566881795431 0.5008771210707375 -0.5117881115562863
Ni 6.293147692277627 5.730729913346797 4.8034792912223585 -0.8697941721606892 -1.1937737393080021 0.28898351068810235
Ni 5.331698093179506 2.8887484856786187 9.485299051048914 -0.06318074642354281 0.49198650344932693 0.023530736132088507
P 0.12550246908945967 5.833090564706468 12.605023934615648 0.5784185070913265 -1.2301317091117459 -1.0735299293228802
P 4.073378162425095 6.27226275173754 12.388986560949142 -1.0208331131497967 -1.0799227202231014 1.5753647863211966
P 2.427903759569537 8.525147631609853 1.424601898394748 0.4941698842538908 -0.957362346289661 0.2642384425329385
P 6.448666718518697 7.7995158981938815 5.4696247028832765 1.0459823587219146 0.3489043554134507 2.3694073173718677
P 4.773960641192423 1.055173825110915 12.83864376667702 0.7610393366517731 -0.7314335979701984 -1.5869674035571313
P 4.159380301623544 6.275856735870359 8.023557807805574 -0.8814973195302304 0.8789110468602928 0.6191910610229981
P 4.570579161273227 1.1994673089723982 3.898003505457292 1.0109289666622072 -0.2710179273486171 -0.19105301948819997
P 0.0996737634739758 5.445211864064702 3.395757349538077 0.6830210109947656 -0.43637199940881627 1.3752067192079347
Ni 1.5637090006197265 1.0478591168506681 2.644614665778818 -0.32224355829281276 0.5019446431033033 -0.5416833564538219
Ni 1.774124550239681 6.302979094716523 5.004266222394789 0.6453456079311789 1.175752620140233 -0.756650206445142
Ni 6.161573472160756 5.909415200030902 9.016416293424642 -0.35168114682763946 0.6009688815880166 1.0937567978927163
Ni 8.363680878478954 2.354964892672494 10.224861320443683 1.0391100570821137 1.0703515315948986 1.3598654608651743
Ni 2.391692332538611 5.116149573777919 7.0381724554400105 1.4173417007047717 1.0748800155928713 -0.595841073443148
Ni 0.5055368693506508 9.132974540037464 9.210366507173637 0.45653047663456214 1.3632549461626975 0.5867668790560218
Ni 1.3916322993687655 1.1229072993722624 11.48983057448665 0.1725729584061415 -0.46358249838533705 -1.2609965170114024
Ni 4.1200456390112015 6.846105235896627 1.5594849376565691 -0.935466574657834 0.13767511808769192 -0.4017335833993404
Ni 5.678793674127691 8.226656838593929 7.884992066414707 -0.817621603922192 -0.8630162300069072 0.6120804181201459
Ni 5.201590435857388 3.258639159942772 5.114133502577971 0.6502217050765575 -1.35017214483681 -0.3531893559420498
Ni 0.6553046156935342 7.735439778062657 7.199342274869257 0.6083278930562491 -0.8072137783253066 -1.4650346359053608
Ni 4.995610786048722 4.44756894364917 7.438090550283883 0.4987155946430443 -0.6006302673016752 -0.5904114177871445
Ni 8.435642036846161 7.2545701328054735 9.15612178948131 -2.1907701550495178 -0.7518761820952665 -0.1428566622886314
Ni 4.627648370273966 0.4376703180949648 10.508049164396338 0.15436877669328897 -0.3443856416074908 0.3615680669240483
Ni 8.309671535062327 7.075984427545704 4.508923775039021 0.05917368214667874 0.5422983643300016 0.5619873581184968
Ni 7.617562530220235 6.149324956967545 6.860982700692283 -0.9107050514424381 0.6859065600726767 0.33316226208784555
Ni 2.2914591025170075 5.329796993260382 2.593616302519813 -0.45952786869998924 -0.6837625171464805 -0.05313416082081817
Ni 2.1224784782771904 5.265060014585844 11.620075835231482 0.6903049462506885 -0.2579695788050912 -0.5110280934618103
Ni 0.9772015698565734 3.3728409479415555 3.7695733424923823 -0.12206492235426074 -0.37233661829446196 -1.2633359637778565
Ni 3.6499488932957176 2.6930619340034943 2.5219086241418216 -0.32173422275656205 0.035591781061680636 0.7147900758762464
Ni 1.0627058019333477 3.5752628250444327 7.942164477982485 -1.1765895142192317 -1.7692856142754947 1.4368831131718094
Ni 3.3942147427465597 2.7384257992164867 7.0843347826190355 0.5300380589054098 -0.1584691720149077 -0.3789142715119797
Ni 4.428983428725548 7.066551350804147 5.86813779435835 -1.6123344215670101 -1.595390337513504 0.008362770142398501
Ni 0.8233247318313557 7.274758003375215 11.053833224320513 0.39952037779810545 0.30299370892426525 1.11146347114386
P 0.2951231303020482 5.6569672364848005 8.023001057114973 -0.30770474124668945 -0.7392222407766817 -1.466332785891494
P 8.552586840442537 1.7528865482860425 8.203661677143616 -0.2803978259016203 0.09169530892346789 -1.7387599348828122
P 1.9365509061869 3.428398329863754 10.290355117943168 -1.6132098821934282 -0.7569086023128512 0.19081647799736168
P 3.9379836367564622 6.053935005311328 3.7218213336667003 0.10682805079984828 0.49774834563376863 1.6377598036186505
P 6.852134438497275 4.133552501293737 10.719700428963725 0.39295686564797483 0.17716289176966907 -1.2257788314596891
P 6.37550153020271 7.963001438381755 10.14648892892065 -0.27336354476265823 -0.5779775628991659 -1.270034973064587
P 2.338153737673387 8.43624857824893 5.739893214956973 -0.42907906529182877 -0.09747257772687729 0.5852167609600825
P 7.00460265201099 3.822360550246715 1.6683319608831544 -0.19819888650436188 1.350337723880397 -0.8828072965909053
Ni 5.20868787555545 2.8622869853757695 0.6857683839689765 0.6752151417971016 -0.12821654377795338 -0.8191519245237893
Ni 1.4209363966935424 1.0203927494477105 7.190756545520224 -0.41558308768792296 1.348172340797962 -1.2416661921139067
Ni 6.769979763420863 0.9074221499679787 9.243173154777978 0.03195135609561594 -0.853228297382208 0.21359645200635471
Ni 2.8671936337384603 1.5890841581116482 9.226954961896501 -1.8929225091025657 0.2661785969784448 0.6343142898176817
Ni 6.1729800716754974 2.1935071923983522 2.8015314531032818 0.34147181039480545 -0.7257013234721115 -0.20072525247064138
Ni 4.056060047447555 6.983183592922198 10.394909276495238 0.11969462234987127 0.29513333233958206 -1.3480216741527107
Ni 7.912486497673614 7.179485738856848 0.38622564899780376 1.0405393333294723 -0.15407181427816047 -0.4681068686182519
Ni 7.493284912650096 3.9874303403671916 8.343712087042748 0.5828811708483703 -0.6951638170048866 0.1522026222799056
Ni 3.00363829079099 8.323015445923224 12.355914664641798 0.8876106315168197 0.07617613024194622 -0.1670566565736026
Ni 0.13900752080064357 4.927832047503587 10.05969013832752 0.014495879623329875 -1.121906520854055 0.7238920381775146
Ni 8.562716987154438 2.2292750294481496 5.686178994670649 0.09766258225049632 -0.0791364984218508 0.9975990823225205
Ni 3.6388863023377698 2.603583497810076 11.368356626654379 -0.47902582952360084 -0.5754491400503573 0.9444780341278249
Ni 1.2037674159323206 3.1139020861001603 12.638611843758182 0.15682880819800732 0.9633437606840763 0.31356557090284065
Ni 3.038093463610916 8.409316329394677 7.846766378755185 1.0493710726884897 -0.5519312594340753 0.611346882388231
Ni 5.6021974531005245 7.670729957958393 3.5240544355086483 -0.7371059657646273 0.8120304829876596 -0.27448891661635305
Ni 3.1780958933692345 8.161648274216658 3.7296909820461956 -0.28788924918265907 0.5080219596456348 -0.592835710957921
Ni 3.575815049306654 4.575766448195407 9.639871148473127 0.6757059653905911 0.5941107210156026 -0.7886005340994934
Ni 7.521394032882853 6.289055801023132 11.20828582403552 -0.6000255438381408 -1.3233344558186757 0.7000085466916977
Ni 0.6361143699384948 8.831324300013092 0.18328051677432966 -0.45262214271909146 0.06408731739821222 0.3631534091332972
Ni 4.7685198742810275 0.3324163737155233 1.6962491605526469 -0.1703733796516614 -0.5969013963868623 0.4799203163134122
Ni 5.993000226475036 5.425884014886945 0.28703530807469085 0.4912835638450313 0.8017208735315354 1.1796342145828265
Ni 8.016884041803774 8.682259960640284 11.371575822517428 0.14561674153227178 1.3663335850880212 0.035814438595448
Ni 9.180320980880401 4.712609430945276 5.66641027136879 -0.22919019267955365 -0.06856926442896578 0.5432429876314581
Ni 7.900192718196614 8.821284681868766 2.3551332758081878 0.2826706810961971 -0.4729791091088887 0.719158123036955
P 8.56235487288413 1.5776051357428447 3.4007391366118562 -0.37543145516970183 -0.01737114428859589 2.1388153592487806
P 1.8258254151830857 3.2046026579558724 1.5198279933436503 0.06626504177582135 -0.19138726289916716 -0.18200530746363494
P 4.625973591773786 1.2148390597470264 8.218448613371693 0.993698975937166 -1.1018909969640764 -0.8324990352546566
P 8.52172565175543 1.531562306273022 12.538615798583631 -0.0821832556679746 -0.15354319546820008 -0.5856247950317786
P 6.148247667013376 7.408061319132813 1.481681970823597 -0.22388960640224667 2.318599747801697 -1.5735089640593802
P 1.6557856067026142 3.036645006529679 5.846885307833899 -0.3873297492691845 0.5409552200385457 0.6245345847230986
P 6.841642177515065 4.063764028548384 6.237700755207872 0.7283899260478681 0.25608341752597186 -0.610331039529207
P 2.358622246802618 8.576196690866702 10.157817673867276 1.0510651725614608 0.1922915198809914 0.17238912453010954
