# total energy = -340888.60111447005 ev
CRYSTAL
PRIMVEC
9.10226976429491 0.00000000000000 0.00000000000000

0.00000000000000 9.10226976429491 0.00000000000000

0.00000000000000 0.00000000000000 13.32209187157838

PRIMCOORD
 96 1
Ni 6.543020964785088 2.1985531302264856 11.361426690284475 -0.5660034212564252 -0.18589152989191857 1.3136318838189314
Ni 4.636332113704879 0.629183472909756 5.758394390653046 0.05018227728134583 -0.7868326435657932 1.2191124751831068
Ni 2.732819954763201 1.6588613529259717 4.692946411020769 0.14811893912883523 0.05415823120995834 -1.134177110691292
Ni 3.570829520454173 4.433806612036248 4.623751866700105 0.43061864186480675 -0.5357176257886902 -0.37829823519453554
Ni 3.7682031374511427 2.573530234349672 2.3705996816777044 -0.3612410226019327 -0.03748694120186447 1.4416396540201881
Ni 5.402215293992604 4.394848897557967 2.8336093875711446 0.012041504545566357 0.21531009226335177 -0.9758308374074935
Ni 4.762717129015841 5.118087944123557 11.03900518140104 1.0935179424090327 -1.4104426595920936 0.5146574626842814
Ni 5.995464826431015 8.089669536382033 12.191059437135642 -1.4947529889053999 0.650006503741958 1.4666780850460546
Ni 2.2396862871721277 6.325713377062082 0.40842612495607994 -0.38836641806381506 1.4023665674521784 -1.3956719290408222
Ni 3.0232551775606242 1.8191068116619824 -0.04903756798604849 -1.996783249743974 -1.0659364332463384 1.1764892411959416
Ni 8.100319191975395 9.191654026742304 7.058057424046509 -0.257837166992285 -0.040538069323362444 0.6658537551868597
Ni 8.857136511604155 2.4437773792356796 1.2837349715790838 -0.6010683832803584 0.5184732368859457 0.24290651382438166
Ni 6.975524413651903 0.5198779565350182 5.004217639475255 -0.3552598653178333 1.3239142395815457 -1.3806194055830738
Ni 0.915533597048802 7.2564295600337285 2.237378861793566 -0.3512224620236661 0.9845196234307433 0.4353206753261664
Ni 7.923189022875548 3.9804407609301298 3.5136354085559782 -0.3925881694546465 -0.9112910058528951 0.24115430701996532
Ni 8.187009208959305 3.896463220328117 12.592361215567854 -1.094170231281051 1.4446673851029184 0.9267075975182815
Ni 8.312702451770187 7.325761548627434 8.952619321154893 0.178134511654319 0.8323362844245472 0.06479437076756583
Ni 6.762622324482049 0.942940531229667 0.3927702210068645 0.4428977163424759 -0.5412969196486807 -1.791987940969017
Ni 2.092557199128454 6.429670399738821 8.791887801214878 0.16036973147173025 0.8552985496476754 0.03934456323589353
Ni 0.4340390017716016 4.933794288739972 1.2646511528465691 -0.504595193352273 -0.3996661593473504 0.24842821497355924
Ni 6.702510935132852 2.152905247490837 7.132101657683534 -1.5983666465330086 0.1337978945204728 0.28092155961557425
Ni 3.817082325943751 4.494382217142079 13.433864232384238 -0.6857240117482254 -0.12901204309605524 -0.2917057947152718
Ni 5.896368415794324 5.804599332296655 4.765205689562189 0.8390278375121099 0.4479393925314415 0.4760942576991027
Ni 5.514155007229495 3.155756918135467 9.217315145587436 0.09975160356904111 -0.5685156461553177 1.6062347364271758
P 0.48359084799784235 5.83436375433964 12.347633950486351 -0.7842116610031784 0.00881322741625579 1.1887114942937462
P 4.13832873180402 6.46758135319724 12.498200055583062 -0.29476103660182784 0.3948412271548813 -0.37343730755780846
P 2.5355373604636107 8.478928101724009 1.355056716337498 0.13528604903022506 -0.17065440122718997 -0.7271730229216316
P 6.455775709347164 7.812023002566381 5.847652157930025 -0.3270942015168947 -1.1772353753333467 0.8267888722437567
P 4.777899714938685 1.1086564540781652 12.563651746587494 2.1013173623033228 -0.551840756602798 -1.085112234843841
P 4.185524000395114 6.29453810320972 7.795328529640069 -0.5980871891648474 -0.9038294073685273 0.6996575911101821
P 5.024525713487519 1.1195518709544505 3.7212336051495485 -0.4849337103676035 -0.28057343224753617 -0.8231304495555629
P 0.23923040438677648 5.6075989083589395 3.4281468911774713 0.8882230682898381 -0.42082813813694625 0.15317887015024587
Ni 0.24688268255544243 -0.04004452548498752 4.83177604951741 -0.5206807860602258 1.135545194683412 -0.7255313735531504
Ni 1.858446821469255 6.501450898892026 4.704816680985984 -0.43081918791138707 0.03043491945108952 -1.2821214719154759
Ni 6.183244651124222 5.831105141773467 9.364537987009411 -0.2650583673310725 0.34079741003560016 -1.4376307899711112
Ni 8.816786149855973 2.9955387662086697 10.612805054327731 0.8973211739363642 -1.4866990082526719 -1.2704939149788765
Ni 2.5674135090857924 5.326620943819211 6.602442402088151 -0.30305258718665873 -0.4183130850245763 1.4075709944712531
Ni 0.9467088709011642 0.18717452375563504 8.767481885366603 -0.8919732793608897 -1.0723940159462242 0.44444269223209265
Ni 1.4188344999371276 1.176568488592756 11.228045670452948 -0.09068306560886963 0.6364519049859749 0.3735694622602986
Ni 4.498541954412306 6.519482495242838 1.317259541250802 1.1757153391443944 2.1616698952494513 1.3118714494843988
Ni 5.4954316383786015 7.99437787449579 8.033088007237199 0.6224517340521409 0.7931105061547051 -0.24027576106975396
Ni 5.71683524748367 2.846143213000255 4.898133416360765 -0.8184369007346356 -0.07779232568913054 -0.3596482241935161
Ni 0.66111059424247 7.535951161415389 6.76995420275594 0.3739885520755882 -1.012527678607895 0.27799795821087603
Ni 5.420938662843497 4.310407141199321 7.261712517389615 -0.33015175739629593 1.3883746240484605 -0.9678010251244816
Ni 0.9453435304404768 7.69152715577585 11.280654058857182 -0.5706391202562237 0.08329962866060493 -0.32572328931129707
Ni 4.765502423555644 0.6372125850455715 10.315068900973527 -0.1542458779621795 -0.5341119718644672 0.08769235841166188
Ni 8.222244095114778 7.118393639458232 4.475689796008295 -0.3768800146907703 0.13366445426640208 0.8300300048888737
Ni 7.257785798224678 5.964043791295729 7.041751618038006 -0.20872318307445345 1.1091942154937091 -0.28551637807510827
Ni 2.8825522919519186 5.180729764459895 2.3214547069087486 -0.8503766868660257 -0.9523317258442888 1.23495432731137
Ni 2.3003711195148133 5.533733989435752 11.163659855234824 2.608092851136366 -0.2530654566352545 0.8599869562622802
Ni 1.3712751405565167 3.506685825611079 3.5000065800773963 -0.6363976547092717 0.23295223082514718 0.26570345711423915
Ni 1.2555397808389153 0.8211639950870105 2.4397013828470406 1.6771997547818276 0.9090978548563182 1.1127266541269998
Ni 1.1190967574675548 3.6973965811598943 8.34371934612911 1.058545540098906 -0.4698220515371456 -0.5429455109956971
Ni 3.767001637845738 2.725001105058331 6.7556062949680635 -0.6556133084057741 0.24195340588249298 0.11415338081666793
Ni 4.052585350872851 7.159044376107765 5.631728115207181 0.4355865273930434 0.4892837598061831 1.3543715276301385
Ni 0.5863181540329883 0.3785515654492659 0.15443730041624648 1.2869176077525386 -1.3006277582497794 0.058526792591299205
P 0.061038910635490704 5.501703102228025 7.999010019565415 0.35958934593112263 2.0342221113167223 -0.9616265208826535
P 8.940649836449534 1.9564509597373965 8.171158516437698 -1.567170423435862 -0.5943611464635119 -0.09019969821454787
P 1.9764759531608116 3.301438745290812 10.429079380575793 0.37453465438704525 0.5761081137905949 0.15113767135050102
P 4.248338763856472 6.407260611644071 3.58127164429751 -0.7010976659908184 -1.6068967954912068 -0.6034505103592898
P 6.94273803805593 4.274280232609533 10.757069658084884 -0.4671046526059826 0.8406494322759328 -0.2621208819693034
P 6.389565799273563 7.983755525711642 10.112533386808186 0.39410537743012125 0.8176969372448175 -1.3525043925144127
P 2.159240427228426 8.63362117591989 5.370241751084227 1.217553101115787 0.01470105365560049 2.2001510820437846
P 7.161911591075209 4.146020149732559 1.2364477700636365 -0.26165628362805904 -0.43091123340456106 1.2023159724510584
Ni 5.218431365714343 2.8132749169766407 0.5906226173920487 0.8648149737785428 0.6188177368439794 -1.4137514122503523
Ni 1.401795050987749 1.2934325297578593 6.6391973672898565 0.40901340489020527 0.7351663255397533 0.8739120509838046
Ni 7.006362903523963 1.1837956907646614 9.282660340035935 0.6552569535076199 -1.008588491454489 -1.0408797473880267
Ni 2.8091697933248403 1.7347469757309772 9.124353664754102 0.6581779838091569 0.07650034635058438 -0.5012339901895239
Ni 6.518572268269046 2.1545345537739236 2.3147135659408478 0.9752672515945396 -0.05888957524735664 2.5373702878098237
Ni 4.120615714894035 7.244951597894216 10.35186482638905 0.2325855915143478 0.6828078665426951 -0.8686711142998395
Ni 8.312201826934603 7.446230088608752 0.3057379586808071 -0.08165592240959485 -0.46345497166853733 -0.7316076616542174
Ni 7.709495036238496 3.8958351637162005 8.614064949387979 0.2599344158409459 0.037676174394535106 -0.5120447076517827
Ni 3.018349054171887 8.44952777047054 12.360236953165469 0.6867082300383657 0.4619485623263399 0.8042459539462343
Ni 0.40817308185736584 5.336860997274368 10.121672065625054 -2.2263436812787534 -0.5346583312862405 0.037452231309187116
Ni 8.433507775731808 2.289375577671411 5.798800276246629 1.600056889751238 1.561587530031446 -1.440925658672299
Ni 3.993174836293474 2.9729469327191627 11.458491474315661 -0.13718043783946052 -0.6177219326766394 -0.8535813098462525
Ni 1.5600016013024665 3.6576469692144156 12.683537741305583 -0.22835664103466477 0.22595548779233993 -0.7010588423330829
Ni 2.988784882063136 8.557899393970168 7.462222776538271 0.2863100776209972 -0.06742769462535485 0.44998213399308307
Ni 6.062157156800725 7.941457278239546 3.4505812554005124 -1.136844630221126 0.5386857072780787 -0.4054228593254695
Ni 3.25593649887097 8.30601228351282 3.6460834457393667 0.7794335228882447 1.3981152483749921 -2.2451423020424945
Ni 3.563320147920392 4.3356750419917764 9.05775690821664 -0.9241992292741309 0.7376767506664329 -0.2475445268170253
Ni 7.549777509147284 6.573122170808377 11.262909184003114 1.2305181459168872 -1.6979950942606241 0.7902606954107357
Ni 8.20358444215205 9.180731303056806 2.1732196930919176 -1.2779038342897022 -1.354446860952764 0.4671496469113052
Ni 4.720628233747719 9.416389066571451 1.5844894375783816 -1.2372312962710046 -0.12751231862207715 0.2836168470595502
Ni 6.1507586504296 5.562251400524642 13.3098885878729 0.7052266005575274 0.3854567006161878 -0.8329546347348364
Ni 8.158418979712511 9.178637781017084 11.05596362014975 0.0573181169951787 -0.44914523991408456 0.3397589414687568
Ni 0.0595980213359786 5.024507508948043 5.739969576249556 0.7302244081534457 -0.7605701103248385 -0.23478157072440212
Ni 7.415182246532721 6.175598744544372 2.3999745265759067 -0.48066799311271413 -0.4918060120074046 -1.2165724823700725
P 8.491907938370277 1.6578965123337526 3.632308070718005 0.16747420372699542 0.5580425145381357 -0.5550551497750376
P 1.8934268440720663 2.950009212979614 1.4222669658552958 -0.1264630514219564 0.6428621793876927 0.3365669168940204
P 4.885524952319804 1.3943220875329199 8.11563194035549 -0.3576623041117389 -1.0998721667618347 -0.11504375384142122
P 8.484853679323392 1.7065663486223892 12.464122067911276 -0.10002748293824709 0.5708844034978104 -0.8894607973516809
P 6.383740346641297 8.04010767765908 1.2133107106168277 1.0964615984183892 -1.3741559093459172 0.31748058968653065
P 1.8361189538021474 3.4398569611953 5.783306392698749 -0.07549504501452159 -0.6984702556703003 -0.212883227989414
P 7.047040946982709 4.292575794782744 5.665991789181618 1.078140431511698 -1.3823412733701872 0.9429597977110857
P 2.5612330679337476 8.751632103071971 10.129985168576692 0.09384680804883193 0.04666680792891963 -0.6129152553166154
