# total energy = -381175.3291821329 ev
CRYSTAL
PRIMVEC
9.13821061838062 0.00000000000000 0.00000000000000
0.00000000000000 9.13821061838062 0.00000000000000
0.00000000000000 0.00000000000000 13.37469494448398
PRIMCOORD
 96 1
Ni 7.159358349027125 7.8998549520099655 5.967734799625985 -0.30806649546148235 -0.1427065098640123 0.22734414060975036
Ni 5.447433428155427 1.6402356603185857 8.624029797405308 1.9164542736759185 -0.10387976680480174 3.051206025923758
Ni 7.068862651479964 5.763862239522239 0.4750973861068757 -1.1187119251761573 0.8334845390963774 1.9353814495977248
Ni 7.5234063747651625 4.882500123291949 9.602241408870785 0.7458544013812186 1.406110864985959 0.15947550179223502
Ni 4.493276327914164 7.110843590037135 6.690008897259053 0.5733063826757417 0.08126305784655037 0.5433720570101546
Ni 0.34536769604744816 4.463083680767257 7.690543329078786 -0.17858265493533115 0.5808769959341481 0.3726253531794744
Ni 7.808399742371272 5.698076262884653 11.885408655063053 1.3464355606125133 -0.3296771317527225 -1.9768836826065694
Ni 1.104964986399073 2.5719858686699526 12.748250360284672 0.35144100579237536 -0.004818504434565895 0.19005620279256946
Ni 3.755804472572252 8.305107168421552 12.453071543371681 -0.19954691589182408 1.5135788633626515 -1.2329380682122895
Ni 4.043493612245049 3.1567947811437578 9.93224868706435 -2.3860410692738068 -0.23479262646799565 -1.588378424972045
Ni 1.6590877883646111 8.300903591639596 10.075973546344565 1.709414391841159 -0.2864502027432873 -0.08120058003973112
Ni 8.476357231234212 3.8695660537864907 0.31781233642069784 0.6602994010275337 -0.8934053838217259 -0.6068209694934195
Ni 6.436535044949285 3.8427271298547514 1.530265522597462 -0.35653256138266987 -1.1282278350863926 1.7460670100671867
Ni 1.9251559222415302 7.870064386120464 4.79944201518573 0.410762269260512 -0.7074503476817235 -0.7218336129865891
Ni 3.328858144681624 0.3322342600669595 3.0590872079524267 -0.7395672828209263 -0.15688614379850402 1.3899725646631997
Ni 4.229620681581671 2.622118090899956 0.8231105940638364 1.4476940877443842 0.021314702317376193 1.0572833855570305
Ni 6.573005078996473 3.593272262476948 4.079629751433224 -1.1222561908839896 0.017797947413369347 -1.1605034072906464
Ni 5.101140945215949 1.3552788455540588 11.028318539464392 1.5931421649092756 -0.15633592772198882 1.1987303119823292
Ni 2.861000048850105 1.098339783862297 11.14745978513849 -0.4188309052012594 0.5319216490813677 0.006528288036821014
Ni 6.480700015790992 2.8300854830819495 12.645800055898048 -1.167596566692002 0.7376975766020393 -0.28839241407132266
Ni 4.482685142065718 5.75288724883718 1.3991934294309278 0.4267612157919296 0.24783454725361834 1.2620910356271617
Ni 8.793498823011877 2.7066008460068427 4.328264921338546 -0.1174672756812493 -0.42552400095071874 0.7956607833803846
Ni 7.3620529938108845 3.2600656968239012 6.245754798879247 0.12167977110070011 -0.7092084680234109 0.8471021298798121
Ni 0.010477872039540983 0.08606001022115922 5.05098039453372 -0.21948145003222203 2.345624870240289 1.9856028076471226
P 1.2295827615632282 5.520968607208442 5.3177521706110955 -1.4277778084364314 1.6039122589415862 -0.6207915727408986
Ni 6.165906944084985 7.855580322643512 1.2929133010675287 0.29138903480580136 0.7930896802190986 -0.74900425986411
P 0.9754491304629014 0.5730123966741857 11.89689812699338 -0.008989090872487743 -1.1083457514504849 -0.6630504814101097
Ni 6.497313282290107 7.985772406148954 3.6067675715891 -0.002084136222538346 1.8403280228353016 0.6952741173305058
P 0.46553516274896906 1.8002000332927395 6.800817922694487 -1.1343128649382077 0.020771428219396485 -0.032228521016402556
P 8.229040705088968 6.798508696927532 2.1165054788192106 -1.543386433642387 1.6854481108335488 0.5596072879220944
P 8.498407732918682 6.588220199305067 8.499818672603755 0.17589405235957448 0.49845951276818024 0.7390749165655401
Ni 0.14528201033161905 1.4393138283515634 9.774788183738577 1.7634772351238341 -0.8427983602981355 -0.4157167850523098
Ni 6.2484341221672235 7.009546527802431 10.358607428026543 0.9061819667611037 -1.1021313951096567 1.0398410217108671
Ni 4.994625964845384 5.669071583089168 8.984036906506432 -0.5921389420012124 0.8815256016650044 -0.8661745731302309
Ni 8.072676787010662 5.179473684726629 5.240499567569171 0.649780760884397 0.5039483037968933 -0.3287011409926984
Ni 5.275543690615076 4.512493984376012 6.073194316695863 -0.45827934100486883 -0.736249531301603 -0.20297831017087622
Ni 6.233328660383374 5.833266947476463 2.921956481293641 0.7727615101847078 -0.8658189895630249 0.6434692168440724
Ni 1.6930453781944859 3.594204359937294 5.834656869277626 0.3633724671226387 -2.275401358037352 1.4692098503289728
Ni 3.3134511219547216 6.07013849913959 11.039432430947462 -0.864265529032976 0.43621747610882294 -0.23604449659722573
Ni 5.271906682877646 1.314495012558706 2.532164289229252 1.7239580939832888 0.20513597994382735 0.049161806436631456
Ni 1.842848061208785 4.000306429915666 3.6100838281416463 -0.6445377673179028 -0.08729666563513998 -0.6369311586152385
Ni 4.2391335586034415 0.3161756829388543 7.678799814899461 -1.655630513251484 -2.514710384318463 -2.207228557715857
Ni 3.7806878194793425 8.053029634660223 1.4600219269289259 1.4394436748101338 -0.5471703477103222 -0.03581032483038994
Ni 2.8684294139016897 5.160548450997438 7.8746727856229395 -0.5936967734066356 -0.8052841654027615 -0.2278318788794463
Ni 8.558089385012039 7.685271495501592 10.598749545190238 -0.18170757371755802 -0.03345133767991013 -0.12822271442554045
Ni 8.203325781035883 1.5088464712513256 11.730877861990091 -1.032178620069603 -0.18678370268888475 0.8050964748719877
Ni 8.755227997875302 7.259933492640581 4.189208773749417 0.4126368605754055 -1.3861627039988063 -1.424825410676327
Ni 6.039845331678332 7.901947602190547 8.26806269112006 1.2872101992922929 0.21293644982485263 -1.1966762576667778
Ni 2.7276735591789882 6.503052078418514 0.2285905054026773 -0.4791263596572071 -1.4746880998347247 -0.32923747311214263
Ni 0.4723659750196449 0.31769628114867426 0.557853019449003 -0.1760560318587355 1.6138374884750981 -0.2549544461278513
Ni 3.9117754476035493 2.579150225620066 4.607435421280609 0.03732161926859379 -1.0954113027770036 0.48718676806783845
Ni 2.331422480007022 1.1147611479431057 8.831618867676926 0.08820580771297067 0.9950629461642282 -0.973302414558685
Ni 2.4763727733012826 5.9372140907258775 2.676169691568612 -0.6280839926372538 1.8239655223168783 0.06541657773259701
Ni 6.74220818268053 1.1526024771910903 4.809954612424773 -0.05162672303735625 -0.09471944046177236 -0.4182958586333958
Ni 8.360183162475549 7.70448915196344 13.237751393617017 -0.7111524791236591 -0.43732536446102105 0.5138619633661796
Ni 6.927046764351379 5.668157762049613 7.234037632021663 0.28991347870153944 0.7374566642358268 0.8565033685890538
P 5.172245360303746 0.7659812441339582 13.237657270049944 0.33495252121904895 -0.5309808824346532 0.32805836520237697
Ni 5.237656670315114 4.651010977551803 11.074875893787654 1.7861708200666075 -0.11636144421158025 1.6326219681714529
P 1.8009585047555705 3.5025481096698985 9.222333105170227 0.06663399507946588 -0.24187935811144798 -0.03777310498371559
Ni 3.341843541653705 5.652184170278186 5.434138245850938 -1.6264009269624056 -0.4099132909966553 -0.2501218006258982
P 2.798512966165314 2.357466379634348 2.385309592888558 1.2464623279509695 0.6233235951341329 -0.4932098343334667
P 6.629424389978616 2.926246871074353 10.489358770008192 0.7381027824602578 -0.22688931246051894 -0.6964971911043295
P 5.576428406099052 1.9745479494294937 6.5608494315283075 -0.9206829885907563 0.3970482621085291 -2.092817552362428
Ni 2.3442159745607962 8.139266926163057 7.135426289822211 0.2986315753008276 -2.2203668948700277 2.0390706976582753
Ni 0.2612522969984626 8.73751814612872 8.32935815116927 -1.251834133785844 0.08230641150940018 -1.018472069116788
Ni 3.5608864448351083 2.6731093049071415 7.262699628927315 0.3466261009022353 0.7111020855016978 -0.01265908352490723
Ni 5.101479059000585 6.6124090422220965 12.522726638290742 1.6454456022986823 -1.2673150030302625 0.4094942011813657
Ni 7.928749973280704 2.678902930297922 8.410970594390912 1.8654417871837938 0.15755000263474803 1.4155074757095107
Ni 3.337347542139092 3.321629820258741 12.258254949769928 -0.17839547862518954 1.0729568304282295 -1.1390357243351739
Ni 1.348836407225194 7.481069046002566 12.230783661678814 -0.9245980073744464 0.3872243340395718 -0.35638395161994746
Ni 1.6095586880207144 1.5843829183809661 3.877324394412315 -0.6353949244763702 -1.3454716540373473 1.9700615174784137
Ni 1.4826015309952976 8.081586542146326 1.943904788510086 -0.4218858899774992 -0.7437365837072676 1.0812722922724605
Ni 6.6640856220089475 8.678265989923954 11.874695931016344 -1.1276030570182 0.23204617407111006 1.7910356043580768
Ni -0.007755599162705767 3.552424462008826 10.766615728693427 0.6621354257950081 1.0519180074800594 0.1840591046688701
Ni 5.995972783569283 3.7410005717314565 8.498120793112262 -1.7692038531949659 0.789357466870176 -1.708440457963664
Ni 4.491604035411778 0.031053466566167948 5.229144427331657 0.40822613310221956 0.8490708235704088 0.19779136665329808
Ni 0.31162759562498765 7.071028407343711 6.59460689455052 -0.6540089400331317 -0.7728985499832043 -0.5323831620988186
Ni 4.0485196279626035 7.337855012683461 3.875224433663417 0.9244344852133884 -0.8728360443108065 -0.8020522887290251
Ni 4.579851733201632 8.48984522977805 9.89122908824079 -1.6682345751687397 0.4595471519736989 0.7253141153360217
Ni 0.6656994370741999 2.5084022007376956 1.9589380584318101 -1.1753854666088015 -0.16232351276399143 -1.1630793955479388
Ni 7.196240166183577 0.24650048395692148 9.763339833755028 -0.28137047422753475 0.8997454671071409 -0.9030714461565801
Ni 2.128947152272756 4.234957396452674 0.9878259226226382 1.5884113350925095 -1.6967126280037748 -0.00107729222457879
Ni 7.33495819998807 0.8549042556720441 7.261590250185295 0.6209036728387307 -1.5694911011492387 -0.7752955894604712
Ni 8.655274252568743 4.642393645148797 2.938834755894227 -0.5377446835210481 0.04785208648627243 -0.3986541731430683
Ni 0.9277202575669284 5.861083659920526 10.147140101263052 0.284000198540898 -0.8715368658834087 -0.14260006619313506
Ni 8.455092615643762 0.3115334720579134 2.7660202314618467 0.13218632705897881 -0.47994139935933466 0.045298981047115536
Ni 0.5444993525979814 5.741930534572911 1.1316476469330479 0.06572356745005455 1.6962390308014657 -1.187749387490793
Ni 7.3119756008432555 1.1247766265366317 0.6253944463035742 -0.5484044772277393 -0.7687454470467793 0.6300732551531406
P 1.1658528822646421 5.032851098929982 12.425706258521158 -0.1840565335657088 -0.32978486097518045 -0.7687999544337986
Ni 4.1397737969725945 4.633895109480933 3.560089592888616 1.8480120217431206 -0.3302114069896377 -0.5012902973487561
P 5.769089295868494 6.4359227848527825 5.023923067373527 0.355621105311994 -0.42419371217506946 0.24147209537070025
Ni 2.272864827792319 0.8415259156529545 6.0735287751963405 0.030417178839276644 2.2621012984943363 -0.6476112640369039
P 5.073095777511997 4.395689379100054 13.398100485248825 -0.24974513401276988 0.9090186648789508 -3.0729716997356236
P 7.534134633769542 2.244207399991865 2.50602992131901 -0.17832683017078318 0.12289693133725287 0.9243982326588144
P 3.254244656801934 6.937208454311234 8.995605880867203 -0.8652266073946647 1.2354412942501174 -0.07618615754427525
Ni 2.842248441118431 0.8735937235730289 0.48169882929662305 -1.037115138139272 0.09835498033183061 0.07545853534963134
