# total energy = -340857.6830031054 ev
CRYSTAL
PRIMVEC
9.40628808482054 0.00000000000000 0.00000000000000

0.00000000000000 9.40628808482054 0.00000000000000

0.00000000000000 0.00000000000000 13.76705341430701

PRIMCOORD
 96 1
Ni 2.554776003015078 7.769198712452836 0.843696049428162 -1.3090193247475843 0.7168685556718299 -0.703160204946802
Ni 4.945120687860966 1.0925779606786867 12.58040207997888 -0.9978273962832428 -0.8349045593723556 -1.1225294991500345
Ni 8.17009470126188 1.0656759773846027 11.750289650856658 0.18175745311888697 -3.083526849543651 0.47580449437282574
Ni 3.6190974749471114 7.021765672406956 6.238512547542125 -1.500460066592506 -0.09439856678724388 0.8456821096038338
Ni 3.1325196099751964 0.8967164722371704 7.913811922719122 -1.7976137717962266 -1.6109959052612448 1.2219548297279084
Ni 6.265838754418923 2.5899837384940136 7.252455822926447 0.2724500318094533 0.2792953368660609 1.2736946813043613
Ni 7.889213539323193 7.453702411170712 0.5150666890288352 -0.14788342607926144 -0.6023930156290529 -0.36298988697223933
Ni 0.4813319782295684 7.452470187460389 5.433925021170541 0.8289190312128822 -0.5591285485134629 0.03552441815885495
Ni 5.975203271964165 7.4410415477043355 9.63149885290246 -5.485359891544391 0.4423672977603027 0.7426934871547339
Ni 0.6735861552748325 9.254968912179079 13.461452379776786 -0.5436803322791927 0.4560352821656985 -0.3700809894910658
Ni 6.885440342378579 2.449425578926357 2.8311948219905787 -0.23660551130701832 -0.2555596838120179 0.8775344782277403
Ni 7.994159493033716 8.18932115365807 3.8239777121936513 0.1299109007612408 0.3273960490280297 -0.5157175285176796
Ni 6.008125279491891 0.23239456988063983 6.3297883430983495 0.04799246871887864 0.09676218192341401 1.7577495886114372
Ni 4.5816052870276875 3.1404208917818504 2.5198250591948583 -0.41209770024248377 -2.171696426247518 0.3993118613317252
Ni 8.275539188229251 1.5142430330937922 8.334036892462086 -0.9735350993947816 1.0295468388737108 -1.26135132924766
Ni 6.605904279604595 5.933580448161255 7.396376730405864 -0.6203819960073058 0.3087059288176941 1.1733694646200372
Ni 3.61376410972762 0.03025626554676605 5.474647663224764 0.9008842086972743 -0.3529052490427277 0.7768624197269589
Ni 5.8301206879334115 4.865684586840497 3.39412916933594 -0.3090689685840677 1.1063960839232818 -0.9990000764351052
Ni 1.2186222180705493 2.5754133985910292 7.960826430726287 -0.3630503078965296 0.690735606030204 -0.08872002834522785
Ni 4.8302699130285305 7.487790798393705 0.3005581755236153 1.1247751006511015 2.6348230680423588 0.4839392076648182
Ni 4.48762706496783 -0.001476787194815106 10.208421290931959 1.1836669898913035 -1.64036253134882 0.6902468393192436
Ni 2.38041164486038 1.9986856707203375 1.5842577961886124 1.2816954401216507 0.6630538238442193 -0.12717627543889712
Ni 3.4329564443853524 4.183418309123783 4.6023254579368515 2.524812762859787 -1.7571842030262703 0.37462387166674194
Ni 6.370286174872598 9.249776641277563 0.44507638228246427 -1.541846599959093 -0.18560536611006745 -1.1815748832489652
P 0.29268605320934293 8.664310471980228 10.71828442151384 0.02094317791057038 0.4780002164725639 1.8339136346685254
P 9.077152446377902 2.2772152606927585 5.787036126996271 0.9707428813616249 -0.6113821065015407 0.46690770610382815
P 5.2626581536098085 5.529335820872248 0.040666204327032794 1.8028665355547338 -0.3896943928466192 -0.6715333220701403
P 4.719548498568857 2.1190861553931617 4.68236732389583 -0.4900221806341044 -0.08353539882049485 -0.19152121737387018
P 4.75144522071929 6.595971239619088 4.53042097160994 0.17589173836672933 -0.4970405209334666 -2.0663531875233123
P 6.250835725274145 5.228240546311538 9.820259534634639 -0.38934806525079396 -0.8336447188233256 0.09650764271044669
P 7.983624450624844 9.214032747390318 1.641459313953642 2.9785363661731736 0.38189983650286485 2.8229200902260283
P 5.454584051208582 1.0552632167179763 8.526569495628157 -0.05765878816404909 -0.2271698198154152 -0.041168246708193613
Ni 2.5888832028138014 1.0774902749431234 10.533860979116241 -1.1702489167131844 0.7342278728858839 0.03295665743167873
Ni 2.192257668695497 4.906206874963194 6.33808939213927 -1.3438742276432403 -0.5397709699224574 2.14357987051696
Ni 0.3853662075438221 7.133531184819652 1.8333306550827977 0.18416554833974733 -1.176306178650858 0.1509561514673142
Ni 7.823275461389091 4.11288996271153 6.343596773684265 1.968341449463513 -0.7208329396362166 -0.7503330059778627
Ni 6.969335023847088 2.1261126524283647 5.14641336691577 0.42794238058422424 -0.058269425164854484 -0.6725157405880676
Ni 7.775858364261302 6.122618615385454 2.724376076366121 0.12159158226226799 -0.12232871753860868 -1.2805379294784398
Ni 1.0733797271460905 9.228330304945215 1.9510258913656293 0.4297256977368922 1.4207196160380693 0.9336660311139855
Ni 1.339558861151682 4.557402908350877 12.581227952053434 0.5269445075817506 0.8628825326425204 -0.16229394507763664
Ni 5.847070818666258 0.2497068426962908 4.076314552977014 -0.14423760179655803 -0.007318645148600299 -1.8562344096529129
Ni 0.9511262037638487 4.349185320169813 9.536176472306684 0.8651998679217874 0.9917243687092984 1.0141042790663952
Ni 7.183864231185611 0.04471184873779697 9.84205202236042 0.07300955958850652 0.6472685359855046 -0.6200472383757063
Ni 3.3135342136504953 6.151646419737043 13.048014046728467 -1.6055143133213832 -0.5368381125463787 -1.652901544356095
Ni 8.564152318793022 0.017947197246542815 6.048651330129734 0.2468963517100651 0.907815902820101 -0.12856878491104956
Ni 4.047958357578991 4.596664753899656 9.229349946549789 -0.05211651818958121 0.5377135731727966 -1.8918495877533614
Ni 4.819142274484158 2.4322214784211544 10.296915647166482 -0.8823712374947513 -0.7715366366386712 0.018675464922316223
Ni 7.866356259811086 6.77678831124922 9.610615012584445 3.7157562318078456 -3.349950729763682 1.526888435987364
Ni 2.7688443022482128 1.2941641159148813 3.695159540510381 0.5201588521184848 -0.7234714057003282 0.09161689027704867
Ni 7.986643869029529 5.503252184622426 13.159375088762964 -0.9280255449987566 -1.5546208689056258 -1.0266006117611932
Ni 6.419753842754972 4.239442159648107 1.2182440852983738 0.9657171460122593 -0.11897239947186607 -0.518589450748836
Ni 0.12465306741661952 2.4112266439063306 10.305726517009688 -0.18294504566908493 0.261956074256665 0.4684238856380384
Ni 2.851544385157859 2.6338922902481343 12.568672439011145 0.4853628274852221 -0.026005937145458437 -0.5698505629166574
Ni 7.273308622494508 8.166031184904172 7.883909333596082 0.22235722891812024 1.157295184765994 -1.998452152805965
Ni 6.945320770927578 3.081659811488793 10.343311221432126 1.3434150286186348 0.30626955146205964 -0.757180110806683
Ni 3.8675081311755966 6.426893215244555 2.1475636919046437 1.9705495128584258 -1.4210960255408818 -0.7802670745331336
P 6.629645750176018 8.878755022727963 11.800925579691873 -2.0196246731185217 -0.8485697155642742 1.3218974662618332
P 3.4019909447335603 7.135064409741657 10.828572206102933 1.283787546763989 -0.5937104002533904 -0.4948987920001155
P 6.475269753734581 7.7716537535856185 5.315693626479401 0.33997799945809837 0.7455170726464581 0.6779718786066323
P 8.376195874673305 2.9878038711711814 12.17789479405855 0.07477616457062605 3.0996438097101717 0.21294467735496875
P 9.167368153291735 5.301026401811407 11.290249745838448 -0.2932939651379981 0.28825203183871645 -1.2556285678312697
P 5.643123685175932 1.79887730389064 0.6961113928253021 -1.4200133339996641 2.438893180077832 1.3197685928442884
P 0.5280972196083089 2.8411222182033673 1.7029435145836351 -1.836862175773888 -0.5875886036263687 1.9457347678075911
P 2.1899813470321514 8.19927300621931 7.881664993311478 0.9247980392003945 0.5650390004606268 -0.3357135677547896
Ni 4.3762189914940075 4.622691952422289 11.440159636801553 0.0037113874133161895 -0.6442089232235744 1.2702486317372899
Ni 2.47179373146948 7.197061253060296 3.5400460911003235 -1.5175465897611478 1.0154199125540255 2.0051874146472692
Ni 0.2772672661409294 7.079445029595531 12.351662793562605 0.7546851122989713 0.5549451065597346 0.1552267538182101
Ni 5.835849117243236 7.539431318772909 2.6414295487144104 0.8077683652771959 0.1868191839125105 0.2800736097929821
Ni 8.18918946562796 4.251914897357182 8.580287864996752 -0.024383828161003165 0.27994968262060815 0.3555815103233102
Ni 2.4711917290461156 8.625283783628074 12.008876969926357 -0.23233799427991597 -0.10551216020190214 0.5563777252412031
Ni 4.083805720632752 9.050861871795048 2.207890919127234 -0.42736722480704464 0.8576210271332649 -0.40044700337743294
Ni 3.9750690329126073 2.8041178817422043 7.45052308587232 0.15062833581425025 1.9996076065666466 -0.7149687675459557
Ni 2.143608347857384 1.9282701997624656 5.944475751395359 -0.8145301094810619 0.5580959934838905 -0.679370815836688
Ni 1.1508311014270303 2.9743058480848137 3.7718142022091503 -0.9273249193873062 0.8785909445167127 0.7614849088296239
Ni 6.327431127359365 3.138661915951084 12.632881641235647 -0.9067576367589159 0.47728082180803605 0.8751186696973962
Ni 5.754823353573571 4.6936623943642 5.55365671877616 -0.4320492036637462 -0.948922957273056 0.4749804558096336
Ni 7.9239321478331455 6.124236496898244 5.090656654966815 -0.37394715731469147 -0.4479039113078157 0.6563309032980891
Ni 7.7281214533461 1.9313460558943416 0.801599148716853 2.423498185679 -0.11300795435831507 -0.9963078743149228
Ni 0.15061160003783766 7.859536701108915 8.735208485505577 0.8968280363500296 -0.8628424234332044 -2.1207345904876704
Ni 9.076644506833189 0.8198445252887184 3.5629955522335077 0.01875131246557416 1.5548666663678448 0.332183443114344
Ni 0.5829283528313421 2.5513427079443294 13.470772129793493 0.25451170216347785 -1.5335054270832493 -1.1658420458947405
Ni 2.650221605981886 4.517830655302551 2.528870145605904 -1.667555032603212 -0.15238722748688593 -1.383350688471308
Ni 1.9702786813678432 6.077618934238986 8.351287083777828 0.401804802956908 0.7171264373189069 0.18620700424980835
Ni 5.519713188386287 6.604399273546186 11.90767471878613 1.0847916182796287 1.2227608705689716 -0.720873563066165
Ni 0.7443317869367682 0.5957199636990431 9.053791930465016 1.7549571134679647 -0.9509060491413558 -0.17772827735483585
Ni 9.248553823855104 4.791788789372551 1.2878430904695581 -0.4932782256775569 0.0072307134204843216 -0.15609218714229892
Ni 4.496544225863911 8.486983133148033 7.903445252863035 0.573940930935947 -0.7885349709688807 -0.07274704995573923
Ni 3.9820955299478102 3.9737427463236332 0.4068003157019443 -0.8845903566332571 -0.8563131069551189 -0.1616912784966312
P 2.729591862987299 3.1623375425074505 10.429093744875154 -0.8685597855329558 1.5447452616631268 -0.1385634342299162
P 7.964492061107303 4.177896818146991 3.5984328011363513 -0.11657381733270246 0.021593667010375715 0.44533923590443303
P 2.838055768359357 0.817665088390383 13.735044609248835 -0.17244568879965785 -2.2603475490280234 -0.9899526215208565
P 1.5507864614495674 5.228833142447037 4.407686786917794 -0.6812479782547428 1.0841336729806557 -1.3664405429795305
P 4.272542886645268 4.97926551281115 6.954605717679184 -0.49393719941779446 0.16777630834844656 1.5037554495143264
P 9.33255197449013 5.914212901447087 7.109650501187826 -0.18100411989263018 -0.3244580494456283 0.5741731015514111
P 1.4867672662399394 9.341055258720148 5.06904288671047 -0.6307137169506171 0.29669450617911486 -0.9492438309475846
P 1.7796696640701788 5.590758880631119 0.7787606817804767 0.6585420520167949 0.9348022016009577 0.008998861064500631
