# total energy = -340868.63138000004 ev
CRYSTAL
PRIMVEC
9.26554980965584 0.00000000000000 0.00000000000000

0.00000000000000 9.26554980965584 0.00000000000000

0.00000000000000 0.00000000000000 13.56106872255892

PRIMCOORD
 96 1
Ni 1.4825528606803995 4.168052079345989 1.9358828667600927 1.2148133335871207 -1.2410714959527012 1.4538156272610896
Ni 8.848952351825154 6.820102662470282 8.23654582381906 0.8928711085848107 1.2003161684122101 0.08144226373689199
Ni 3.0603277788283627 2.3805977644391496 8.027312100015735 -0.20466752494784107 0.12998186320849228 0.634500694796875
Ni 5.898634448282611 8.982357740889858 6.190573398043048 -1.015338922804445 -3.1447113914727716 0.6367480960701549
Ni 6.138306430428518 5.791987967650944 7.1560131329200045 0.9522867315389664 0.09428672379972794 0.43705616996003444
Ni 5.032444505463191 -0.0880097533386592 0.7529565826846204 -2.1127867963955036 0.11184247329530415 2.6731137360924415
Ni 8.432345426660799 3.8121993656066433 0.7060247187666769 0.6714700729323725 0.05958300176995545 -0.9339537375577335
Ni 1.768228298633102 8.598069054165407 6.443473805940284 0.6998018299975303 -0.6631299284977935 0.19431009297291696
Ni 4.043828850342619 5.224676871550526 11.983157140559726 0.4979254946415812 0.9746159911637859 1.7875183352334376
Ni 6.9758565581625795 5.752915143252703 9.61736109226385 -1.3027831140298853 1.2914653750242209 -0.11995533221042566
Ni 5.813743479077803 5.143140031449858 2.5993861234142717 0.6069091583318516 -1.3329709504671754 0.6115759676799015
Ni 6.588714082034603 3.5379668819180683 6.589459032255522 0.4363570870104808 -0.4874670183124185 1.1987588512274192
Ni 5.483333965669871 2.2688367002011667 2.395223435132207 -0.3301751544350636 -1.969792322977427 -0.19820865669637477
Ni 8.480340975720056 4.657930974000807 7.943355098252079 -0.1612217950593804 -2.177992543668875 -0.43592925544444283
Ni 5.059064430646057 4.609462881890966 5.2239949270696835 -1.7615190829561984 0.8340087870309636 -1.0900760066070194
Ni 5.615553364333112 7.193189299230904 13.315695187224915 1.2432399643589298 -0.41140684482304635 -1.1827923005958338
Ni 3.072688022543623 1.8898757047332913 11.574060870234645 -2.4684341269597425 -0.3535300271109202 1.5750320855721263
Ni 7.663286244611298 0.6184865819236001 2.297394051891424 -1.3665310458108078 -0.7101206954250351 -0.8063480878909016
Ni 1.5422971271541612 6.3530818796936845 3.0608012484339473 1.3118423960186762 -0.3070516810437228 0.15165369175497107
Ni 4.451716892946209 6.851068130608512 8.959527425661673 -0.20853035033735698 -0.26628221243584466 0.5857872887515718
Ni 0.17089380441099006 1.9308850290839223 2.0338345552610266 1.4641414346671302 2.081376657515338 -3.3684675576209475
Ni 3.7769717444631503 9.40351405110983 7.598917542126826 0.6592102817284131 -0.9825655850281659 -0.09511796145177168
Ni 4.871344387414292 9.102430003488104 9.91518922561156 0.5242605329916843 0.16290149675464846 0.5794698311739762
Ni 3.5401535517207683 8.543161404797615 12.429398074325666 -0.6926749891447619 -0.6363243782691751 -0.32915545492129766
P 7.2058923682965865 0.4065917921569891 9.542965211557 0.18523049926915194 0.42538927514506736 -0.15416643087449577
P 3.9005185883156845 0.5619871110638444 2.613977511572286 -0.023307307267372762 0.7720860813842381 -0.13065523512643304
P 9.191471939098037 7.224275219519284 10.289746305158996 -0.5335360447563392 1.9750443154049857 0.0945929421862371
P 7.676823213178011 6.515099287193716 0.9115225728053901 -1.1648303168007748 -1.8127318583845877 -1.2822415424331077
P 9.07518002090446 3.2687099985856367 12.29940148111017 -2.6648147293084428 -0.0872321309457917 -3.2971245871015857
P 2.3056487303966158 5.2037459940746835 13.660878620126086 2.19809728483855 -0.6523467218393604 -1.0843393612335583
P 5.151960835060748 3.475683854741172 12.612580777716829 0.09089646717125636 -1.4849370312562424 -0.932589253110039
P 2.908752646191224 6.170643199968441 10.466121608956753 -0.9154867891017976 0.5292754697077723 -0.6719151308895912
Ni 8.785251695496507 3.24626883645793 5.722404613620034 0.4397974801505974 -0.6031473772965741 -0.9771048190239109
Ni 4.822311096753754 2.519034347160067 10.402899055008698 1.561117275263247 -2.0020506687905004 -0.43964758483629446
Ni 0.44440820797367825 7.974163978595116 4.647378439092777 -0.4414388724087623 0.2735190965039161 -0.6090071785114609
Ni 4.032404427178514 6.309200234839507 1.0609406853998657 -1.278825060552391 -0.8243710068308836 0.38807074120026713
Ni 2.580261101635659 1.6892487503355917 1.1183055586306898 0.4770481369719397 -1.6281513339946088 0.8922041644247731
Ni 6.229831533441517 4.858733973848723 0.39609299743902704 0.00796733447619273 0.19761396053516933 -1.2907747767150997
Ni 6.888371234954567 3.8793097443395 10.947647610276258 0.5404628537831595 -0.7972049879390528 2.0133750926643836
Ni 6.281357257055132 7.415164080854959 2.2351629117945917 1.0628734780502984 1.3854911318530785 -0.9535352592340869
Ni 5.056673918743105 1.0842453967886383 12.328516618911117 0.5392384944577551 0.5248382598720251 -0.1022730844393142
Ni 6.4271970142351895 3.0490238078144065 4.261972327036945 1.133917429272002 0.5694882944812321 0.09067483807875351
Ni 4.13555779545587 7.6955025620010735 2.9759769911892207 -2.227242281833622 1.0580722000069132 -1.2348553398396604
Ni 1.5213106563782508 3.0744299459457736 13.272353723936403 1.6242959648042608 0.7764279032927016 0.44707781586209455
Ni 6.545416166831146 2.354802473207302 0.2762514470360674 0.39223130033585996 0.36145442416431944 0.10857614383920655
Ni 0.2592195130050393 0.06465778764482823 10.893457114479352 -0.09291863980760771 -0.4438027446552486 0.16902020805787665
Ni 1.028855938820253 6.949199570779667 12.090262265916962 2.0647369920761274 0.13803327275805907 -0.17560428903329758
Ni 2.0472418061275794 4.180477181911329 11.099598924243862 -0.5346120514293373 -0.1604707758259688 -0.7566293805095357
Ni 2.2653621189468764 8.1690277608857 9.51748402247054 0.18873054200261047 -1.3370140101882972 0.7136685606772936
Ni 8.290656635885867 9.055083042929647 7.427587330310297 -0.09593351537453156 -1.0376301301024775 0.7112550661397944
Ni 7.201194734440787 1.1384303332555366 5.277249602315433 2.14778645239914 0.982607751120011 -0.1276303322571802
Ni 8.64881647157806 8.124895946181214 -0.09013341740128113 -0.06421715810785715 -0.2048395317493311 -0.20098159145582162
Ni 5.526502163173167 6.6774502544941585 4.22539842147679 1.7233595411673415 0.7156472816702192 3.7966783613752098
Ni 3.380721232673929 2.754518300700802 3.61965289737392 0.7328862712563249 0.2685326990329182 -0.9127297951819507
Ni 4.6595895074528535 0.9246518571715999 4.745330127593712 0.6101448916603298 -0.7809057365583971 -1.5187557795779005
Ni 9.197262907855187 5.2124926732854835 10.307958670261481 1.3253833679279046 -3.0370233066654726 -1.0238294767739593
P 1.4824138774302278 -0.2139637870841654 12.839810052752373 -0.36064144134472087 0.8088559419144199 0.32337021569808827
P 6.515405050344093 3.4190898752712995 8.929381032144452 -0.019529842502811524 0.42422070875826295 -1.1068578540510485
P 5.500512295391079 6.91059928943201 11.09422953801223 -0.8166522980303871 -1.3966330074025108 -0.8875774642860391
P 4.65042587849154 2.5288836268222274 6.025142561918802 -0.6328747291576778 0.8803382662251226 1.327705331192862
P 1.119130192581708 3.543646664075081 8.957547377624227 0.5063895662485344 0.16013936062847905 -0.7647291267985346
P 6.9242011168488045 8.7296028021278 3.9336457092715844 -0.4535873348458382 -1.277327392960942 0.9172263975007235
P 6.83972709739451 0.24252021221942194 -0.060496629134690755 2.0735059965180094 -0.6037734409163472 -0.4122277980624449
P 0.1690101180936644 0.8383951458951051 6.168767852646126 1.4496933775626 1.4449854305639696 -1.5299310794684295
Ni 8.123580238079589 5.941469085985497 12.116272517909074 -1.8011151000812657 0.38715619980579774 1.4690668969932053
Ni 8.341580098748738 2.0522544686837683 7.680297794432301 0.09257205510146638 0.929066070448129 0.14684187218862452
Ni 0.41179810470841693 1.4473715672869636 4.041374406144589 0.11599968999678731 -1.036357434037641 3.6883107340023833
Ni 6.758616472594368 8.478775097768121 11.477180279315032 1.3053166790850164 -0.44544439402372965 -0.2683648059964862
Ni 4.1269686305952655 4.307971150068736 7.4008580716372965 0.6527472997118887 0.750119861525792 -0.6293716011004257
Ni 2.0159613092889597 8.040644299927195 1.3006284189807906 1.2386649433937378 -0.9331664657697477 -1.908241398847823
Ni 2.5876642760947997 9.030557132049367 4.2995506182183405 -0.2517652497665922 -0.5612209122661174 -1.510300963942328
Ni 0.5135653467040615 5.252177023984478 5.084207427157098 0.4298622233147565 0.9282790557704594 -0.3267740991733147
Ni 8.856624227234626 2.409256110624532 9.87392324552561 -0.28198111122834013 -0.08047758583077752 1.4729418065675792
Ni 6.621217631474732 7.951611629867273 8.25965410554759 -1.508893799182156 -1.072512029581327 1.0211532154933767
Ni 8.86733520304785 7.42630127196871 2.4053812576097484 -0.47515709059681394 1.1355963596363217 0.5040388066281707
Ni 8.3605837418222 4.93195961558913 2.937354472521536 0.49558681920607556 0.9223308086068245 0.37149972421546346
Ni 6.007541723117072 1.4588608493011486 7.808056757320036 -0.5137982000077796 0.2538660981596789 0.8290843531461527
Ni 3.1419572744291444 6.452973774367013 5.010312812705866 -0.03840122548601774 0.166529580425539 0.8137461801271857
Ni 8.922937768666497 1.1640959067872239 13.278537552014038 1.3031189001027492 1.0964983651935956 0.21891966399148105
Ni 1.8473931579308411 3.9414630538162356 6.7338570698538005 -0.9827584177652624 -0.3879915512228996 -1.0556455928432915
Ni 2.508267778046774 1.6739605928167165 5.606389735371799 -0.5789797789114352 0.28052226729462654 1.4176006107931134
Ni 2.1307892705807294 5.433355588908166 8.424000872320498 0.13343202654062183 1.0342614707405606 2.0407403720512147
Ni 4.527694403040012 4.477187889927656 9.694103010233597 0.07535337723033475 2.3749351891686326 -0.6396475291051371
Ni 4.162103596238644 3.7930474737329978 1.4322928111983468 -1.5363644937985992 0.30529921712899033 -1.801837065848955
Ni 7.330050738449877 1.385857580761017 11.59838942489968 0.49137046713188276 2.0799496952608245 -1.3450304527348707
Ni 1.3337017997466238 0.6104653952786969 8.252886547819234 -1.18739097571011 1.7519232117376473 0.5397455160011607
Ni 8.048260582036598 6.899276787318031 6.012869414373649 -0.03600264334685412 1.1807505875754567 0.3313432066012358
Ni 0.4182858428264269 5.71119237155119 0.6216257502674757 -0.9044174186615133 2.1443141775798233 0.43328281896053117
P 0.9657853398923844 9.155771774903961 2.5809560178865176 -1.2169920864059944 1.1198020729165423 1.7307206095181031
P 3.7439678553224027 5.001126946424525 3.1969131046569945 -0.9186695577051534 1.087262448417624 1.02035205974832
P 7.465355565266927 5.190690834108565 5.020592940443557 -0.9745874519186958 -1.459384379598119 -0.19641839756517138
P 1.311251372068906 6.5376145737215134 6.752937616992358 -0.6421062750582749 -0.6709671651540251 -0.9774958838147425
P 4.584686801160377 7.117054274786906 6.842101857862442 -0.7452697325223423 1.368042854469644 -1.6142979730512845
P 3.0083109810641413 0.9689634235463082 9.68306403394997 0.26502520010029196 -0.4074571161466789 -0.32586649975738075
P 1.5348476249449639 3.3118411338888873 4.418412799985091 -1.5376683002116873 0.989198002743019 0.6630854484131031
P 7.5103305450224545 3.0740129961952585 2.3865582927615088 -0.7725401382025211 -1.9871542112946419 0.4302581732015945
