# total energy = -340854.3816475373 ev
CRYSTAL
PRIMVEC
9.37865164880801 0.00000000000000 0.00000000000000

0.00000000000000 9.37865164880801 0.00000000000000

0.00000000000000 0.00000000000000 13.72660469666163

PRIMCOORD
 96 1
Ni 7.195460933363689 7.180605149252482 6.657801595278279 -1.4340608132316657 -0.11058494673911921 1.1947121919618715
Ni 2.2893569879406694 3.1877474019537075 8.310251540461804 -0.8718747088388017 -0.37226051364088786 -0.3638985148294378
Ni 6.452165280617717 3.359020337205517 5.185375805140862 0.034661041717295143 0.16537515510612164 -0.08595120735083905
Ni 1.7811935090912112 4.08952350918906 2.307428711680496 -2.2981808178257133 0.4990652646729792 1.0533663098908117
Ni 6.066552642034133 0.4988983089482829 13.66502736413288 0.20211236262615515 -0.5769236677133548 -1.2162701206383055
Ni 5.635791174718636 1.143023161965519 11.386781264725384 -1.321893095386459 -0.8522021701105387 -0.6012661011134613
Ni 3.5483096621528 2.2009444394454984 9.98411482294502 0.6812171250168074 1.0168057371579584 0.6101718882435233
Ni 5.083773121056044 2.307129532694923 7.2012653808298674 1.997947188145088 0.5785054103781778 0.47159097051211035
Ni 0.8152617978210581 6.6367840370754925 5.491657243559378 1.6758576389316362 -0.8196250075054659 1.0684185762382439
Ni 6.493703328489269 6.7623172885455105 2.24605669143623 0.31415872440214926 -1.9798265672849775 1.1850929237045527
Ni 8.371131181497839 5.398792649156637 5.614140557533837 -2.107757975722344 -0.7275211502896697 -1.6316351787781513
Ni 1.0062824218509978 4.817794562095288 13.587595340913847 0.05727440824143685 -1.3149958540459934 0.5258260777065912
Ni 5.593437184159159 7.541223681361086 9.845366113526074 1.3106254928924397 0.9000879380482241 -0.18686212133530397
Ni 8.28496013073157 1.811721020001552 4.47030239074555 1.02223153615922 -1.9864070487159724 0.6178795413004262
Ni 2.928605879998678 2.0037864258181006 2.4442829334792 1.5810045011054772 -0.9011420903443513 -0.1387693795931352
Ni 3.715615427784003 -0.015785208483316226 12.865260036595991 1.8941658945913633 -2.006837805766499 -1.832277384616683
Ni 1.5205889174888656 0.1869296562084065 13.036499208702095 -1.1694343912316891 0.6029226628802777 0.4179137927036286
Ni 0.19882835147475036 1.9957489214094484 9.461858044358243 1.2668164661272892 -1.2699493553293162 -2.9188821448456506
Ni 0.4492336594780191 8.543557690894648 1.2274357155595348 -0.35661252269098587 -0.78784565821134 0.9483904818083537
Ni 3.045885918073581 4.897850732027904 5.200763358796959 -1.306790949637698 -1.3430579023895322 -0.6156090000986947
Ni 6.547611817801907 7.862911430738869 4.534405474331473 -0.4167940772768886 0.9823177306834181 -0.8003473902227765
Ni 0.8890033216412533 2.466341522007962 11.529620004100705 1.9116607089420172 -3.1717624820532926 3.7202844586955024
Ni 5.354731744008625 4.3727212724605335 9.375627908086987 -0.0960453583620475 -1.6174375471215305 -3.802846437859134
Ni 4.575093816369391 5.656480480115936 1.9776743840741464 -3.598655081216764 0.20442892657447373 -2.597717678549629
P 1.2466385046805555 0.6654575339132917 4.501049362102989 0.9996312822612009 2.3244628914506937 1.740929431730305
P 0.7024825746419684 4.2593521320967245 5.52071699549661 1.35952170437251 -0.33460619362322375 -0.3339459343314055
P 7.24471761148999 0.23665339118365813 5.912981911649688 -0.7759805313426378 0.479190123015607 0.2847471040092516
P 5.1336018969290516 5.761436970007679 10.766036452245288 -0.9527968384061655 0.9971406546288635 0.8508582544881346
P 8.819552649748568 5.322600483677188 11.981239592542039 2.661771314496429 -0.9558430814316571 0.5600209784207453
P 7.594728888655554 6.429853468496151 8.84011159188883 -2.7687929693643216 0.9195804995551968 1.1647416137417101
P 6.1216803560528685 5.061405037024964 0.6584423025274438 1.1676045371118022 -0.1452094787915241 -1.2525794965923007
P 1.574628707923699 2.2271014987170625 0.7083376668267074 -0.43899143930953427 0.6660751271690465 -1.440281854440713
Ni 0.15190508186288668 6.119645188658846 10.144674524490874 -0.9459674741891579 5.126894374805067 -1.9516079387589165
Ni 8.322099591009588 3.247939587828536 13.512565190365825 1.7826790048632652 0.8571847109267948 0.716508858339566
Ni 8.27342438928158 3.0728214054267293 10.692188011797018 -3.1809816866587153 2.1720872339280333 1.0419387847801604
Ni 8.993348442276838 8.493194331881275 6.327786541157858 0.9052550840714604 0.9016758513606342 -0.23702151579851438
Ni 2.2304027840751086 5.811734678459954 12.013565928826452 1.241102606300953 -0.1779419360275387 -0.0596562782100521
Ni 8.652837739167241 0.7224450345414031 13.520526727696632 -0.8597496434404935 0.21436855428568888 -0.284392034662678
Ni 2.2815070565637248 0.4429612172977316 10.736716911659142 -2.7829695179750202 -0.07994793857955264 0.8289560550984046
Ni 7.148305073192509 1.9558521375653353 1.4608675399236222 2.711950506453981 -1.3642818447653149 3.413085453440638
Ni 8.688814246648674 3.7002625751387717 3.3555230380293377 0.4992902361995917 1.2536807000762795 -0.25405533135234953
Ni 5.3626098113403255 5.747547187009763 5.005296316050401 0.22132441677823175 -0.10571939111670181 0.28295555932646754
Ni 3.8629728014931497 8.212838300040165 8.25961338695698 -2.0940041164713614 -1.0313188431724691 -0.6086230556991646
Ni 5.992442537206634 1.039229624870361 4.218158280738356 -0.21401579893196046 0.1235232520673421 -0.3875390370665132
Ni 8.580809694991691 3.2052761017667417 6.8567134167521395 -0.3645402621784947 -0.9141955810941997 -0.3444092957565746
Ni 3.4520002890227577 7.243479629480723 5.780259923739493 -0.4129315089976888 0.24878225587886835 -1.4093262865994631
Ni 1.9692917452871535 8.955683777510039 6.355198464011541 1.2654730647255172 0.3404117445614073 -1.8218600459381011
Ni 3.1211495970460796 4.124871647014275 0.6814481348663273 2.150425175573567 0.40702799902906034 -1.7188613961866719
Ni 2.795776037595251 8.653691196461509 1.4365168089473983 0.29118128967036955 -0.1600568282170018 0.3458164605167463
Ni 0.9497666673976299 4.332927653783859 10.621935346366577 2.915068170416199 -1.584175699744607 -0.867142850580771
Ni 8.823632363188198 5.206417747837772 7.963489966070567 4.248580338098825 -1.0133445180822356 -0.06281307867147892
Ni 8.39246761385453 8.299375118218265 8.689462311473223 1.3784172557254324 0.1793547572146653 0.46585355380770094
Ni 2.116180186417032 6.214041316865475 3.484114667781341 0.17733952655684943 -0.18532922963054535 0.31141381466716045
Ni 8.749831753863015 7.479371474155649 12.170021532438554 0.3533788462450365 1.2357953351554265 -0.4430771793431337
Ni 5.757723023979876 2.8137642913359677 0.23270404100106384 -2.7298991205126018 2.9584843326183052 -1.549910350803834
Ni 4.962160145948705 6.3326343661623286 12.75938725244436 -0.370679028086381 -0.3125471569406552 0.7581481311469073
P 1.2270840161250838 6.22777166278644 1.6309812738394815 -1.4891248440853453 0.270995558751114 -1.5030926191193468
P 4.439984961630722 2.808765470040972 4.4709889080415985 -0.04949193608254057 -0.12495561363849447 -0.09029277214898644
P 3.0432598956296806 7.306644847908109 13.348381577847386 -0.0969969236420394 0.6387098477822161 0.19091649391033572
P 0.6112057859526292 8.386859180206486 10.429364431229578 -0.3118470455498371 0.010720471741297666 -0.21426391038702455
P 2.188592755307582 5.241587691282864 8.522999686619544 -0.8122911928482139 1.9794889814399008 0.7843893242316233
P 4.953681844915541 6.733477934920534 7.094787673650979 1.4876384893478056 -1.1473020781090242 0.6026794365212201
P 3.088840142334521 3.4222230702392458 11.85634127578435 -0.7164175841773404 0.6686441734478032 -0.39812169767836597
P 3.2261904948020903 1.1893724581003589 7.716397197807247 0.048526486845477716 -1.6625359821220658 1.4294495397118994
Ni 5.26424651351309 3.714218008697785 11.444941096801665 -2.045340075606755 -2.8316430719213233 1.5436913664773158
Ni 5.218741296020932 9.291064358202446 6.754848130422931 0.6396300456036405 -0.3210014583555955 -2.03632887324708
Ni 0.6562814612021772 1.361029918067168 7.009120256474843 -1.214459806902444 2.7517743233191383 -2.9021545476783244
Ni 4.993212861347826 7.963544362249762 0.7404951873825832 -1.2228495736280358 -1.131247852859639 -0.4588012749466098
Ni 3.425458705036194 2.0413948186753865 13.487473545914357 0.47659587992586944 0.5023205383854833 -0.06507719211530728
Ni 1.505301715404732 2.722172379953361 4.172270414261516 -0.5668261742680367 0.09733450948711624 1.06630358677777
Ni 6.482233237600377 8.9412969259781 2.014200480538482 2.06116650111605 1.6731052729974798 2.1896334703419127
Ni 3.062964442610518 2.3999781833899685 6.080433046380464 -1.2150668443588235 0.6339106266213598 -1.9807701621451692
Ni 0.2657403412104878 1.66330385866326 2.1721257188540104 -0.6343981077807397 -0.2730778952014394 0.7868462704125481
Ni 8.484725409499697 6.716980886781889 3.4800508980494054 0.8635222231090482 -0.268828375896466 -0.28941648446046286
Ni 4.239675721070643 4.46627332202448 7.077766358888713 -0.16042372463811727 1.151190614530153 0.8980323410707759
Ni 7.775174145157845 7.638377133133811 0.5972212785737017 -0.9879859847127889 3.625779448237381 -1.0251641364249828
Ni 6.752160208878568 4.83306300687625 7.227894186276174 -2.5738061620393546 -0.07135454048358679 0.41351977740099105
Ni 6.853412131394093 5.00839689826452 12.046976437234132 -0.00933284736515167 0.4840104272223858 1.8262990555460612
Ni 5.044682901248271 0.635516188727036 8.965847422233093 2.571476485464913 1.9917577715049244 -0.9854565334227158
Ni 1.3756043426308147 9.524489617510422 8.476905489807825 1.1443602218718807 -1.6221508934367999 3.651524161301653
Ni 2.801722102700368 7.226663707188176 10.261762300208277 -0.06426240952349578 0.46345085790347923 -0.6731960544845438
Ni 3.7256224490255803 0.13747415066849616 4.407887464444992 -0.83370154020319 0.019478934660218068 -0.6688367490745836
Ni 8.42012525737975 5.684269424763352 0.46037549756142454 -0.8930035203976169 -2.1046212298655753 0.7168765260916299
Ni 7.535981015124872 0.9836142209691873 8.306050842416722 -0.6455191573945657 1.4347097596695744 -1.632344803250666
Ni 1.204359543333761 7.305678846794818 7.824576192383718 0.39084933238666886 -2.2008087702324417 0.7391836742292625
Ni 5.523491200635558 3.912379538044816 2.7484091577634002 0.3605259988127791 -2.762069020376927 0.5216974002501983
Ni 0.9345423022791182 8.215501837090407 3.898150247859511 -0.44868064157284016 -0.3899337625509349 -1.7326031712527965
Ni 7.953556098311356 0.3782025659659924 10.584214409690267 0.5020323177211032 -0.22574234334026927 1.212530193979899
P 6.690579982569107 8.345058530090544 11.92220098081221 -0.06305707636148494 0.4690021267390116 0.39870122433091976
P 7.044155147337107 4.981592712033567 3.7288186934858705 0.6429907345457572 1.2908614228916349 0.4271044580639612
P 8.388547337491849 9.334721981332287 2.8235077724679964 0.6665394683999747 -0.25261551358202944 0.2779133689168698
P 7.079418877298052 2.257525844459964 12.287932753765151 -0.18604708163317635 -0.8648486552299558 -0.15805239619246328
P 4.136154164871461 9.136710510410621 10.466837771504036 0.16786115475276897 -2.152159384655855 2.177795082946088
P 4.692908437584659 0.5182080146973767 2.131014399629593 -1.921173533528459 0.742915887578185 0.3005251927791147
P 7.1098807376472966 3.1900170356373643 8.751287320589062 0.3699174673300081 -0.8495775880034981 -1.0073286509054586
P 4.132168237947684 6.874364039035783 3.4851847719272304 0.35914223109137505 2.203979711761256 2.9055046950974797
