# total energy = -381163.7513123222 ev
CRYSTAL
PRIMVEC
9.32443290550238 0.00000000000000 0.00000000000000
0.00000000000000 9.32443290550238 0.00000000000000
0.00000000000000 0.00000000000000 13.64725008533352
PRIMCOORD
 96 1
Ni 1.1395202613521196 5.214399884075274 6.190160730021115 2.384981003440408 0.8094346972360253 0.39145662695336453
Ni 6.183693303557431 5.82953270386939 0.9732740197666827 0.12489673537610103 -0.471848080828239 0.218615759597817
Ni 0.14743606366561474 9.02932364984769 7.757547501131681 1.3288422730107823 1.3769815517201704 1.518780719278565
Ni 5.026456620231553 2.3684152093455397 4.774709061314237 -0.07752518807067295 -0.08331068440419846 -0.3581338444315187
Ni 3.1821397950328665 8.44072816528374 4.028613652960316 -1.6617654225046283 -0.2513057936316704 0.4672617470091372
Ni 7.001679154951077 7.548426585926488 9.371075294608007 -0.3948147447923201 -0.01828028636642658 0.4594232248013249
Ni 6.707614523484546 5.34697466703469 4.992246209400227 -0.0928862439077755 -0.5911194995977626 -0.5605521683338669
Ni 8.702884588332271 6.185670083272398 0.38783019342753816 -1.6073752777895223 -0.2040345193495325 0.1758858248294584
Ni 2.3924815699319977 3.2720925964964684 8.29726803968634 0.5882360074023805 -0.6587485116006462 0.9626336219909293
Ni 3.34459006009961 5.9224786482032945 0.8670696646935737 2.37595411735145 1.6711751458543025 0.26138246114138214
Ni 0.8242155048255765 2.3025660661988665 4.614572187979961 -0.1502436987813219 1.8639880854564026 1.1349348147929226
Ni -0.0032933896005954495 0.6867575165042347 3.3859914733657592 0.29139417701212394 -1.0032022874419109 -1.0340678666725158
Ni 1.7839038262681723 7.190470942163015 8.612765811968071 -0.044109588724704676 -0.09458162933232743 0.3844118042914412
Ni 7.98911792030741 2.9765547046763303 8.96119375048271 -0.7666782801051054 -0.8388622584685229 -2.1874408335659683
Ni 4.788301286741157 2.8027659295463816 2.4455189426618587 -2.8598434456149393 -1.8484131138362814 -1.2533829663302027
Ni 4.91170082800469 -0.07577127189523976 3.0386423717049964 0.13882105876667705 2.3354870104753394 -1.7342995851186132
Ni 5.59890218750153 2.011811608311643 8.10952338625738 -0.10870624165916762 0.7156776206875223 -0.9614557996327442
Ni 4.454859576329794 4.886263775823421 3.365439491432938 -0.511597592812035 -0.4957122890403463 0.4781215725417766
Ni 6.347682100006106 9.130838747757323 13.129704663337176 -0.7882650051369456 0.001489954281965176 -0.24163124665638386
Ni 8.91204093638141 6.7586564676342045 5.2320556972370165 -1.6011534652495263 -0.11705949871986937 -0.5610237086536467
Ni 5.923317847138894 3.2595792079234247 0.4068194004536214 -0.5319275626186387 0.8517931075975782 2.272048125294403
Ni 5.046793207770904 8.928815590660774 8.239022038896195 0.3361154311788986 0.4288453520144679 1.286884697632074
Ni 0.5036638900650156 2.9536259248692405 6.888886155790255 -0.12332759111676825 -1.1631423875753903 -0.2914605114736851
Ni 8.728974350796783 3.8152314720488025 10.768266926919512 0.1295298632727382 -0.020825678496099616 0.5842816507403227
P 6.414249224464348 3.384750391384334 5.928542326734629 1.2652378087862597 0.6055037933438927 1.6342870145787016
Ni 2.9865971186056663 1.714949647059782 3.75678779328716 0.10188433364132775 0.3852646392100397 -0.2450284452633909
P 7.375794040441141 8.403924629741411 7.035867187144122 -0.06562817952277084 0.11106034371364099 0.5729448855712649
Ni 3.422822049762679 6.435704743917831 5.12926408450201 -0.9249433065290069 -2.044934869748536 0.11520958999532416
P 6.450735729297673 1.3231836106242845 1.8830206801085163 -0.08150037066833705 -0.0005389032226055234 -0.25568566786692093
P 0.13716053892083505 4.176907564426765 12.62220470169321 0.3845935812849441 1.3134729896435637 1.6278857390380481
P 4.2819006757028255 4.201682581892173 10.910935408187662 -2.0140438365966347 -4.7821279528193905 0.9813024020450261
Ni 3.4148123621440165 3.7840319205097526 0.4457013520264498 1.3858377165592197 -3.2060142041473108 1.6864289866895796
Ni 2.84829713401894 3.3720132164284644 6.151975313564833 0.7728342724041722 -0.17980135783378065 -2.3934535596877944
Ni 2.7296903511209383 5.123645181406544 9.982662965120847 -0.8170767871623154 0.48189080977622173 -1.825442878193353
Ni 0.4705975871158888 4.626056159192003 8.545225216744536 0.0020735946995770736 1.3108355520207167 1.599093240286388
Ni 5.61916417957994 7.663965630493243 11.35646332576742 0.07402051735152412 0.4721301308450321 -0.5404690244307466
Ni 4.503225408318153 1.174580127994925 0.5146583285646251 -0.069793366644054 -0.2981610634223123 0.690711694770804
Ni 5.922814327777535 0.4167648402837322 6.019009836878732 0.6762168435887386 0.052061753692245825 -0.044412721787420284
Ni 0.49124747559119647 1.0842823225244655 11.952124865369115 -1.0537023530739915 0.800126532461222 -0.10933359083052138
Ni 1.2491009934761224 4.967563503817734 0.8152715090586139 0.5228304854133771 -1.2222862449253982 1.0383065873442119
Ni 8.512293185625104 3.8900040972106793 1.007320320583937 -1.3576116318339908 -0.6736076881006656 0.16725257463449258
Ni 8.455796448394052 8.227925964081052 13.134754776042957 -0.01702507380308681 -0.6409855311902702 -0.727390024028444
Ni 6.121256902748861 6.64800342575916 7.319989176110327 1.201319155755428 0.3755823789252693 -1.5701112512317412
Ni 7.786432728495001 1.8247448411339935 7.015982834586733 -0.5708203830290943 -0.129719353575725 -0.9824326589947275
Ni 8.971307030099942 7.836393038460998 2.521970898138196 0.97607149266339 -0.14244271467966435 0.1588214131480039
Ni 7.68590602044285 0.39887964607959253 8.927320884112147 0.30277387960397534 0.9069846651680574 0.28799517863290397
Ni 0.726628790377808 2.794178127105418 2.3682072744981637 0.7387211327705471 0.3714799267211215 -0.13562954841257288
Ni 1.5971634142321443 6.979654845107911 13.495464857201721 -0.8425039689861685 1.8022641260840444 -1.4699495567084748
Ni 8.785536359056161 9.34047064186997 5.661043003796118 -0.5591349762713661 0.2729817359432073 -1.5516345325837924
Ni 9.11360719627969 0.4852117703577156 0.8182711790317498 1.2758302395901253 1.0729496313393778 1.5329780938248696
Ni 7.612159082868927 6.304836332127465 11.427510840098499 0.4191636059503297 -0.11775472501468108 -0.18675027834778804
Ni 0.6509563574683166 5.721826182701558 10.981627661636004 0.5736622233532637 0.9047442058733127 0.48118787017192616
Ni 6.299185725961098 3.445060821556054 10.613016056276946 -0.445367260928891 -0.8253480260321722 -1.185763724519332
Ni 5.383162790024246 5.660201007530734 10.243011380684791 1.8940782199735635 2.444725213378577 -0.8981123023790919
Ni 5.546508200622296 2.006655197074018 12.279754656929823 -0.4317249875551081 -0.3374256653498898 -1.6465876863229256
Ni 2.662946062442959 0.6999571833179461 7.910641630509756 0.08818138223293845 -1.0708151014948784 -0.9188212527916692
P 3.197991330483071 5.137753047957226 7.711242368751847 -1.0002398623794775 -0.17436141776513195 -1.4914473215709345
Ni 1.906184435617574 0.6212916075381514 5.608596800094223 -0.7684055472088573 0.40020917633501396 -0.28925836161604374
P 1.0205591500146431 8.10697874859599 4.342336053271624 -0.7673488238095687 0.5411673360493519 -3.877359321466045
Ni 2.7123562308845086 8.1728465406079 1.604029926411868 0.539226153162581 -0.30410648237246984 0.04262194843558466
P 5.02016262821456 7.290270344470979 -0.321687330653405 -0.24318547851738118 -0.38258117884060566 1.2066014872002897
P 3.2310930662761455 8.45430453917521 9.739892037484655 0.7367632377132278 0.6816305584051423 -0.24425325766026323
P 1.721653914111957 9.252699757638926 13.226941711561778 0.7571240607577671 -0.43648461372728053 1.0945841788900181
Ni 6.990676324462112 9.337020601801395 3.7956548257678002 1.0135671756160027 -0.8634044665842614 -0.5508722220419416
Ni 7.575970959879372 1.805275425828095 13.22792450675969 1.4993920303393078 0.22656303946935172 -0.06415442319072176
Ni 1.3795125080682173 7.896507655547745 6.260962079331085 2.0509936743481068 -2.7552298859679065 2.83302735386336
Ni 3.6033337408100383 1.8906872286068446 9.61462387992452 1.6160108419773331 0.146938802777805 0.9567133998517523
Ni 7.203049601764382 4.323506294043304 12.559836369242749 1.0462584952014367 0.16097188383210342 0.5679011524997704
Ni 6.65743975156834 3.509203593533676 3.099645607220216 2.340517373810395 1.235942145145936 0.12429329746414722
Ni 4.845059108085506 7.01641175848715 2.779576065625994 -0.348708951573193 -0.343542319770589 -0.6081479158349591
Ni 8.296413921658553 4.847614002622774 6.736227477415428 -2.2236141981627315 -0.8698908456395534 0.4765855955132244
Ni 2.3606572814075575 1.092599716419514 1.5195943917281989 -0.6772036329820402 0.8822560520731257 -0.4290024464176224
Ni 2.5233126839918922 4.707663593462704 12.347158182993878 -1.2428951794250014 0.5099243188746702 -1.103592038815583
Ni 2.1528716249532285 6.092267241740222 2.96294103305439 -0.2447913895519204 0.4334969918538663 0.23291006473330214
Ni 8.042686785696484 5.7339386206720375 2.865280655588941 -0.7447729953915819 -0.1578292244380637 -0.6284187502688532
Ni 5.669805173127034 4.5193380278816555 8.212437149059678 0.25788010441507847 -0.9901611379872366 -0.7658061619127973
Ni 2.9284406323686505 7.03762484269257 11.386487066353371 0.22977023355273973 0.4620722323883978 0.24437024285410175
Ni 1.532022927964421 0.6375869859809618 9.924689237763141 -0.09014956170290281 -0.8147581663314679 0.19865191488138045
Ni 0.3063840718411251 8.160137338949882 11.131706269505493 0.1744712038701189 -0.6371224486904382 -0.7602682628137035
Ni 9.013360221206073 4.419603896602015 4.533343325673542 -0.03502459570430097 -0.712205860088838 -1.0528754862973222
Ni 4.108923126210622 8.228280292520527 6.355360770266838 -2.075692205536051 0.6894287142933223 0.5049032115109949
Ni 1.2739039842393836 2.6316532665777315 -0.15849390830702512 0.33438919251641125 -0.1730753519638568 0.8696278217861539
Ni 8.818833907934208 6.835555063432933 7.936503876818397 -0.14244091490745145 -0.720453959030243 -0.488775452711197
Ni 5.559590379585023 7.33574560234783 5.014763781728873 1.37576490570425 0.42782488116975353 -1.1935048019173315
Ni 4.2134033936927064 6.721051030886749 8.487306503539273 -0.4924176774494745 0.8855349799347135 0.8852483019322303
Ni 5.813233595653532 0.8865055120420481 10.043201843891703 -0.31784877165922676 -0.17737269378763 2.725581981194487
Ni 4.964458467756018 5.093396721994506 12.627335936962767 0.13361380353412472 1.0334384606186329 1.4277320428001605
Ni 6.822174502626437 8.038378897827076 1.6416549444678215 -0.20604666468355481 0.4048844703234963 -0.3678310171146246
P 0.8775270158743999 2.62514481261053 9.611253097533197 -1.2895475891762178 -0.04243477212544304 -0.02939208000887196
Ni 4.080343740237166 0.017468392066125465 11.8341306976941 -1.019643977937702 -0.2177675526649088 0.05298837927157326
P 7.816429428226358 0.180466933770794 11.177725141803961 -0.6183816777478254 -0.4534145567133998 0.5557442054222622
Ni 7.655527018974164 2.008091159697154 4.627618934098741 0.31382782342529175 1.0766023976006167 0.34392747102414967
P 7.544454377631318 5.366089753901114 9.213817806066098 0.2721263299214474 -0.20211441950868417 -0.018093624276917224
P 2.052438161227256 4.238588686193297 4.069787550070591 -0.20507015970289846 -0.5598695404445454 0.38399220025551933
P 3.8053289246087334 1.161041051833927 6.1301263030548805 1.357895224512681 0.5345909683834148 0.01997978555603656
Ni 3.288829953045361 2.20356856509603 11.873407072766659 -1.0791670730039995 1.0481837372486078 0.9149969939495727
