# total energy = -381174.4667873906 ev
CRYSTAL
PRIMVEC
9.14346949962411 0.00000000000000 0.00000000000000

0.00000000000000 9.14346949962411 0.00000000000000

0.00000000000000 0.00000000000000 13.38239184876765

PRIMCOORD
 96 1
Ni 4.838349102353633 5.764235096549203 11.858445201394966 -0.7085795761901603 -1.3851836279149885 -0.10987249405312692
Ni 6.813155614434761 2.300826055533136 13.391491391841491 -0.29368734392167484 0.09971072302877666 -0.23491861052289864
Ni 4.947330113639376 5.752513168831414 6.613443956703137 -0.47610865587680584 -0.5489567501867836 2.1354523563138192
Ni 0.1656046883299888 8.204627068372766 4.458477267419987 -0.07065108665865896 -1.1403202474745522 1.5262898831714167
Ni 7.358289257597447 0.2206666608077763 5.507416072244261 -0.5827518443593576 0.28701378855624116 0.7540649622164691
Ni 8.660301007330425 1.0584480129572709 3.5648951504685256 -0.3057825845233121 1.8675467493419384 -0.13979782085764955
Ni 8.699307047614424 3.772979483091864 3.2215962786225414 0.42961822562475044 -0.959993870375237 -0.5500723518484655
Ni 2.814570168387578 2.4878008604481607 5.6196814177236325 -1.1354014700166963 -2.016299208289715 -0.7681204118682707
Ni 6.151031280828154 2.042065872683354 8.78487071952573 -0.8936190424944288 1.0784947295273233 -3.262125188208266
Ni 3.618089112156341 8.888284272318993 1.8613296569117361 -0.7103214985819315 -0.7909775189721023 0.9505952027691565
Ni 5.903608999983097 4.14376545252382 9.994986944816535 -0.41508917877063994 0.9589623437869291 2.3808646672791896
Ni 5.992309796231357 0.022582540621992636 3.3731794566910414 0.9852346472198966 2.2093913696951306 1.8139837285138178
Ni 0.643069343463181 8.876022879909042 1.397255612654286 1.916222103060455 2.1056401580483928 1.2159201934980541
Ni 4.507574954835127 7.675476209648999 0.11401083377993701 -0.6802974414160156 -1.6696124293528731 -0.6998203419402915
Ni 8.644272505544711 0.7091775412731529 10.042052953340184 -0.39046109580931465 -0.7625259484996286 1.4841222486644312
Ni 4.166898430001204 1.9060110486266488 10.08141101719449 0.0762550631089977 -0.42747932490487667 -0.011801363510302256
Ni 7.099126762095883 0.13042336127871293 12.11775582110014 -1.1649164487566777 1.293624330348753 0.2821456618306625
Ni 2.3780335107975725 8.819196217845036 13.318008985993767 -0.008601882736398088 1.3948951987757976 -1.7053926722762756
Ni 4.854825634137919 6.40401279104327 4.500806044468918 -0.29619982593088345 -0.02336644264008234 -1.0007553685633153
Ni 2.7858322441933425 2.0324560863874135 12.15122457634054 -1.2297624986977853 -0.06338180669075535 1.2332879953525406
Ni 6.857784888374329 4.607778235536568 8.121747004718221 0.6575928007296482 0.9253572541379741 -1.74245126769147
Ni 7.026884210693194 7.324677864235051 6.86223592925812 0.6624295599966592 -0.7159115910751993 1.124062133744477
Ni 1.3263973825124957 4.992096539619324 9.620762116558792 -0.48027384299808906 -0.27690241115385217 -1.0115025797774901
Ni 8.29843906399251 7.453655643008162 9.10256879151443 -1.6601535979328181 -0.033696620921496806 -3.2746498030378377
P 0.927056358273477 6.30542790441831 5.345970748125523 -0.08769827194893284 -0.7449419168692782 1.9049431877125258
Ni 7.042757273499809 3.10075161584395 4.52564427898169 -0.9566514362655655 -0.9749530627882305 0.8815297154300624
P 4.44472274646377 3.4929150166364287 2.3926914065264238 0.497545228484027 0.2715691718663968 -0.18744113376722557
Ni 5.140623055881228 8.302005017042383 6.279566515684306 -0.2761652758775115 0.012437454432404385 -0.3978540458392761
P 5.7393831468323935 3.1987787508380316 6.738997506201433 -0.3880185478060931 0.7247281609255648 -0.5851617393524309
P 7.525468451350995 0.452692253599803 7.762308995107286 0.2619023382005941 -0.7033949466654273 0.46257231195326787
P 3.5512320642058954 4.0230533700509294 10.38476298575947 -0.6295634053962577 0.8590770428535012 0.46501100330174755
Ni 6.32479377251993 5.161031279489734 3.245149855690423 0.5377894207160544 -0.690433758519069 -0.6266254058138564
Ni 5.375180475338665 7.447428940374921 2.399730049238712 0.07122752798741926 -3.473563456221037 -0.9796638380003386
Ni 3.2368978745942414 6.373747907466139 9.636191721101513 1.0638157873589098 -0.4718719920876389 0.5980900173783248
Ni 5.892563688997849 4.426380946930319 0.910225059878075 0.3201195699712745 0.3373703866319222 0.6133700834658469
Ni -0.25106138164979913 6.00217559966934 3.620459099414103 -0.5956528686917419 -0.30568745370634454 -0.7902601811901036
Ni 8.816828059281146 3.512006580657289 11.389245328215058 0.31365890194759527 -0.405249824082715 0.01726701461056381
Ni 4.64269714501725 0.5307445654329789 12.286882573827079 0.8938183029894284 -0.130035342154247 -1.0784078262404717
Ni 6.42723720321424 1.9847911806207732 2.3998507430342464 -1.7314574876841275 3.3372173413574138 1.4651071410145091
Ni 5.665723357679112 6.690294816662586 8.858005673537823 -0.2282805363810907 0.5523809453769841 0.5977395760174415
Ni 7.648347536061886 7.379630115080534 11.210723660722103 -1.050110007737043 -1.383922501814378 -1.2044772417684353
Ni 2.5804424919899978 4.510912321151034 6.6406375489226965 0.2452197353385906 1.129330838342584 1.3208170887134607
Ni 0.13572748785366553 8.0343116646292 6.98408271627842 -0.5322618060296058 0.7132006199019395 -0.9654885749412211
Ni 1.5652522325684979 4.50091850914203 2.0151474988914897 -0.5950036651435172 -0.9841061900424083 -1.4077180615720788
Ni 8.902356071661954 5.542825986029504 7.140161738230566 -0.45344052485532876 0.2591589711275021 0.5217765902275658
Ni 2.2576048758747995 0.057375270225525875 6.436823216489848 1.4014468838513863 -0.09123662411949449 0.007896629139257368
Ni 8.380145106181402 4.241408561804839 0.5893542040219224 0.7220022773539695 -0.16005785665826627 1.2047155830314864
Ni 3.690121363763782 5.580689092643672 2.2522029141777096 1.5853962024152695 -0.3031407760250908 0.9986388364409446
Ni 9.133265246845289 5.70433622878069 12.042332256707574 -0.9418891903547262 1.1996849625861146 -0.3469192066626219
Ni 0.53318770044561 3.920107048541894 5.64983200793378 -1.1789328176404277 -0.61097304398858 -1.1194194927661432
Ni 1.9841145638882332 6.810641160361132 12.247645203768307 1.5301205697714164 -0.6443217946523548 0.345897707376643
Ni -0.13295518794412298 8.27053319550991 12.827825764982697 0.6737799520124718 -0.49383178418818174 -1.5958006855780453
Ni 7.081982757048416 7.422961016371175 4.468554285000154 -1.1036426895478604 -1.7774054151691518 -0.22460591574298092
Ni 4.476542019831871 1.7397279148702482 0.8720867348362118 0.002654921124343815 1.174970747668886 -0.29581261779479373
Ni 2.9149471750068328 2.103409408610534 8.069435387823516 -1.3061162921681764 -0.20641021867056064 -1.0839130723294172
Ni 6.220174196118261 -0.02884124539798825 0.9646552186231798 -0.6212044919086012 -0.16427729405625258 -0.8133857114639733
P 1.4475117776371678 2.661545065201219 3.718457889653173 -0.30417281683403097 -0.6160671706820358 -0.44067294077701524
Ni 6.810494864851393 2.24175924347626 10.93315993313626 -0.4470492766170042 -0.9293915721083478 2.216977152462188
P 7.924215150081701 1.010124777396808 1.5796440533390121 2.742490326914051 -0.7001257889958523 -2.4144034224665836
Ni 4.440845915455703 0.29348525078006127 8.25289452877014 -0.5017456397186197 0.30377763827814136 -0.2499780759591824
P 8.373314934570491 5.400325016074951 9.83184276409096 -0.9468349643957757 -0.6353401599790349 0.13100876181110985
P 2.520013302998683 6.85635850715438 1.082944281716029 1.2317149944384658 0.9194745701049519 -0.31252067457809407
P 1.015373128808673 3.153600868736944 0.08494831642346942 1.684582163288828 0.6180695458240452 0.020082886792804122
Ni 0.1875508434846194 1.160543991815952 5.841721427629078 2.6477420900968722 0.7166199299961336 0.1810887091866365
Ni 4.249555393003396 3.8797752052008905 8.372465506267073 0.6036006627839089 1.141265384996641 -1.1473205900517853
Ni 4.796929186158951 3.20393566755631 11.9352064553547 2.0826940907751808 -0.32125625467887897 0.2911077561199567
Ni 6.997341661195398 5.25774175489617 5.5908959474887325 0.44791393861014467 -0.5942606163299056 -0.191161005820974
Ni 0.8596433873860256 7.580320124033533 10.38072157230295 2.0595896435472336 0.6747603136478701 0.5117593152008799
Ni 0.5052900610854345 6.521058342303342 0.8980880186514035 -1.1293994867969903 -0.8254788951830815 0.5756435154493507
Ni 3.886157346813228 1.5061671335729045 3.2125369291819914 0.504787254758421 2.0219355806398855 1.2990879245664853
Ni 3.728258774458709 4.080072044971468 0.20469942026676663 -2.306854434340311 0.6372273496994186 1.3881244557108674
Ni 3.302182245814999 8.679602871146534 10.395535821357832 1.0499192318824757 -0.6942518467135786 -0.7848811762663773
Ni 1.8333661845721783 4.398392787223493 11.742366114846101 1.8496349020585243 -0.8611678639442588 1.3704774320530655
Ni 1.5124212666142207 2.3823492283348555 10.083940100819094 -0.15412452189296683 0.6357474227197826 -0.5577877182148523
Ni 6.23000342567881 9.256391205228864 9.789580734368347 -0.10421169622292374 -2.5813392371916057 0.9572530744053064
Ni 1.6905726235981484 6.618225991177711 7.848411217363817 1.0177675868505955 0.5599947531685 0.2700277955212059
Ni 5.377402338392817 1.3778111107161821 5.489135533955515 -1.2565909317445392 1.2557974893089663 -0.10993728585279132
Ni 6.676607043032688 6.824557520724997 13.185415879436249 0.25812461632571676 -0.05618143228757421 1.5341492313148353
Ni 2.249933505082893 4.654656802938364 4.224218839410578 0.8685893532193106 0.37987714964588126 0.28146123416912816
Ni 2.9428164696119965 6.966738469251997 5.67630235172707 -0.1772690783302302 -0.5129577063843552 0.7231371622893611
Ni 8.197568310027888 2.844853338903425 9.290617954079098 2.407332374552415 1.7380248564890002 -1.8503021033288778
Ni 4.042364377336397 8.579500168608039 4.336617679542584 -1.2041797651326744 0.3703486413301557 -0.48046539018360485
Ni 8.102439654820497 8.109443552349223 2.434752279923148 -2.2875274518769246 -1.7064077438043517 0.15590706771468632
Ni 2.1246771183387527 1.7209015114607888 1.3955558417005134 -0.5214377188309084 0.7502628148615595 0.3718774192698563
Ni -0.20872254678457242 1.5568310972891815 12.696757789114198 0.9274190217630093 -0.7869809962181995 0.45419437230221776
Ni 2.0096065564601484 6.941484206883407 3.4604319273928903 0.5379105196749511 0.8192259722948343 -1.6489289328615924
Ni 1.8393734439408111 0.3739624106871511 3.9390532313999516 1.1705091123531066 1.4710361049044343 -0.6987361077371773
Ni 4.500881935264595 3.886815676607051 5.009150024320142 1.3125191103707268 0.31675733836726094 -0.9233870177854808
P 0.8290228228508442 2.7749240852484736 7.459398656112329 0.8379050367615762 -0.48103694641635864 0.9366585380834062
Ni 7.869464055562108 2.6132949773956256 6.767555304049304 -1.0869066077401024 0.35707197882590763 0.859618517179268
P 7.625580297358848 6.028426500198022 1.6839061200887568 -0.9713113522705853 -0.3001420984080831 0.17839007930855083
Ni 7.041842926563945 4.66490663208941 12.254255932114608 -1.9056155311892022 -0.07318233772094493 -1.9117532686558238
P 1.6191895583151714 0.47497671712070366 11.06814771431881 -2.1196984359136724 -0.1407686694113511 0.8966930534340621
P 5.169562136401353 7.664449185602467 11.165063003438881 0.8132111335593221 1.306225821162847 -0.35551723274427804
P 3.7358021366795953 7.520567551774758 7.687086587040612 -0.4118444465810972 -1.078106492949969 0.8105634115238299
Ni 1.1176885509319614 0.5690063273111837 8.458635390196857 0.1117152036888205 -0.35639886401828297 -0.4294624167731765
