# total energy = -340892.52439261106 ev
CRYSTAL
PRIMVEC
9.09722661901093 0.00000000000000 0.00000000000000
0.00000000000000 9.09722661901093 0.00000000000000
0.00000000000000 0.00000000000000 13.31471071868485
PRIMCOORD
 96 1
Ni 6.336909771234943 2.0503329489401465 11.448521358840509 0.38354020031976527 0.4342729507879424 0.07853460317179378
Ni 4.663938882171389 0.44039037547754123 6.19939609275336 -0.457490012334354 -0.21810256740682438 -0.4341374536513426
Ni 2.7951319943864092 1.383488038907266 4.779475480441553 0.23116531412805347 0.4437402668484293 0.4100457028094615
Ni 3.390418119361329 4.184596911221858 4.766173515591343 0.08783402619584872 0.5333398695851331 -0.10478839466200018
Ni 4.997006545347343 4.677530138829995 2.8219460700231167 0.8945518387213434 -0.6260512784779411 -0.4011921090735736
Ni 7.352287629798282 5.9731207735636 2.5746925461113044 -1.0519303487752334 1.10213782286756 -1.1410962064086283
Ni 4.867616690290214 4.8913604519227185 11.494789853730515 0.7321265102721649 -0.30433659610540487 -0.6095851625021178
Ni 5.973584732124235 8.140334890877085 12.586928291566936 -1.3142533194530142 -0.7484314180797755 0.2128778286727753
Ni 1.9888811827226887 6.436442528331199 0.42724397320354435 -0.47865121979300146 0.7239372895931532 -0.31328043556225404
Ni 2.833485902065581 1.4204227792244946 0.3249811383808845 0.2513803556233477 0.67350844351864 0.3562443407182897
Ni 0.6535547715773536 9.009984275267595 4.6600689219420905 0.1884459208826561 0.46946981040404956 0.16014938793080807
Ni 8.845852111522905 2.2975773756252797 1.4200143137466021 -0.48141027059537733 0.7319593885666814 -0.6621305406990016
Ni 6.986442658897458 0.9828734676388426 4.999021581056768 0.28860298742023194 -0.6455803496498043 -0.8294705328409779
Ni 0.8154189967109384 7.5241069500868285 2.7810040013537356 -0.49038007819415547 -0.37629148917715194 -0.9999426428540328
Ni 7.435472670552159 3.956092771495712 3.9010108833989743 1.9336495545082824 -1.236321897082858 -0.33459076700425605
Ni 7.60901136668306 3.7531609359645746 12.967556255821332 0.3361370284454533 0.1819466863115576 -0.8662499064528565
Ni 8.27802141666557 8.569414684424475 6.601646345378689 0.09858252296160441 1.2045582315180157 0.6252040999862974
Ni 6.759666992240345 1.1177034642500856 0.456018501189602 0.7078753510342841 -0.42156450208233853 -1.0714064552219742
Ni 1.5508406208963639 6.675272020338146 9.33852515844802 1.1525070193487312 -0.7821491220471949 0.6045062053173138
Ni 0.18932511358717755 4.704930985587504 1.783092818014307 -0.6298616533629668 0.02225058386808426 -1.584972998834922
Ni 6.3642469374057 2.093690331292834 7.152915539066685 0.6774759128068204 0.11300872568926344 0.13196958306248238
Ni 3.575464807241316 4.55233410527194 0.2890971277450942 -0.3825027601941864 0.17677876895737296 0.40126204307956054
Ni 6.134669324931418 5.629700466426805 4.823573377045921 -1.285236877616006 1.3486209982996065 0.233187743874721
Ni 5.111058476223476 3.065601640783337 9.341534521033472 0.6961788885329623 -0.8046118219260854 -0.1427885280548573
P 0.11888619713341651 5.5341250029359665 12.666683677862785 0.42928372510346713 -0.2721024186620475 -0.4188447891583303
P 4.14806244887851 6.635680889830614 12.634129252191553 -0.506004929215606 -1.2613657274253631 0.2823413227812363
P 2.5020830313719054 8.33801762661437 1.5045357370996415 0.09494518331933326 0.6390281503535833 -0.7883472804381069
P 6.258846469101412 8.089781602221212 5.794455790199015 0.7803295523399529 -1.0807516438823 0.1740181754931003
P 4.767874696980338 1.1078602649832774 12.618151792975015 -0.5421024462691116 -0.20717743585388834 0.2557622867411273
P 3.8840973195571538 5.924960055524336 8.301216615529324 -0.0660279860643508 0.11529932149565304 0.32744772820157153
P 5.075743042255129 0.9511150493020336 3.9022089881526147 -2.0238613369076885 -0.3807742075388539 -0.057242526562236905
P 0.04637948105549141 5.6686184021600825 3.743018437940023 1.2441203100813543 0.17922465939470422 0.5107270172816236
Ni 1.5328554037517432 1.0743733735774352 2.42538067434957 0.823194470024279 -0.6240288487312736 0.7417270094764065
Ni 1.9241999010341428 6.495656376785594 4.912395969172848 -0.1960630711082817 -0.34135173987717343 -0.2254209554451085
Ni 6.012666417937735 5.538309727208362 9.158909514895466 -0.29249203806199303 0.4657213991052108 0.5326569845854955
Ni 8.63709805091713 2.4225277840629977 10.188243428907246 -0.17018414645899077 -0.4342181862906071 -0.014503850043129861
Ni 2.2863150089965285 5.187475180328086 6.90888334312195 0.0655279064994807 -0.7735652370329258 0.9447796245286438
Ni 0.5019112806177606 -0.11935288486205538 9.2283058891718 -0.662730893287162 0.9975728570702755 -0.4873734301573477
Ni 1.096206717607324 1.0346275902163584 11.419561247430197 1.3165878811234617 0.33945452285446054 -0.4833077447284064
Ni 4.158360509479275 6.627174982885636 1.863966253469019 -0.2380021345442288 1.36308011114773 -1.1724479812470323
Ni 5.775847413026874 7.977876616841352 8.036147082889123 -0.2758060927658798 0.17943908939835548 0.5739198478900246
Ni 5.396665907814459 2.888678776327804 5.009167717971992 -0.4308865508142128 -0.0012570123355526738 -0.12520423931419083
Ni 1.1280470109842453 7.3248321996806975 7.170917131219329 -0.3060214400069956 0.8015725208791292 -1.0870595883781988
Ni 5.1470289105127165 4.470932120947171 7.10538252966828 0.2139795463773863 0.361467536790442 -0.27688955563804574
Ni 8.137059889272601 7.144425097407061 8.995125774932587 -0.4080759806776005 0.1638731166392984 0.9789812101110172
Ni 4.935436515183056 0.3252458676772469 10.466880565416687 -1.0718211741618897 -0.9161084818461965 0.3911200695495522
Ni 7.853653986537965 7.5176570163713325 4.327400627017349 0.5378516414125575 0.1323832735611333 0.4880550296054047
Ni 7.2606512654595035 6.415273281848886 6.8805900584272175 -0.2525180687722167 -1.4244091490745145 -0.16925752087966334
Ni 2.300242863042262 5.258651881865523 2.5860495238975183 1.0266085821809934 -0.0664560747407049 0.6439554124518716
Ni 2.4150043775993653 5.450676142608396 11.416219836070956 -1.0650586586270754 -0.12743030043123213 0.8859579264047451
Ni 1.2071019108258014 3.2675418786064507 3.560859209807989 -0.3328326466625687 -0.16993654922455895 0.9504116260034406
Ni 3.9014184391541993 2.5987956481976338 2.911887621031576 -1.040628036388537 -0.4362344453896874 -0.8497596221073171
Ni 1.09573366182001 3.1259708370259793 8.245467900717006 -0.26447524113409293 -0.04731729702872496 -0.654207429197183
Ni 3.5523851431563878 2.7370098131335094 7.248341808039986 -0.43650672521446754 -0.26726308829187523 -0.8752312840158605
Ni 4.281909945008408 6.791188882683497 6.357494975764457 0.2264385980763455 0.3932124333022067 -1.2030808756415408
Ni 0.46583349905370497 7.529046744173592 11.509382715046492 1.4034446310077053 -1.0033997481646977 -0.3986693426517198
P 0.15106945595614057 5.56987710378491 7.9738738371025395 0.07215929577306929 -0.7806116023567459 0.3943429473622241
P 8.527003413646415 1.3999813108765111 7.828304564396595 0.1823549774935698 0.29442139387422195 0.46450321042739356
P 1.6704964434068343 3.129327713670575 10.605899834913664 -0.8155930035279374 -0.2542713040178976 -0.4640306416663492
P 4.055025111631147 6.224158743773925 4.10889342968889 -0.5959202634205156 -0.6417962000170236 -0.5496427205102147
P 6.901329006087608 3.8210353442174916 10.376659729549178 0.14905970577554972 1.5550597562152575 0.08295021574098618
P 6.295599264885057 7.523715769339628 10.242514754106875 0.234507491127409 0.4331133832622025 0.20434382305983517
P 2.6521599798973536 8.436622466589355 5.838527304846013 -0.6926328230529167 0.18074006759796615 0.2350541076594984
P 6.971823415624112 3.996111471657163 1.6906622657864403 -0.6149847362511344 0.23217704322201949 -0.3272237851162236
Ni 5.212028595135032 2.902515658106746 0.6242817155692801 -0.41361902198301664 0.5634785979520425 -0.21484986479748158
Ni 1.509257197746105 0.7635811796479748 6.987746291480576 -0.5087143577269689 1.2764979550811113 0.2549783573872512
Ni 6.966774454817199 0.7162846981432281 9.306037142531544 0.3700038563962273 0.14779832256462286 -1.1838608510696642
Ni 2.884303010295147 1.5843639012089228 9.22140928162636 -0.48799872244617254 -0.9294849031531025 1.0240495632045654
Ni 6.354121724111839 2.0662167067218906 2.646657977201822 1.3749377818172643 0.26316449274246934 0.07014380800493726
Ni 3.956520341149631 7.008021280580332 10.229106351704518 0.550409166362594 0.09321200267831044 0.41066045357532505
Ni 8.43936982904645 7.331500466836493 0.2826326384669113 -0.8937689378087317 -0.4802887553964245 0.8107526447165005
Ni 7.723845659053596 3.8383746582678953 8.25753082329352 0.143233843122392 0.23080253147199606 -0.7394117310796685
Ni 2.9497211673447015 8.530232929117505 12.368727670777561 0.7241409209635271 -0.8242596780639998 -0.16274568790307453
Ni 0.12492948481635616 4.80167089409327 10.101631462863343 0.19325928311089943 0.21279169671687223 0.5103542073232371
Ni 8.709675725363153 2.535824645124763 5.7864402237720425 0.6479943584079356 -0.7702945367014541 0.26329176234895296
Ni 3.5140494299305747 2.898558364501329 11.667002174211598 0.45611035837800806 -0.6237174881384419 0.325851073138413
Ni 1.1002458862528535 3.4596116254827187 12.833530454048525 0.11902433575572403 0.1786765002007181 -0.706209533296087
Ni 3.233927626027101 8.268069050678614 8.14042768258921 0.21203347839460904 0.3220373558192776 0.2163984402315241
Ni 5.581021206466833 7.794876804964168 3.5526180321593737 0.10950945428675334 0.7730710710053267 0.09023183700406395
Ni 3.0515282311107375 8.210947564360415 3.6416271174332233 0.8525454123825704 0.6370846534739673 -0.20494160454483412
Ni 3.1205034037918282 4.20515664351667 9.47273745336775 -0.010436879062607832 0.7191552948234775 -1.0305022608084446
Ni 7.329872063260931 5.8542291180941755 11.428921383960343 -0.12792780889294098 0.08390666611698452 0.22244027555022977
Ni 0.7002371902812597 9.242145500118747 0.26638317217266655 0.12737630726484517 -0.22981805607153968 0.351208320956279
Ni 4.795639432805014 0.33242266980440494 1.5752102717243917 -0.7030414199807505 -0.9105749536224769 0.6970916301552188
Ni 5.9692726466783315 5.707645504613509 0.32114392816763154 0.2878414266638591 0.3145572453921486 0.5805530369358259
Ni 7.780348533957612 -0.16164043335727843 11.37069640404597 0.2452374759504035 0.23613448520787075 -0.19072700360734895
Ni -0.008528650011675337 4.947490340532891 5.881360686941983 0.22736368099377616 -0.10715149557753804 -0.4741926698010156
Ni 8.105346957069187 9.234503829708286 2.1239231447155547 0.6993097208524601 -0.9175680971108584 0.9188114825996564
P 8.711376906752148 1.650609905886277 3.566930698893634 -0.2413759361124682 -0.0354853373908034 1.1133645448213147
P 2.1354284072966383 3.1775794039766296 1.4527943506394765 -0.12531531097075838 0.481401528844629 1.0436642521116994
P 4.855844878967432 1.0074450768991468 8.316674623102486 -0.24385525089089619 0.5628818449083081 0.4879796962827789
P 8.38010139723198 1.6651563713461905 12.412478963045455 0.3673353084251287 0.3368795630384327 0.7601564198261876
P 6.6414849204518935 7.850087873679748 1.4836048379563214 -1.484627984656256 -0.5999782355399731 -0.40643278864722265
P 1.7937001843221614 3.240304781929164 5.856142264864794 -0.09191565246439008 -0.6901110850723277 0.6899992420848118
P 7.018191980007588 4.080515540786042 6.027489439088694 -0.3009962188782623 -0.37437087511567135 1.326402039000406
P 2.293610984793183 8.519161604249014 10.279010098375501 0.33842865269310746 0.7484689561859303 -0.008168908964037545
