# total energy = -340865.7208601778 ev
CRYSTAL
PRIMVEC
9.27848831253104 0.00000000000000 0.00000000000000

0.00000000000000 9.27848831253104 0.00000000000000

0.00000000000000 0.00000000000000 13.58000552936048

PRIMCOORD
 96 1
Ni 3.7279017885267494 8.04097928309788 11.361127692804988 -0.2538694405937886 1.307166844919878 -0.20687224590864375
Ni 3.0892727108434768 1.5374733623814283 13.43805422612194 -1.7490723725524133 -0.6194911087619202 -1.5844412947011681
Ni 8.991903723152587 0.6560577902829074 12.90775428398728 -2.911844778382895 -0.5661535736810444 0.8793445348532856
Ni 0.6204766429888917 6.4506370938463915 4.969344978691745 -0.12005791922656096 0.041724376321979756 -1.0186798142522198
Ni 5.569421937097185 4.092806180093207 9.558055744442372 -0.3573334600174104 -1.9983639639675328 0.16834272237487785
Ni 3.7490752990422767 1.544061089141299 3.3802127043268593 0.6296549366687995 2.6935064408161806 3.1022221119603093
Ni 1.7466847186934835 6.888962164076025 11.955266418638152 -0.39483659916919095 -0.6588757812071298 0.25705555163125404
Ni 6.331278619143612 6.712782226447264 3.430648711539964 4.0383430323726905 0.208466329868641 -2.179554745949672
Ni 1.9106356086187102 7.199680183420451 7.458533308339067 0.0726909999068232 -0.3707515331955292 -1.6165931968433642
Ni 8.581701751245724 7.319381962193815 2.3110042385254173 0.4117624283902521 -0.49581590449774615 -0.17516154506892415
Ni 2.421175154020276 8.029928603420405 4.796715918571439 -0.4163171376404701 0.22167511524943115 1.1089872416892257
Ni 5.394615215750763 8.555953945951865 9.820937589021744 1.4729904004173278 0.006292517876931098 -0.91008927223531
Ni 8.113156644316234 4.148625566272616 11.577552145994684 -0.3743724177775682 -0.6507297550612277 -1.176514180896606
Ni 4.057278848031878 7.0813980133713965 1.177545024140771 0.33625941295593054 0.13607846302453339 -0.05195402446978794
Ni 4.340875845800104 -0.04130504678438776 4.984066228377957 -0.3243726888206736 2.708996823142296 0.48832525254765574
Ni 2.0123463983957524 7.111822176815925 2.7092787136015577 0.9935819907433276 -2.2079014154131653 -0.8658665549715088
Ni 1.437210016793879 8.325160825634939 0.39217201325928536 0.06790694825461853 -0.5657092870547741 0.24904502262195174
Ni -0.0929110713839983 6.0372618789087165 7.174737750919206 -0.20136931381254353 -2.02193660908115 1.3486755056866258
Ni 2.7055144308600374 6.617269466917538 9.707367963228096 0.36732836644659317 -1.3106887420302071 0.051341330586453515
Ni -0.08549477561052725 5.562713589988189 13.176693125790376 -0.47117522313093047 0.8812877746225853 0.09580418888551887
Ni 1.2265883302459082 1.0462701867933413 4.346239739940781 2.3068572625537884 0.15735871255954834 -0.38974170114478685
Ni 4.762499636920207 2.206897743044997 1.1983770862833925 0.5079707946927251 1.2262220896446945 0.19427949684529766
Ni 8.798168885482031 8.690751825342566 4.467034524646981 1.0318402628935779 -2.6523672475737095 0.8494117518495952
Ni 8.575772797161841 7.545044078428758 11.989447442033486 -0.26139917331193047 1.0325812548246602 0.5840132275702845
P 4.206922308853273 8.925636759041328 13.284342148139697 -0.36839126049346876 -0.34527524330129566 0.3769684606395185
P 1.0687055717304774 2.084802114265933 12.260735597097986 1.0744642682116914 2.0596469791477303 0.1310604409846517
P 8.186902070073208 5.22982926187006 4.654981441257245 -0.6979310953373786 -0.643420365884008 0.28052149596367815
P 3.452182227405185 4.457135305379226 10.015702338904056 -0.3388551987075648 1.4147893665965634 -0.10432970985802678
P 5.126967939532139 3.4085083825337623 4.363310302888401 -0.5339715896318611 0.1898595134007311 -0.697955777927727
P 0.696091684157292 2.3557989247948576 6.073019317482222 -0.4576733319897537 -0.594635226060505 0.6201994476828545
P 2.7175857442608704 5.807303822547268 5.317726238125841 1.3450793036949353 0.6560650512312121 -0.5845613867642707
P 2.737720064076249 9.488275016776235 6.574230270652277 -0.44159031038496205 0.5667115030670434 -0.5364321353572117
Ni 8.330013475065098 1.5151493193050223 4.292191617195822 -2.2901044685754814 2.3916553301367904 -0.830376589595015
Ni 3.9992326246378647 6.138768541941087 12.46245271833406 0.12733825493805812 -0.25055143196414914 0.5429478249885423
Ni 3.6726112761858083 3.9558000204646904 12.833852051776447 0.7343289172401224 0.09070671975795346 1.6775715362989496
Ni 6.0127573910596785 1.8487295340527163 3.1659204477701492 1.6440222395885944 -0.4162225210441348 0.15370466074672884
Ni 5.180588323962127 7.178914926394267 5.24294162166872 -2.2269558609414553 -2.426111454932131 2.1591993222217716
Ni 0.8430480947397317 2.108091120135334 9.835481619579626 0.24685161451505871 -0.3369644094427552 -0.11036048943313898
Ni 5.676514250142854 9.104117761791846 1.2639453802185705 0.13133709168480606 -0.05947938631255562 0.8506214558869802
Ni 7.92246515083897 0.33652335126632893 2.3175641298201053 -0.2770708184109164 0.5005032826710865 -0.558642867126296
Ni 3.1123575899682057 9.44410941201992 2.0320984444892907 -0.694007077692624 -3.117324514819386 -2.675414616311476
Ni 7.518173576039202 9.255403515059012 8.55978967305402 0.37011724204564 -0.4931095613101766 0.5859747221720295
Ni 1.5592778101077602 4.827801638238472 8.458428682289439 0.2916520586592009 -0.3539869121426807 2.159331476924262
Ni 6.955488925862323 0.37988729462538606 11.352436532726157 1.0141958103389372 -1.476616170095373 0.8037718425232931
Ni 0.3837406508554906 3.4152074511543633 4.062948004440724 -0.3490398525500505 1.2505413831163494 -0.006520831837653285
Ni 2.31814681889126 2.31934374389411 7.814302100232613 0.5761646780601432 0.06723974698426485 -0.6530879708807591
Ni 1.1526109422790811 8.268552767942023 9.432739552341689 -0.8399300376114052 0.6455716078990559 1.0005116279836253
Ni 5.903716595451231 1.9961368791711132 5.900335514280391 -0.40726351207863415 0.0346183614048178 -0.1800733805482447
Ni 5.186610062929952 1.1956445714513053 8.44346340835846 -1.2365972622314316 0.518881528067958 0.13415887740431734
Ni 0.5584035556318024 1.5423816827419516 1.3505303782154143 0.6392595496380991 0.23944632318992312 1.1209665255382886
Ni 8.114149442574412 3.63462514470002 6.4177207284191855 -0.012852173372319801 0.10593227845845626 -0.2820543876684368
Ni 1.422058245246177 4.072950214929654 11.173615009451574 -2.21823622168027 2.758054499900895 0.22162215052430867
Ni 6.742816693379237 4.307992882931117 3.218189884289944 1.0231134245435412 -0.04453587762884588 -0.5826816532430545
Ni 5.088193136532845 6.365813152946764 9.770895917565394 -0.27879037220518443 -0.9246484009964074 1.8737986437889211
Ni 4.602482826074114 5.504370454965563 3.3250103376256632 -2.319900468890992 -1.6160146986320747 0.5251881870122762
Ni 7.402275977507452 2.089664042184485 9.80216999054683 1.0989941350322556 1.3491714714864378 1.6370946592308258
P 8.90146629677448 0.4245882681620451 10.428697135817567 -0.8024454104023858 -1.2881296257827686 -0.6720308305318491
P 0.4012612204902277 6.24808769220136 10.379265988897554 0.502415669202451 -0.0419280076923536 0.025408155660459467
P 4.298269027094013 7.741877931222971 3.3511246432110933 -0.5870383875498535 0.603993013126321 -1.252286133721598
P 7.895167837983281 2.63335562661847 2.075948580640203 -0.16921149813307632 -0.8976523320235379 1.30531976440881
P 2.594404532339687 2.476215147174574 1.7824161774994849 -0.47094099563293734 1.0650411751255786 0.501142201806666
P 4.2837667497339025 3.403173251707107 7.648354479604957 0.0018385958706355432 -0.6293374054283806 -0.37897957753227635
P 5.105089263898654 4.851211264456998 0.8028796627836317 2.181180197368237 0.5413372859683129 -0.7649420141402891
P 1.9084366068692886 5.762999040465041 0.23903427370864036 -0.22777788571305932 1.6137886375150337 -0.08779931630317138
Ni 7.777470212703061 7.0188238876410205 9.817190007559333 -0.8996027708816895 0.4899149656322789 -0.18982197529457634
Ni 3.507277891489848 2.8099530962249695 5.595600264252535 -0.26780070596290007 -1.1326077093216431 2.1306649622275047
Ni 4.749556145610321 0.9606946883337845 11.207796032846906 -0.4522819857708533 1.5256900448038886 0.934510638502468
Ni 6.849806943052569 1.7541167878972246 0.09568626726269866 -0.09834829546361128 -1.9945697870324228 1.0215949310164858
Ni 1.202390032513877 3.633251928417681 0.25173838001795673 0.7061151738100678 -0.6168570135731828 -0.04516296968988351
Ni 1.4794735314293859 4.395516863953452 6.2674305569567155 -0.28706752461231205 -0.9370953685105087 -1.074058033912208
Ni 7.273202925455962 5.238263407820372 8.372303897316947 0.6285372781245885 -1.4638925518811174 -0.49888965832706333
Ni 5.953597749058362 8.849710888511721 6.644913795239169 0.34997573410075855 0.27292028657765255 1.2936580118001655
Ni 6.491694404990654 8.791627551164131 4.214323759045314 0.5185655394894361 1.9116475963158948 -0.054082640777016536
Ni 5.831576348186452 4.7406302397751166 5.959273400409085 0.25648708072229376 -0.3695636835350151 -0.06584672329148016
Ni 6.133284955300125 5.36788389068712 11.730205548451153 0.26068337819182846 -0.0440378549465048 0.48133005217674524
Ni 7.984018642845985 0.9543296452953746 6.447012916279623 0.23343559821946894 -0.028630262142182953 0.4171190647164752
Ni 3.181881303505824 4.77725243346696 1.5221425160077187 -1.107652324927886 -0.975443629271404 0.9104507693397869
Ni 7.26783068067573 6.80218974061362 6.168717646779834 0.3334445692149548 0.24194132169763494 -0.7698096266452356
Ni 7.056977031917905 5.994209692759704 0.8946021598043349 -0.6419622932812428 0.023933885107778136 -0.2458350003250863
Ni 6.066507674327184 7.774974299325025 12.718055588768195 -0.21133131012126183 -0.4470932424810623 -0.33269329287122706
Ni 7.956331633477741 3.6936177739102405 0.2942078770958146 0.38596526482149013 1.1424498922230455 0.16965115677365622
Ni 1.408632272539793 9.278952318603451 11.716951227780061 1.37145805079878 -0.8301197363892027 -0.6699808899813557
Ni 0.573008824213087 5.1788254111672325 2.2275015543731214 -0.15126879761172657 -0.08204338765600064 -0.3103388364354268
Ni 3.0741302177841687 2.7117031826189577 11.217369577172025 1.2974311056893526 -3.3944562683752246 -1.7153032465217684
Ni 4.236993889738823 5.5893892441214685 7.682724784163532 -0.9004566342415524 0.3281925767873961 -0.556575443074306
Ni 2.8295770991786675 3.7461896891516853 3.676569479334767 -0.982235712492573 1.1304197005313885 -0.6675853931659858
Ni 0.734957416342849 0.5671884284434155 7.775911426652837 -0.0008165823640244001 -0.025069798484434243 -0.7892440812207633
Ni 3.78842536832201 8.3635088181681 7.949817206776184 1.4062044531410298 -0.327542601908223 1.2729940556929107
P 6.375815363435694 2.4732460308884354 11.79646230622518 -0.1258866100931961 1.3334949412914454 -0.6318136348830151
P 8.96436516959865 3.9861592344904597 9.536979658054985 -0.056685368507186244 -0.022100688553781292 -0.5681492639548344
P 6.05933540279848 6.934269022904825 8.021057440666727 -0.1361926200048945 2.132664766266353 -0.9044495574510294
P 7.750451254499198 8.444639920686843 0.47267774566026 -0.5001075898945645 -1.2314709967484596 -0.24903036733393238
P 2.82323989160544 0.5805652251613104 10.256747261047716 0.8251775618925788 0.23515283802089176 -2.1612325506017163
P 9.188273651527092 8.050879430214474 6.74134605296876 -0.4518520973222863 1.3984641470739787 -0.750650022997649
P 0.9891239767735636 8.838418968136 2.519281251056178 -1.5425929912068144 1.6298253792629218 0.678067266533916
P 6.771589285889601 2.4098182842257954 7.922520821769336 1.0837176684891594 0.9156994193332358 -2.989421131406477
