# total energy = -381167.01325641846 ev
CRYSTAL
PRIMVEC
9.20033290009510 0.00000000000000 0.00000000000000

0.00000000000000 9.20033290009510 0.00000000000000

0.00000000000000 0.00000000000000 13.46561718319913

PRIMCOORD
 96 1
Ni 0.9734503936943387 5.241963115612528 2.4965387787571527 0.6198960575098227 0.33145967757444206 0.6950833414759384
Ni 7.908955536875168 0.8812372998629907 10.349484530679364 0.6886892650241365 1.9604517623027913 0.7088161176809986
Ni 7.219307803656504 8.971943567673577 12.460449329565641 -1.458278805238766 -2.0150193131360266 -0.09703060509345224
Ni 2.6348372587391378 2.681418542818249 12.744102024619533 1.5670272129897787 -0.392297377687105 -1.026834325038554
Ni 1.8859761847475807 5.58574274446895 5.0134378936128785 0.31191492267329507 -0.3745961037526 -0.40417201763750393
Ni 4.893555719445855 6.537765563480246 12.371872207187595 3.4730860023639862 0.07685155904241603 -3.04821069074086
Ni 6.647875144333258 6.92626800922558 8.182853119247037 0.7431241469342492 -1.5148525878687522 -0.06120819607820426
Ni 6.858553561107417 8.204019404483537 6.110198505410222 1.7027017557076742 1.238665200504054 -0.3568989435831531
Ni 7.045228310063602 1.8531309972772216 3.8027302422247384 0.9834485018537514 1.2699827796704128 1.1218245026632099
Ni 0.3267304924694978 8.660613511984648 9.754183448427728 1.8497709134157563 -1.085640082322853 -0.178052493463474
Ni 9.085843685567987 3.5513651944841462 10.989922444788027 -1.702494010572242 0.955853108733986 -1.5357517999152648
Ni 7.664999516997287 1.5789886860575346 6.719518134482189 -1.2855937467347924 0.23119925268978248 -1.7439098545148675
Ni 0.20739849819343545 3.728232388862347 13.199306881894307 0.9952246685530731 -0.9730879845550339 0.047204168489628384
Ni 8.119339543005335 2.588568785969268 8.665609292599889 1.0415474628790125 0.7562002633919169 -1.3956878698804223
Ni 5.978366939230173 1.520474570564122 11.588254116606254 -2.001224573344779 0.3155116388856179 -0.23487181644536326
Ni 4.31011662604731 6.558061497250445 8.435105079052654 1.8862330128975322 0.1894105987887706 -0.9017079901501504
Ni 2.842258757764135 0.17950584977497971 13.177560055669185 -2.6908916289011526 0.5873949995583239 1.9414423110798242
Ni 5.413917332369111 8.552831615285697 1.408140349282445 0.22573925801647576 -0.8835475171910396 -1.0320269249830871
Ni 4.607866990782107 5.048047704880664 6.3194674312262675 0.17074978915447367 0.7041451945678905 4.167883694278706
Ni 0.09358578345896088 7.211073505957352 3.8592055640085063 0.7595871775862789 -0.5442192355017983 2.092032594567287
Ni 0.8897255267425853 2.720593559134436 5.465154904789609 -0.10544376885781194 -0.14517194068536934 -0.030486598624631368
Ni 3.001176103191449 5.578584885686895 9.992645949695373 0.6450589299286955 1.7065517255813833 -0.4624216453080165
Ni 3.4627199896446763 3.056230893617955 5.912873451407625 -1.331202545712843 -0.293459801291901 -0.8452118548356348
Ni 8.863030030061783 6.9265164182064485 6.186050647734976 0.4542105702521339 -0.0026240678864083837 0.4766159345305276
P 1.9024815814763827 1.0304464543046674 4.63887763192709 0.5239016069903687 -0.34844567060947734 -1.0429147755401844
Ni 7.937375364353022 4.541422188566159 1.1419167643528805 -0.0893473775165816 -0.25664443223576444 -0.2453837717202806
P 4.54581994756079 1.2054919828231683 0.29412911381369483 0.46701235000249247 0.6257620293722964 -0.9428672379972795
Ni 3.8082292810345515 6.873209690978644 0.6293018314996636 -1.6721143698391205 1.1359704551462888 2.423310752258543
P 4.04304017028343 5.660854260017412 4.617023161810257 -1.5618559532014844 1.0207999459190162 -3.4937324749697445
P 4.265679019469766 4.770804881566436 0.3427859929329497 1.9271714029831069 -0.974343711339006 0.9799034648149705
P 0.8998734936276851 1.9472043983652942 11.907268290103374 -1.7305704570934843 -0.9168787843533176 0.35868046096360806
Ni 9.051195232903178 3.2571845588077526 3.161457857947012 -0.12731794322308396 -0.7785716891085817 -0.2878080023227624
Ni 4.120065355017841 8.289840107207208 10.014648545167463 -0.7914344040038628 -0.05561039027545262 -0.01937789030597953
Ni 5.8429472433264715 3.363448400623619 5.582252138271119 1.4230729467615943 -1.3918037043346674 -0.7210630533691518
Ni 0.5781038205094526 6.0105773037494235 13.266581554113007 0.3795791587894882 0.7459042807825477 1.5090246683330657
Ni 7.744655996862376 -0.019847877571373997 2.3700296050005227 -0.429423336005125 0.024367373100770938 -0.13949340224335333
Ni 1.0193508531592186 5.893788281410843 11.133425552935833 -0.6958904107582661 -0.6419669212669331 -2.1819242746231136
Ni 6.320610112538262 2.8560684570338855 9.78395572480142 -0.9278085438919441 0.1910213949193162 1.324070562653752
Ni 0.7493054500573326 4.374482153090064 8.853131392190813 -0.7796068152413154 0.004441066490489126 0.956788476064062
Ni 7.102592383978921 4.596476978992666 12.128144355558808 0.12400379124818643 0.4822042272515824 -0.17451131307943493
Ni 6.390817850797733 4.27583618668749 7.859772398729777 -0.32735414004650076 0.17984275259467736 -1.0361147218992155
Ni 3.4929614829822304 0.21047324935662703 6.0114283345172135 0.6006328384048366 1.1708423273228092 0.00703942334528465
Ni 2.123133158815771 4.209142975490674 0.8245144891316172 -0.5954119563255295 2.4547152347117533 0.23055981933357067
Ni 5.371779808947756 8.818988037787102 7.916395845868803 -0.465645808672269 0.4349658630899089 -0.5080846945627702
Ni 1.5426565725223953 8.118106698433618 7.047406028795881 -1.484121991554115 1.1197635063691231 1.5870653625875764
Ni 8.75342646750313 6.947005558961767 1.8340577877128517 -0.7923232343667193 1.073240165996603 -3.3489194602856904
Ni 3.0804461690862976 5.238660196200242 12.224032982273743 -2.471572672588724 -0.8474967942150694 -0.23005588311395866
Ni 6.957365133497236 5.63513012999861 5.405596551543288 -0.9742881755107221 0.44957821368644507 1.0095102319378098
Ni 5.535904542640678 5.363904324220969 10.2960664794268 0.8101355799577917 0.6306486680406366 -0.699071636699725
Ni 0.8432997282848325 9.093010744682667 2.6618025136290187 1.9529325711076109 0.4232768567877549 -0.471992062605271
Ni 7.774593879223313 2.142297451673126 12.582555224128066 0.6512352339427365 1.4514535547868164 -0.10472848795834222
Ni 1.7062292862578323 1.9898479400810123 1.2463009782135108 -1.7976813918093684 -1.1969405670717579 1.1279473277314962
Ni 2.8699701596298834 7.288981922623738 2.827577786994821 -2.258782004313116 1.4133575192460435 0.012914394068822919
Ni 9.421692627701875 8.414964630903814 12.076678614889216 1.286690836453713 -1.1119620080468333 -0.34899691512725706
Ni 2.501524439006505 7.5530314689540745 11.885992520908639 0.5645299220346922 -0.8227198443807057 -0.2957516826498713
Ni 5.694545878089248 1.5560706574892815 1.9469532292846385 1.999170519029228 0.9416045692347718 0.6188316208010504
P 7.74948617149037 6.837678006381859 13.235031773476214 -0.6233292515610878 0.18119900951225568 -0.5264922505356804
Ni 1.9520161723280387 7.975676349069858 5.018662762510473 0.6816015049394196 0.3299969769859865 -2.626101629008961
P 2.1859898313080657 7.646727656404532 8.951645793836853 0.7979837750866063 0.21758243323729626 2.3043072424384246
Ni 7.785183462074401 5.297109909365282 3.2162090373969017 -0.32651955996034737 0.36632537910337554 1.4334100670215442
P 7.839815037200168 2.3491393297427643 1.4426931184879574 -0.16510081839881244 -0.6930064043422516 0.33701865971945827
P 8.485972798101638 4.136819160727511 5.1792131669786805 -1.789668805917537 -0.2795408772179637 -1.608869088726229
P 7.643949155951858 4.765588292968202 9.480979571135768 0.7330647058157181 1.0752420269179803 0.9591073540052256
Ni 8.003498154927103 6.709038955622598 11.004936467598357 -1.2079171206879198 -0.18720793471049693 -0.1672759716732603
Ni 8.995202008548947 0.36967856519509507 4.963749657206389 -0.0920902303690414 -0.41858022264303396 -0.0907144330674373
Ni 4.937855321034028 7.576170305505321 5.411063389188915 -2.382934148213709 -0.7818711857954599 2.3062476539942476
Ni 4.765349084319959 8.921525744889944 12.167679104880623 0.7087405272480568 -1.2268808062746162 -0.06338103535980696
Ni 2.3072226143044015 6.025417440273146 7.627719769201798 -0.9372714890770569 -2.286156025450695 -1.1815280891714297
Ni 0.493964018556323 4.640077355301357 6.743419678608029 0.029224186972439992 0.9007970483001067 -0.4690592052291922
Ni 0.8269728180089504 1.8395145049925912 9.51549185887773 0.18311628113962658 -0.6003520739396241 -1.0341807381012962
Ni 5.772297889101013 9.125616723504782 3.753944558448737 -0.28350680384424726 0.6815259145064778 0.7328659595413507
Ni 2.279888426076268 3.289164915011385 3.571014344870825 0.014433144706194497 -0.17066854229457704 -0.08619494793052897
Ni 5.088133554126701 7.078873926472314 3.321873017525635 0.6385692084392938 -2.6434018108503055 -2.7045339022749357
Ni 8.841703659037611 0.6042870471262298 0.23879647334192108 2.1858822308295967 0.5659160037489415 2.9050429249697127
Ni 0.7757297253888782 1.0786377965931098 7.131026931988974 0.31609913595797173 0.659578206590793 0.9307519427909842
Ni 2.1392705422395832 0.6021507298907627 10.914057421997596 1.8216517865820367 -0.5218125856718239 0.04563245312713432
Ni 5.909778459512659 3.2582149960617244 0.33207588572447777 -0.35366269603404255 0.0038054897890192523 -1.154886061103869
Ni 6.252389646125739 6.175014848751587 1.22375924324961 -0.741966122070406 0.1652903087017992 -0.4293526306681896
Ni 9.058767106653347 6.572570421799676 8.768634617331843 -0.08311270946077945 -0.4022760861663717 -0.7974353587823041
Ni 8.054707206316463 8.904689136186652 8.062417085056005 -0.38312985225522406 0.003137774298033306 -0.17910870264213025
Ni 6.488552984270456 8.503076216451047 10.049860978222169 -0.7684783094283216 -1.3145765071203876 0.24621140982789855
Ni 4.3370736006378285 1.9153712474836582 3.818161960136232 0.33643939017722063 1.1325550017068367 2.7245872213813853
Ni 4.585933397804701 3.5395611677265912 11.586584256234865 0.35496213157175643 -0.16232865497031398 -0.29667650845698584
Ni 2.914499769533675 0.5743289240335175 8.44379019305042 -0.06555618863425483 0.18139672734535855 0.5792384318894606
Ni 3.5678061888845747 5.168820471245762 2.4787241746958486 0.07168492723981203 0.21899345465220998 0.9584859183711428
Ni 4.700247530667226 1.8889570925179997 7.515955048509593 0.9579868672475372 0.12638591832711782 -0.0002967053048123922
Ni 3.728710806158834 3.031251990541757 1.7508536595876592 1.4700673132332618 -1.911731928499585 -0.41624514675195406
Ni 3.5189064209840266 0.642023131419906 2.2548313201727606 -1.6954286190850287 -1.757676569281657 -0.7276139671137921
P 1.8004222916700268 7.689748411757865 0.7417436966730503 -0.897408591443848 0.4307996475273613 0.8119806035863306
Ni 2.171204896780092 3.557566218673228 10.257985382659697 1.841178800871371 -1.6448786740516186 2.301199035826746
P 4.191772747495145 1.530723741108094 10.312157861187488 -0.2561093856679009 0.278101830778592 -0.6937211710210891
Ni 4.242567783916392 3.6099989143016797 9.065133736829674 -0.48428579237095953 0.5661564018945218 -0.37476271123745136
P 2.4622022173683216 3.3403095640723723 7.790007196469557 -0.7904183040345225 -0.024564576713241564 0.3442511729121555
P 5.610730847877773 1.0914538599393873 5.622716121188035 0.35670611084605663 0.14612427729630964 0.6080836382559268
P 7.193620474968201 7.412551590106761 3.9073315839353127 0.008458158069682208 0.17329183885003704 0.22249092628250713
Ni 5.716838284039018 4.12012055701359 2.558507619151159 0.5396462714191351 -0.10622666977042351 1.1282430045950438
