# total energy = -340863.9926133509 ev
CRYSTAL
PRIMVEC
9.32416375892856 0.00000000000000 0.00000000000000
0.00000000000000 9.32416375892856 0.00000000000000
0.00000000000000 0.00000000000000 13.64685616211150
PRIMCOORD
 96 1
Ni 6.537385692964519 1.964302938522127 2.8129305173953547 -0.5794978561984343 -0.14942300265223943 -0.9332207160464508
Ni 3.9010809455192126 7.598102566368534 7.629616375165394 -0.17474965434248615 0.21074484149017253 0.5591156929976564
Ni 2.9459322546106286 3.0959207534289916 6.099871684842268 1.0841794386169263 -0.05086310539845433 0.9718304579988489
Ni 2.011576448966557 6.136511918894029 6.723792510736304 0.572771078997562 -1.5797919688546147 -1.6974068258573218
Ni 2.9527202458539312 2.8017713581646064 1.583431360626271 0.6333346995132318 0.5673599352843197 1.6992971009014992
Ni 1.4464668537978054 8.317620313994832 5.561093528232702 0.5671385633021329 -2.2632757784184117 0.05999309272418055
Ni 7.592256315668601 0.4688525226397517 4.3972896323193025 -0.81022402590654 -0.7581900401284362 0.6499795071587645
Ni 2.7640924122659984 4.859968626109891 2.882338660274505 -0.6179013956772972 0.1454637608941753 0.6875996315043835
Ni 8.711389075252963 0.010492481519352486 6.7767015457788835 1.244973402110269 2.239360405253395 1.4787082767377113
Ni 4.631069729088133 0.8057056556722723 7.763205534699801 -0.5437795768612184 1.3046286518790564 0.7363626598406996
Ni 5.267014996613164 3.8298256857921253 9.34105451846156 -0.07457947517878769 -1.0051681529190302 -0.270699881887566
Ni 8.558743189752812 7.9275625699274075 5.261859666450496 -1.7648005819209478 -1.2557039011538955 -1.4505824650357726
Ni 6.355806927206169 1.1209696198521233 12.167673840725449 -2.1531567155721176 1.2846154419819231 1.5782639622458625
Ni 6.5634747032650145 8.604123894946706 13.594711934422058 -0.4771520095396557 -1.0817602876524723 0.027045177043250195
Ni 5.144588725975025 5.745335275171115 12.146589109134128 -0.11450870727355762 0.13446792400430388 0.3587869046344853
Ni 8.630567223471441 8.002976406707397 0.8653849660469417 0.26651541149257324 -0.3594947293347873 0.034116482067734794
Ni 4.239221745571926 5.784151769052804 9.735994394692437 -0.17293214151777317 2.1083467583462787 1.2248362650407616
Ni 1.2485428289055143 7.353650964135472 8.42297590555572 -0.39070329372710777 0.7197307077109734 0.9381441214899972
Ni 0.7855813129519146 2.079046098192572 6.430112120910845 -0.5872721008272144 -2.257325474372248 -0.17895957865877565
Ni 6.313745624323561 8.922739896011128 6.714621263226809 0.09923892559868071 -0.8419246994439308 -1.0207526376208484
Ni 9.044616040985318 5.512921168398361 0.3378023329069274 0.9006990892696617 2.9330671780967807 -0.12526106069405524
Ni 7.777872444350509 2.519687430851916 5.4616625103476295 1.053269122191315 1.3492331779623086 0.8861772415044029
Ni 0.9021100499892447 6.027223395044095 10.6623435408851 0.2170327313814133 -0.20083246747246705 -0.6617147933178217
Ni 4.592449042646155 1.2123464250504299 0.5527168490678261 2.3184691357611036 1.745724282015787 -0.9281821251812788
P 2.017832962873502 0.0792190280250339 2.101342971077338 -1.1802235114273933 1.310968478054155 -0.133884283586692
P 5.904890366043913 6.731925046398954 7.082513605118987 -0.2795367634529057 -0.06284110369593694 -0.2928545636077343
P 6.780121649059163 1.2803009307938236 9.540926361170781 -0.5203977076021683 -0.03515186531078462 -0.113451726763953
P 2.6941611837979065 2.0795402788737465 8.10806159751821 -0.2721749237711958 -0.429863251756021 0.6653451909815574
P 1.7656516288537676 9.32310084107285 7.416110740154034 -0.821507055019527 -0.03340222960952957 0.47187893406617437
P 5.945935335072786 3.998238732270882 3.4544152706314373 0.6816884082262712 1.4915049142817476 1.6851334078066076
P 8.567256151298327 6.831507115737516 9.7886712580565 -0.20506064662120166 1.420835315680327 -0.8440623146122237
P 1.2197964319232306 4.194372517714389 0.6737864538736844 2.271152095842695 -0.9925900591437035 -0.7948735115923988
Ni 8.243082948611642 4.506983757294352 11.399819627982005 -0.7011879117117794 0.781229695556719 0.36743326745557364
Ni 1.9680699006956082 7.740417278382999 11.733689961016266 1.6256020852101938 0.23720457834359793 1.3715392976586764
Ni 8.14588786520479 6.349121501764619 7.261806085914619 0.8378271323357893 2.0676711350037875 0.08556862720043973
Ni 8.465678710907476 2.278760362533646 13.117644823478255 0.796259593306648 1.1849412286180367 -0.8392515234871418
Ni 2.018914565873809 2.0859926002204023 13.399111491147668 -0.8358597241967735 -0.4658062455095333 -1.8202340802989039
Ni 3.046045801285549 9.074248233528197 13.768450010844564 -2.3909385065754245 -1.3216884355748206 0.277701767126696
Ni 5.056745778855306 5.871174189758498 3.041338030985077 -0.9842738259685243 0.2494121761533834 -0.6329248656693229
Ni 0.03915309619471521 1.5412283304539676 8.887760295531388 0.07800392747930437 0.787072013270109 -0.6081448305111655
Ni 3.316549117163923 3.6983176796169297 10.832069429626298 0.2874097384430792 -0.32962339569665167 -0.37453002640135497
Ni 7.949399761537044 8.80370762099464 8.906770400678154 -0.24437229973663077 -0.5979910299066152 0.3626618142088593
Ni 8.714745774219432 7.560759290366573 12.052275192340161 -0.7365986871109056 -0.053802133422120244 -0.02822222807048688
Ni 4.866514189094504 7.375171134176052 4.969339202601227 -2.375741230009696 1.410515164701242 1.3888340801833823
Ni 6.733006649399261 6.20655503732767 4.759941794158271 1.9293838372533936 -2.200861220736932 1.150854828457289
Ni 1.6218636989595754 6.932804831214497 0.29094001808588976 0.15598188681667974 -0.0264543375367867 -0.323983680912371
Ni 1.0776868515122726 3.825359411333963 4.755547315761337 -1.0301698171696905 0.47630431682737967 0.9379471749878427
Ni 1.1215850146626427 0.8840071859798048 4.44715526029895 -0.39259125477844004 1.880318190074994 -1.5444089613696306
Ni 7.843281453377664 3.8140212281583366 1.3073950859515011 -0.47078750077420856 -2.322599098769077 1.841092411805152
Ni 4.069708447765271 4.921442838015241 5.119399497480818 -0.34032689815708483 0.802193956513212 -2.2165398078144536
Ni 6.339610854692959 7.827961852261254 3.1903624112669595 -0.03334592245029741 1.9262118672833148 -1.849896640360343
Ni 3.758990013435846 4.09195590258192 13.162747668591035 -0.4761024852292187 -1.2059263155101358 0.7237627116885019
Ni 3.1901787252401834 7.784697732248994 2.556315543490743 1.0281625569316746 -0.8944726487439756 0.44571358852471626
Ni 3.0795848184588457 0.6851731227010488 5.718360469310024 1.793193531241344 0.0142649945594464 -0.037914515657586315
Ni 6.956385641453936 1.8982878588482481 7.490008467900835 -0.054634142405112364 -0.36304028059420057 0.6999794932259752
Ni 1.18177249196418 4.1338307221886135 11.931063860244608 0.5732418479863934 -1.0053807831504684 2.446260933296813
P 2.5697954870902526 6.682068742583103 4.347273885302544 -0.14882522116724048 -1.403533591177086 0.9076441531289271
P 4.682651003206198 7.881407959138467 0.9288433600080269 1.0306138466856445 -0.18819472410379848 -0.029207989022523893
P 5.437125040902746 0.21825536404891435 4.583746800575586 -0.46204729268773326 0.27533686643894517 -0.2468143335192201
P 6.1146094581378225 7.5461390015348435 11.603157262374106 2.1007391212023494 -0.9930376882040832 -0.2529638980603837
P 0.4244088959073305 3.9060320764947534 9.926600815837826 0.7961192110740418 -1.137930149975821 -1.3459393377023852
P 8.293452081436259 6.959220187247844 3.2110368796512665 -1.4490881398784332 -0.4643687417320583 0.31296830363847394
P 4.284481236636474 2.1252753022918784 12.14873180197439 -0.5026969478882956 -0.6167832229124539 -0.08482969215188615
P 7.316083908202414 4.775463729629049 13.280779460832239 -3.41299700749189 -0.5707514774643719 -2.5245170859962394
Ni 6.611717926744202 6.211524816630802 9.292580988136617 -0.4904050178948199 0.10471254711874223 0.20598135866325815
Ni 4.315707861188426 5.046358660386845 7.279356027010972 -0.9956535285603755 1.7107840184951766 1.9776514140105295
Ni 0.7200081986419543 3.331570345038869 2.4872076386858155 0.6414030783436631 -0.2483407974660755 -0.1116406416971432
Ni 3.6939632951243166 5.927063227550197 0.9711265779889738 0.5248251472459026 0.039155330043222886 -0.5976341607878288
Ni 8.145794623566832 1.0920647120853122 11.131781621011225 3.2902322308571272 -0.49510216626017317 -1.7690503583362371
Ni 1.041024239467401 3.830748778007904 7.651751007600115 -1.1100308524623916 0.5528100624946028 0.17851040693649903
Ni 5.413255181585638 8.601391914954553 9.889235161842754 0.6818205629287613 0.50741260819641 -2.143938539407959
Ni 6.41366336355877 6.279013114184409 0.877118493767508 -0.28779848924106566 0.3442406313891942 0.2949618397587243
Ni 2.2967187020042523 4.9974068004591805 8.936630102817649 0.2577240384531884 1.0193213044909606 0.7359186303247455
Ni 4.0365890179627835 0.9268768938635042 2.722465615416272 -0.32620125738898015 -0.21651851074915612 2.346700105582339
Ni 3.441353049569978 1.2057915379020208 10.206347175286924 0.174077567976126 -0.3583670434882473 -0.1837073777564062
Ni 5.405572070617943 2.7885123972470565 5.0076727047982965 -0.9529901853638942 -1.98626975180716 1.1593556668394485
Ni 0.8437920675287541 8.941919700938977 10.209131370596333 -0.496617574463435 0.44766762692729356 -0.567774654224235
Ni 4.621204763792234 8.908977430248607 12.013095988486818 -2.306372609607886 0.7202109897815016 0.6916352350263378
Ni 0.24868104293081167 6.02596463293167 4.806586855962868 0.5640357560070931 -1.1663616658436364 0.6178553729307101
Ni 0.861562058890686 6.6937612439829675 2.5334573559454725 1.9941229293029914 -1.0638870069164774 -0.6476629432104459
Ni 6.704017824158288 4.520755547220667 7.424626498948688 -0.4024792033161133 0.35526500752415585 0.008906558461010468
Ni 0.25511005386797825 1.17320358543589 1.3026910453165477 -0.04701519240727387 -0.05762459249200398 -0.6150526133745924
Ni 5.929086571093873 3.571686211106909 11.679524961110399 0.5476033214826826 -0.03199275085651264 0.1444378907328222
Ni -0.02682468682398042 8.864128202391072 2.953042861921264 -0.05357896166772064 0.5157118720907247 0.5750470195159323
Ni 7.597375281592466 3.563163925397598 9.439325610370439 0.2769852006756455 -1.2256289361453858 -0.5875963169358526
Ni 8.103994397270505 4.099312667816763 3.6335026198235636 -0.16694635624798346 1.9515297772228135 0.9620306982996077
Ni 1.2255028201662268 1.8845720139047064 11.05385771933742 -0.2864427465441196 0.23226574628108387 -0.17775887348245514
Ni 5.297253259802766 3.9069831412019194 1.5973914986612614 -1.0716828488118124 -0.27968743009815705 -2.9288901639009555
P 3.288268928371427 8.072254943709789 10.023288664734189 -0.4096664650931719 0.44023688168086117 -0.8066599627043655
P 8.671276522603666 2.056668105082782 3.5130418829135674 0.7978153678295422 -1.1457812705891235 -0.6810116938742207
P 2.7926336776447758 5.6298275340694195 11.917417014113155 1.1835957703337359 0.8999668390893275 0.183870899917464
P 0.48377491437846293 0.12674615572470818 12.452565273757038 0.6684035181919069 0.6476184631257557 0.1822243654529765
P 8.54419749423145 4.388417690467651 6.544936400806313 2.344612369815375 -0.8687837286183037 -1.7524117213382917
P 2.645862015335945 2.6828975939326463 3.947257934301263 1.1460592068408586 -0.5536634116338336 -0.9452892171752107
P 5.165810522774141 3.16217826136156 7.188031437129921 -1.2784481368289466 -2.4910842602590906 -0.47612536804735417
P 7.182739041759456 1.2073766457472974 0.709699403149378 -0.5712446150507065 0.16130304191927705 0.9007700517169132
