# total energy = -340873.2769168415 ev
CRYSTAL
PRIMVEC
9.17731643399028 0.00000000000000 0.00000000000000
0.00000000000000 9.17731643399028 0.00000000000000
0.00000000000000 0.00000000000000 13.43193025850651
PRIMCOORD
 96 1
Ni 0.4045462103905614 0.4400312227222896 6.88626833411906 -0.1445366210942156 -0.2166565789889172 0.1749589421398148
Ni 3.8190760582326524 3.769573612539449 11.641588534504608 -0.2160091752129054 1.2965170785155156 -0.37543659737602436
Ni 4.713579929065223 1.923629798742191 5.130339312375421 1.3220738439386972 0.050668472889145 0.7276216804232758
Ni 6.425433970147723 7.132252539372636 5.1082036247573255 0.8734762489979666 -1.856468637150906 -0.3949571839074553
Ni 5.410863266351826 3.8497191183308375 8.302074990211054 1.722234683534279 0.9399577776599684 -1.074497178332156
Ni 0.874459693665621 7.118725174717133 6.647999498923747 -1.2532862928513384 -0.3911694347302489 1.7132957291734365
Ni 4.492966415528159 7.182782844524059 3.70838110097231 -0.24779135272050873 2.0460777251037277 0.6919118857264922
Ni 4.122900301302583 6.544858390949663 11.805712911227548 -0.4212927364781906 0.9421488717740161 0.3775137916200273
Ni 2.261254098817697 5.557617735962508 10.123565843950926 0.04570958622197289 1.4372572086817763 0.05762253560947495
Ni 6.965252909361654 3.6411278895283106 12.919528952104544 0.7221814832443111 -1.2521766047269274 0.31595926794599777
Ni 8.249168677794156 2.3197594920869173 10.555173207774107 -0.23032533472526137 0.5212009202297541 -0.7332639663107178
Ni 4.95821048012159 7.538312089269094 6.807409488113764 0.8893780078298875 -1.149619413388291 1.6260268314524382
Ni 3.6974123721824483 5.831725827909971 8.164679548060128 -0.1721268720076584 -0.2732499020029294 -1.4540709378050054
Ni 2.968283746324207 1.0293094742414455 6.183993454338475 -0.9824935941396498 -0.6750063682204053 0.40628700709797777
Ni 6.498971807993412 5.951746774290342 11.765511675899578 -0.5233236229997116 0.043678671834873166 0.5132518405860064
Ni 2.762693500047019 6.540664357267461 5.610813133852032 1.8981991841204728 -1.1538391078965935 0.8496485504507496
Ni 2.0218179089519777 2.9042444311504627 0.028907629530779164 -0.297038776892411 0.21078469358917248 1.4156319171025167
Ni 8.348384647462163 0.9483104780070708 1.127138751372514 0.26802233505540296 -0.2709389944815656 -0.04574326767338573
Ni 2.007161734355751 4.3315649486378405 2.001062489749206 1.4996792225624238 0.6338427494979019 0.27748759423336083
Ni 0.37509620144923933 0.18420067449796115 10.848110400171839 0.5408742302889652 -0.2746886913319849 -0.31355811470367284
Ni 2.57464110577571 7.231321671975182 2.1180273897046904 -1.8017280510749165 -0.6689892154920479 0.027744259992803832
Ni 8.798238352132067 1.4115905968499747 4.666481022587268 -0.19773505949406592 -0.3612888451207326 -0.4827495582320912
Ni 6.562313647106221 0.33025307938941323 4.867275203213868 -0.10520542759476076 0.12564184107224166 -0.4535775646538252
Ni 4.893180014755991 3.232737301217674 0.32832767836856896 -1.0881152833362229 -0.5183727067523396 1.706496446863416
P 4.9970488839357605 5.171069161139049 6.457145269897129 0.7121333549796897 0.07067936879343312 -0.9169857422448272
P 6.165725087931933 8.729436009647463 2.4045973598514117 0.1609932239883421 0.2006972274461834 0.5565880414797962
P 7.636573618011611 5.377687266874457 3.737932060396136 0.47159894093191035 -0.3724880562706617 1.1382548803050914
P 3.578345866727567 2.5916099641529318 2.478648209694551 0.3641787650740179 -0.14525293043494986 -1.683038730061108
P 3.0725655947505834 1.5411100659022894 9.70830419870842 0.7948367448171925 -0.8078557827846796 1.649557824694843
P 8.91394595971455 1.1308289503738558 8.866672684221362 0.5497705043373305 -0.18793195736071505 -0.541849449718041
P 1.2740317984637248 2.229574001944701 5.711928808054426 0.08395885951115863 0.9225871475920047 0.29860586426921476
P 5.516760322498263 8.601926372928633 8.637523348522775 -0.14400131741603586 2.018942302339516 0.11470076867970568
Ni 1.8919864111355604 1.9421404463067429 8.123779001207904 -1.871254794321145 0.14368712860972674 -1.1703846709601005
Ni 4.609307257955438 7.4211085790822375 1.1813959647916448 2.0230051595549803 0.6024284968526785 0.051925485224697664
Ni 2.817105810116542 9.03028680214183 11.161746112409475 -1.0627994302792536 -1.552135640589927 -1.442373189752103
Ni 3.2103079394686587 0.5759454459753875 1.1328176748791796 -0.24289700074268492 0.8306270150429244 2.142110742170601
Ni 7.517057424043759 0.6706369985639077 12.28857742367618 0.9057849884330013 1.7589963165343445 0.24057940835310182
Ni 2.7653549218584814 8.262448254901695 7.9184181878454964 -0.3904484974038243 1.420342692314625 -3.6205143431837006
Ni 8.072698057061004 5.559031042717562 0.1465663346205621 1.279990284505086 0.5282388009131418 0.512991130725452
Ni 5.60254987799327 0.7561503168295184 0.5961337070128199 0.18912520633786783 -0.29240050678945123 -0.4584006970740815
Ni 3.8760671942643166 7.6280387135817485 9.659787396817116 1.6081412094212693 -0.9083239528047712 1.7096966989682687
Ni 3.462005024300288 1.5870333581249056 12.271317644363016 2.1065891522252236 -0.023744651915107495 0.9086427695967707
Ni 3.2691161841853904 3.661648369426346 9.149414795617872 -0.23542563206630424 -0.8861178490213771 0.6061645668563432
Ni 0.3636832905363605 3.8008223755326562 3.91951811739725 -1.0736790533062348 -0.15444848089128882 0.28077449251474873
Ni 7.070617681145799 5.64659182031468 7.325506636687865 -1.4761374306867419 -0.6845662439946983 -0.07613087882630759
Ni 4.709844761212585 5.374319191685468 2.497707660791259 -0.3153383465325472 -1.3647968367285206 -1.877891582911372
Ni 1.5176528446950537 4.700190224158589 12.118381334296467 -0.4568678053693228 1.575765107083409 0.8773583576611922
Ni 1.4764650478335226 8.651777556652304 4.818315136931207 -0.39967747220126004 -0.2808328565565099 2.374162829778982
Ni 3.20429679710139 0.7593541180515238 3.7259767700727147 0.37846587112065144 -0.9439949238438194 -0.7228360861091744
Ni 6.389945286889359 6.966693748066481 9.598551751862 0.18410332764324422 -1.0549519092103767 0.3024954291316081
Ni 6.9124374523790095 6.626371316913148 2.0854148774660235 -0.45199402221678936 0.05408958275555201 0.4541018125884115
Ni 4.5690739020193964 1.6496593665435975 7.889996956094054 -0.13036804290331744 -1.549652469156757 -2.7344376318129036
Ni 3.5805851319758326 5.217286127492584 0.1810822223202543 -0.6864282369041017 -0.03723548731269071 0.7456703103948706
Ni 1.1184946368752153 7.349534686987076 12.005916072665674 -0.2737093581378512 -0.9124531444817963 -0.3081102042152242
Ni 5.550909117534305 8.7595008988004 11.427536802330286 -1.8127974215152005 -0.07407965272423372 0.6605750232864236
Ni 0.72689578473159 6.202489418196481 4.510160118161866 0.41115307694102743 0.11759968749405551 -0.0021139610192092624
P 4.639151891510184 5.312831170524091 10.119307569052586 -0.20655111512379912 0.2996535888074388 0.03300602261237541
P 6.405987236290864 2.241963379342889 6.5244663934839044 -3.060120811914885 -0.7781515708520276 0.1535344537174517
P 8.095255901242298 2.262814242638209 2.788925024059789 -0.9556651610928961 -0.6327652001630071 1.4942400538247234
P 5.850869710319319 5.7035003604970225 0.507697413412896 -0.4250298349231196 -1.7516506748025509 -1.4537215248853865
P 7.601589687165764 4.333024141975849 9.016707126781757 0.12542483996542914 1.639006788651874 2.3350216408031463
P 3.665970885540825 8.40951475327648 13.080108131428288 -0.18701664463529727 0.22907886391267 -2.2874580320915703
P 1.3552785822460631 5.948332812518396 0.4822826705767466 -0.06454471665060497 0.07033072720476274 -0.5636395490099391
P 3.781595897273987 8.384277132650542 5.4050760505093844 -0.6559411240588381 2.0303551721621482 -1.4893696131062997
Ni 7.323223320319961 0.128823828454698 10.052524236218058 -0.6010051341425908 -0.5237853931274786 -2.557363700212615
Ni 9.150711550452215 7.7407361613223005 0.7127562930594507 1.3930311489838654 0.5843623833795871 1.0747280633960394
Ni 3.2624809842899163 3.55157563423089 6.659295857915917 0.19710668188144762 0.5009974486986856 -0.1519272571313319
Ni 7.013846800712325 7.942995041676865 13.401494087527235 -0.9411122029793857 -0.976183592761222 0.22557727851731474
Ni 1.4055060359499758 1.9338349747916612 2.4039255802769324 -0.4731148633558045 -1.6397812049240534 0.010819716323323302
Ni 8.921159330555273 4.826249844856003 6.145713031373052 1.7986514690321216 0.5447491398633393 1.0284780312895643
Ni 6.038197096579919 3.7009823483364443 10.683180255052184 2.4410071410970415 3.4359237914913923 0.8019054787385158
Ni 0.2449251429189458 5.924985719110256 2.3810914988662426 -0.9199913618403704 -0.5057007677116259 -1.4072087260358281
Ni 5.572934677353305 1.7959916795910829 2.871880624191419 0.059086264639195016 -0.7654647194129786 -0.02197599005045893
Ni 9.054101938696123 6.143084647901318 9.589350574247613 -0.25145980271103147 0.15986939479654402 0.8893456119300556
Ni 7.072618336162691 0.48914455019202446 7.370207510340526 0.2487706859146425 -1.0462168433302241 0.8291141779428236
Ni 2.6128370974284936 3.307835282883875 4.237263432004449 0.6455620948173592 0.18247761911436317 0.791722624668243
Ni 8.257997256354939 7.795276953824101 3.5708516699991524 0.8752675365704347 1.3927257019283046 -0.24337805414416147
Ni 9.009858095409706 3.5051384122791642 1.4752958576997974 -0.021597266554801514 1.0294241972529175 -2.5985918536244665
Ni 1.4043864033258433 0.5750992973856742 13.10393611622581 -1.5114826429552548 -0.12205952303762205 -0.21878956617151996
Ni 6.602684662791131 3.795756496774286 2.282823546002112 0.43895801496843756 1.4216313292190614 -0.28945453678724986
Ni 5.0266824392089084 3.970061270791902 4.25309980951431 0.24915943671262897 0.6077956747018629 0.9297692671627408
Ni 5.191406094705259 2.019551111753939 9.879654794515314 -0.3180233495638781 -3.7519298535149255 1.624784217294589
Ni 8.120355862119368 2.9421192167225523 7.643507080696301 0.9133126642686141 -1.4912372624426575 -0.7077413965595811
Ni 8.416599641684925 4.562457056757106 11.295622053647655 0.6857142415562126 -0.061719331386667894 -0.5392472362085036
Ni 0.7765634221234363 3.965582740295372 9.00267042105544 -0.669859533912143 -0.1597902048191764 0.3579880628822738
Ni 7.43288307626881 3.44021807471266 5.326794457717678 -0.43554564685277886 0.7086086296558829 -2.8853390187828825
Ni 1.677631827513728 2.642332992952772 11.06498232173465 -0.7767734595575784 -0.7269727339853673 -1.19763707891815
Ni 8.1435010545625 7.49578440418524 8.029674796881222 0.015215531398173795 2.2447676923118953 -1.0095014901870614
P 8.245947439670628 8.139435503312576 5.718671382554019 0.5832074438395376 0.6477105086189298 1.2154131719546488
P 5.6393876267905485 1.9277779458414361 12.037038188689921 0.5597209306818232 -0.14259158155270282 0.6661067517379302
P 9.137587987726727 2.547742390846756 12.56295165780479 -0.18477258579612693 -0.15237205797823433 0.9280808237167242
P 7.943022573626639 7.596633936206489 11.340793723641449 0.3590887521456203 -0.053968998017287696 0.23324405103395315
P 2.8772447657390043 5.500553181398115 3.739744580422908 -0.4316735654918824 -0.12979674378087971 -0.16617553952022993
P 1.5408989876206907 7.686369737835734 9.434977096402875 -0.984145527920776 -0.6115034625707534 2.0106641214911245
P 1.1891599746278423 8.763924365397383 2.8730764285432584 -0.5788967322793256 0.9790182339965396 -3.4078910537238922
P 1.6901129780778283 5.056233398632735 7.359058906145476 -0.2347874842616731 0.11842501160882829 -0.06062429855027623
