# total energy = -340866.1362154215 ev
CRYSTAL
PRIMVEC
9.34379613737418 0.00000000000000 0.00000000000000

0.00000000000000 9.34379613737418 0.00000000000000

0.00000000000000 0.00000000000000 13.67559013243006

PRIMCOORD
 96 1
Ni 6.261604913514048 7.964978973567038 6.911752798650246 0.6143478739980839 0.4974801795740464 0.002351788061628208
Ni 5.095387013440905 1.8607889958166368 3.2501274070252997 0.5488901586149064 1.3126358384542491 -0.3727490232415322
Ni 0.004922311875128445 1.1451382956876266 6.230585378656319 -0.1669383858281835 0.25848714187145805 0.6418941590474687
Ni 8.213645423705218 1.6207188382470181 4.067982419516744 -0.6250364640601815 0.551574904535921 0.78194754755935
Ni 5.565968624995754 4.902979560645451 7.814874624005176 1.6333531899105227 0.2908966685504152 -1.360482782734199
Ni 3.4312942729077323 0.15914447245325586 3.582293758152276 1.4038565217341434 -0.38732255018033296 0.40681511168730583
Ni 4.289447209953189 7.351829718521853 2.7781414228910446 0.05033165837501654 -0.3628569609388009 -1.0739878427959053
Ni 0.4128061160774718 5.988747374832383 2.4104873335299417 -1.3067143307634914 3.1421084066322855 -0.43108735397110926
Ni 8.620175311828014 8.769367706873904 -0.1878261894841865 -0.27940589430199625 -1.2906184536428935 0.3236041860857653
Ni 4.6068746568435905 3.506156768624378 6.082314281922667 1.8623091550920832 0.4953952720205598 -0.7591637168956151
Ni 4.650622310980552 4.809691098684019 12.301097511510127 -0.17409068060224855 -0.7776057256508866 0.7035291582504465
Ni 7.639478486699204 4.923919008086915 9.349713696353385 -1.7197623107343867 -0.8355041406295676 -0.14001970706046854
Ni 8.65299072432887 0.10050374144126153 2.2475698361427887 0.6847217957359563 0.07423906112023343 1.4604956103844264
Ni 0.049356735037947956 5.40606823942424 5.8815431970857786 0.3179719275006524 -0.6402190853378908 1.0221806283166266
Ni 0.4532096255293376 0.8375367849549414 12.0280372124494 0.23163454045498819 0.67916281359094 -0.5891819162554176
Ni 3.7203352667293403 4.879367787470718 2.641795813337017 -0.043667101870647373 -0.4235961878003866 -1.8168983310574516
Ni 1.581829958170548 1.084198056413542 4.244328820903393 -3.723240713110349 -0.5778490077411016 0.9098229059478008
Ni 6.153170157798661 0.6933087488673938 9.080332049884227 -0.905946196601214 -2.960761815798572 1.0574445937252432
Ni 6.750836742424165 3.436769737522055 13.006744743352288 1.3821096169753553 0.8319570467082575 -0.07678882412528065
Ni 6.082559089384945 4.307303204625494 3.6382266570051733 -1.382854979781812 -0.2901273944845584 0.10187739166279228
Ni 7.500414766810183 6.45451693130809 13.204972446844433 0.3029903664901556 -0.7251390232107382 0.11754980809272658
Ni 4.835928478610672 2.1631822745083262 13.215693518684832 -1.8664712568895725 0.029336287070272058 -0.6887466006246332
Ni 3.161426749032524 2.698806051899865 11.264501425194993 0.7766783287406108 0.3600865972825153 0.5598895950492034
Ni 7.4475195361247195 3.0072634543708987 1.9307880455746567 0.8902033319446604 -1.291357131581131 -0.41754149696587445
P 1.5969108453506111 4.414130827382411 2.1253641934844176 1.8742192762661078 -2.3850483663432347 -0.8963372127565401
P 5.044743637656554 2.3824624853768044 8.577535831928694 -0.6415097791248565 1.8885763163187281 -0.6319491320196148
P 6.262885013603062 2.4957747027452224 4.927247268318351 0.318822962647038 -0.7813783053194413 0.3890565021523042
P 2.8224711955356376 1.2890514458408693 13.78335437034792 -0.5208818463274384 0.10345296368002828 -1.3382298848732694
P 8.610588576854813 6.616622452799366 4.403649891106155 -0.8715942014839053 2.1967515694439324 -1.6979981795844175
P 2.7136626879694448 4.795011994743573 10.28037916435354 -0.45273912791293 -0.12846799766712713 1.0216468673003436
P 8.787494671638045 2.54461472584943 13.290185065689553 -0.26362754842181696 -0.18078943277866283 -0.48418680489925
P 1.4765814369832913 9.052606203211734 2.4799864901875073 0.40199866413526897 -0.4074427179689757 -0.15655395727006585
Ni 1.7950086700746015 7.8777920105700305 12.095594728242022 -4.09638234380461 1.968507542727732 1.0323909931907254
Ni 8.48689540183023 4.54558869710751 3.7277467659308434 -0.16835454944941974 -1.0416778178092898 0.44312962984762394
Ni 7.516915911023314 3.7498803505356353 6.17608768691052 0.006865359661265595 0.191462853332109 -0.28557962721287594
Ni 3.3141697866610826 6.925481638510015 11.0828897946101 1.984656641683769 -1.4360122805310815 -1.487537187883251
Ni 0.2751551781845006 3.4981771666096484 7.60654067046721 -0.0012045618310624416 -1.0437185023884026 0.26712424872116575
Ni 2.9607500365379646 2.2462299357576456 7.062225293785152 -1.0030919871162918 -1.6138002074792595 1.0118203681282252
Ni 5.690680273813785 7.7657785808831665 0.182581516637737 0.11777015163364879 0.3900692596875347 0.7365320955390283
Ni 0.4593746623083994 2.630437494590992 2.5966933087408797 -0.13755916133511795 0.8715602629221765 0.4969027098040217
Ni 2.972355031505523 2.7602134809874586 4.415013816129942 0.8439718117809464 1.4837877481431478 1.16243379154414
Ni 7.533332961070012 8.580445490087227 4.902247941397496 0.3929699782740974 0.07629517231831377 -0.516464176875717
Ni 0.2753672823598336 4.548466586358724 0.31432156901019515 -0.5297493240203973 -0.2973395959622815 0.21755466532315434
Ni 5.585431752626528 7.082691010755718 11.28522035904448 0.5987968136373624 -0.014145952483078861 0.7425510480395986
Ni 2.8186028638797853 2.17031159106247 2.194166302940228 -0.1449827074926987 0.517118008409632 -0.6158820512544231
Ni 0.09663167226690081 5.701378920543136 8.36343021543464 1.3559936366145935 1.2490182616036036 -1.0212388332286477
Ni 5.176743447565323 7.240124634111904 8.847313655359708 0.30983284333328576 -0.055559225322543024 0.249575441204125
Ni 6.75263075130804 0.49503993267165924 1.0689059994377728 -0.22420662342203324 0.3654051812819513 0.5445455084929653
Ni 7.356950118877909 2.4515878901835624 8.387034513572356 -0.7890368503059637 2.8195365184657764 -1.0836379642911596
Ni 0.9945162998123978 3.420791845900055 11.869031028180942 0.27275445042374963 -0.6745127164134384 -0.4103318665913127
Ni 6.208438712736749 6.032616498320857 5.2460108780753885 0.4556953823277765 -0.0069491776243235165 0.7173634930303774
Ni 1.9166648975122864 5.065094425932997 4.203001210000406 -1.0346731043566826 0.155480521700229 0.510919592908404
Ni 3.8626319401278426 6.693306988788695 6.551756884712179 0.5286532627427413 -0.6920111303085179 -0.6200217844544096
Ni 2.493027626641791 7.704492621147086 4.650754058507961 0.48685098199497445 -0.7267868432268063 0.29276611765898614
Ni 5.149253998938467 3.502858408541006 1.3398415192266624 0.13657262905213252 0.8274293340412331 0.2287127388225029
Ni 2.406457354198615 7.504759632075815 0.6110039194215531 -0.6826816253774759 0.6316213163665509 1.9736826591707686
P 5.7140584520817645 9.180036896744387 2.9517398137946347 1.0555887714634273 -1.9622834161948914 0.9605150329860296
P 1.4646213777574666 0.6063834121659513 8.000316276681215 1.342807734051939 1.120277212780748 0.4966761956155123
P 6.964800333214914 5.045706048672382 1.7700317682647952 -0.008518064773340168 0.8759051701544335 -0.8999508982497275
P 7.727553110341879 0.4013412780539665 7.46008881086736 -1.4157157350655747 -1.2830007891966355 -0.764534237178909
P 7.409247346602081 5.836378089054631 7.174119122879757 0.17149952283630462 0.6290468707711554 0.5112011287045648
P 4.052852944596076 6.257409548988739 0.10127460463355101 0.6379248899870755 0.3596657076950128 0.7840031445367981
P 3.16816362614332 0.5436024450266422 5.84662916794264 0.37211678897417205 -0.8303812175807055 -2.7837573039836383
P 6.605792992922232 5.078502773580698 11.216240717459536 -0.33762338318299273 -0.1111827282241182 1.657991557284493
Ni 7.5743055077147305 8.359894522926005 11.183583215115648 -0.9405439891807414 -0.5356242947439356 1.2497420271435058
Ni 7.3657426311681435 1.2752693463423603 11.15401664057793 0.09987398807951832 1.1727693691421932 1.2201681701411309
Ni 0.8714519622767974 6.304100498950806 10.487030300183246 1.0850315022045764 0.6215366784370392 -0.4059152255808558
Ni 7.410611540857526 7.495126178121264 2.5028386127254754 -0.7703547005154281 -0.7691863912389398 0.020262864014094134
Ni 5.220444382720933 8.117338915548519 4.860483040829067 -1.4379987148334912 0.9432930126807884 -0.41220697212683843
Ni 0.7313819155294778 1.2117035003163565 0.8534959889844013 0.8693450004384125 -0.43003885810193676 -1.4467317238311148
Ni 7.6429263475228995 7.525904643035222 8.786744364797551 -1.3004536945657605 -0.5232873704451376 1.336155518842744
Ni 8.769377050670176 1.051980646873977 9.303531048908416 2.726604251811414 -1.2115518892270298 0.9010878400676482
Ni 0.5001584642684613 8.233828023648798 5.664279377452404 -0.4173000703790297 -1.3526740853230577 -1.0527289334171288
Ni 3.537038015297308 4.1037018838983705 8.358042582505256 -0.43466735801288364 -1.144790881651396 1.8588425366997212
Ni 3.8871687491333238 8.643674959447504 12.650728352245688 0.8648954493074912 2.019869699249792 -0.18725678567056137
Ni 3.8105963386992356 8.902610241686608 7.560126296874739 -0.6630625655949678 -0.5802378196882523 1.4656984947416045
Ni 0.18895585445325072 8.226633300520762 7.9063644051846005 1.475856409111213 0.4477702139434288 0.6284195215998016
Ni 4.86563240695356 5.054358404018564 9.930516597470477 0.2145462175141337 0.9483069209556121 0.9748563893093662
Ni 4.260107689664838 0.4237187357414098 1.4663649301414814 0.4705651003507573 -0.8317994380844708 -2.078281563529782
Ni 8.724012919778472 5.072345211838653 11.579573301045682 -0.9325697127260133 -0.40407740104116857 1.1167442599268251
Ni 2.2283739410853403 5.513325676809584 12.704089838365032 -0.5079273430492993 0.010697846033478349 -0.5276574744883751
Ni 5.6755713552449105 2.875142175110617 10.719625420736726 -0.257433246685647 0.1666848750564807 -0.32644191264487654
Ni 2.870815997437526 6.785287319272302 8.859170932826562 -1.106746782394481 -0.5846094663933867 -1.1372297814746866
Ni 1.8276465504463244 2.3644009271865554 9.346527461825255 -0.9300353763399338 0.28604756798822994 0.056566069320502586
Ni 2.731163618383483 3.5353187567835955 0.12740079338458868 0.18358679301814188 -0.28670062819119657 0.438836916009541
Ni 2.485038680830791 4.496365578356225 6.549937647578377 -1.8166836439434844 0.5211626107926508 -2.3379771238870446
Ni 2.085544671299438 9.355943205326712 10.235523335978934 0.46548460050405643 -0.21054969476023094 -0.9314492259683248
Ni 5.294157591496348 1.1127526978151983 6.661339058609544 0.8863803586541444 0.5261518364771262 -0.5602986575621641
P 4.0386690618579495 5.1740617780357825 4.649099272188513 0.9442666894479673 0.6826980804377081 1.777305656366494
P 9.132308785396331 3.441992919637083 9.944944353291255 0.34267123001954536 -0.7674526963772847 -0.9977044975521333
P 6.0605451053724115 0.6105591547190927 12.763332309856827 0.6743908461235933 -2.165448131344961 -1.1750571367351053
P 4.385258496907568 8.852555525067277 10.088921041259134 -0.5370692547205783 -0.3257793393602131 0.26482362561244716
P 0.3990819481158381 6.6497648981696775 13.31462283045457 -0.7891990869154408 0.5218478097851335 0.37814808276991646
P 9.366501695112008 8.366836963554745 10.256008674921667 1.8415870920533832 -0.15485831473519782 0.030673003603824592
P 1.6661857508976923 6.445219854019266 6.975795178286029 0.3632706514374518 1.6630010946839424 -0.08771369856790055
P 0.6147956319479903 3.1040651837299165 5.445291627407182 0.48618892293094335 0.7379480020499485 -1.171339578674202
