# total energy = -340865.5946967735 ev
CRYSTAL
PRIMVEC
9.28946312467067 0.00000000000000 0.00000000000000

0.00000000000000 9.28946312467067 0.00000000000000

0.00000000000000 0.00000000000000 13.59606827627842

PRIMCOORD
 96 1
Ni 5.284775500875098 0.22603864529388926 6.538376456464733 -0.06266035514369855 -0.3991097726232481 -1.6240607088650032
Ni 5.526775301496116 -0.10693844016694315 3.592081137133215 1.6852578491996135 1.1959519779062435 -1.5014905647395498
Ni 8.624272423244744 0.9520120366605427 5.240591099060434 -1.1527232491245953 0.2715241775610743 -0.6222378182691218
Ni 4.607973095061674 4.984252083352142 2.1235833181722596 -0.5730978662093614 -0.4838412486343732 -0.6273535422291324
Ni 9.100877611938536 7.9462716767042805 13.346172421488491 2.488692362988146 -0.7767816870876945 -1.2715665792177648
Ni 2.5799625590754807 3.9115606328546 7.849526564287575 -0.7175910356601513 -0.7305185423550967 -1.5028964439481407
Ni 6.292106289702473 6.727717078175906 2.7488942305749777 1.510243114121199 -1.0452161699798515 -0.0006319771570440729
Ni 1.965473871068121 3.867454262529139 2.5239062235464234 0.2832476366455896 -0.43634191750182916 -0.09469655764363691
Ni 5.162033826252031 5.687826721532453 6.061535315410734 -0.7369079908212084 -0.07018134611109204 0.18483094983788811
Ni 6.144022960014567 9.172313582410903 8.621946341709467 -0.4342433831015876 -0.11211963821609078 1.68849306830746
Ni 9.061360236335226 3.345079889632831 12.401490700081494 -0.47338174386394605 -1.0485794300251297 0.2557504596665854
Ni 4.449281198627416 3.8806731683785767 9.048686621963906 2.2024532478144003 0.7533905618572637 1.6050746546808035
Ni 7.856591200899309 7.000074843881931 8.831135759013398 1.2633254222548953 -0.15721910165789052 1.1324943236722302
Ni 8.631304546735977 2.0132031319637025 10.565110638436048 -0.7512406053937964 0.9402123168729356 -0.35624562626987033
Ni 3.6513813531419794 8.765964602388438 8.027649230479577 -1.3759981047609786 2.055487191343086 1.7821516716048855
Ni 0.8080773811485736 4.939671950413663 6.520537900665242 1.1803664647631606 0.32276652067581835 0.8536314463578976
Ni 7.026735602692813 7.564353984372626 11.738138507746214 3.8932016878149405 -1.4305725975727492 0.2500382397731565
Ni 8.519570885768275 6.064551604046934 5.304668885890257 -0.8205565181807998 0.6463843336083384 -0.9392895479483501
Ni 4.938696556798632 2.091058121369282 4.675252959787703 1.0505386106340295 -0.6296567364410124 0.02156332799307254
Ni 1.5416328322160782 1.5380285205719588 11.949815643241626 -0.7854427051968021 1.8002211275120867 0.42475626954675877
Ni 6.607028374875907 2.6564334184940144 8.791013639368769 0.5153588596266802 -0.11229935832706467 -0.4327953378011514
Ni 7.770552194590458 4.508102078345365 7.353039137934225 -1.6402972253285235 1.0303359104339096 0.5181495349979399
Ni 0.3041899685691786 3.578403331811562 8.531016433130954 -0.291676227028917 -1.7511935326604744 -0.44303732724413375
Ni 7.5763095232540225 0.7236696045425771 12.415494565554457 0.9205248657463373 0.5466126754346392 0.5354471457361231
P 6.101579403566161 6.457774572849963 0.2729587939621438 0.7391422794683657 0.9803480085515568 0.05942950691122668
P 2.956185810587946 5.430852306554938 6.159562373721482 -0.4284026080500945 0.26985604583003203 -0.3811580732408339
P 8.70324214821036 7.664782368868954 6.745226786985187 2.5755061754495965 0.5810875692830573 0.08622065896214183
P 0.34532278178824144 1.3714405805874392 8.733556452819265 -0.025648039585407442 -0.1655826431312374 -0.5181757602501851
P 6.3601608956427285 3.363872473282454 11.002590466865144 -0.5780202432116431 -0.8417879167557502 -0.741833967367916
P 6.251334836594123 9.27700583042437 10.987838799620656 -1.111663760080124 0.6727962479429639 -1.6690300744868418
P 2.6110265233485097 5.882858997223915 1.82539434270128 -0.177444684676146 0.976601397024931 0.0996850119971638
P 7.394654074283004 0.9655839421039922 3.358160382483564 -0.18658572774546575 0.8051173008075941 -0.9495551915404162
Ni 2.7116221181788434 5.495349048166075 9.579844182127005 -1.3642633328225535 -1.095839648563674 2.0948950037167466
Ni 1.0232900862619043 2.029459692214241 6.6611896599529015 -0.13282164665013255 0.15356479273475487 -0.04864938557658718
Ni 4.315550089274985 6.592945548967441 8.163786310749087 1.306981211271633 -0.9363206951280132 -0.806948697589378
Ni 6.92217340716135 4.85053026346271 12.446017883080868 -0.2091996084902397 0.16958533653272728 0.1490396511708917
Ni 1.1117629318768354 7.689436603671771 9.615873364373698 0.3781701942571035 0.8884195005713602 1.0565076837332708
Ni 2.40428023481366 3.468286037405913 5.044684684900643 0.021606265415866015 -0.1785353466371635 0.14945514144175553
Ni 7.449814905578831 1.767868414125574 1.026337030126005 -0.6802537326622736 -0.6506137983086537 0.2386287123846342
Ni 9.000681464017216 3.7300445258285855 1.2068498751479861 0.38207132908372266 0.37708596005398926 0.3437798897026918
Ni 7.457144291886075 8.186385716336236 4.118044958532841 2.979835801710887 0.10545482460140547 0.8352925388393938
Ni 6.676922294490224 4.45906300316674 4.876120876135958 -0.9258879298304634 -0.6718356838019075 -0.49607738568924886
Ni 4.063526958076635 2.37771237063278 2.4122961124366253 -2.029610323576324 -0.3745392823727356 -1.1067935764720165
Ni 8.710627271295605 3.5600287739969527 5.474756166586992 0.06379395452750948 -1.666201603899111 -1.216275519954944
Ni 3.175807294841223 1.0870436708330165 5.814168063068138 -1.549888496426963 0.05089755818081557 0.856405152448293
Ni 4.929509277891327 0.6440208198316381 13.018738358599945 1.0579511010480165 2.1458997768993884 1.8566930944568862
Ni 4.677328225821972 3.2023008433181 6.676076953357195 0.6221303461569802 0.1400670153586362 0.0743295639515107
Ni 4.130587591475857 6.776830469058534 3.7188646571077157 -1.3551855388910015 -0.7159509289535669 -0.5481429960362366
Ni 3.584813061281774 7.859573118522408 5.890509798950967 0.9135512626419815 -0.8649417291643942 0.18690840119220714
Ni 7.202538689973638 8.424446784645124 0.6284971982118237 -3.089776172887472 -0.4169671125196432 -0.18583650828426704
Ni 6.168203432204368 2.8116882136181585 2.7002611049294667 2.2390490446605633 0.5027843653957792 0.6974772956294116
Ni 6.818428684373912 4.732108189134787 1.326639358429555 0.84976142187953 0.29084344671497653 -0.3395231713088669
Ni 4.858286965067967 1.4850600025442038 10.249803969494403 0.6317560421722023 1.0501190065981076 -0.2921757923731549
Ni 9.096390801309386 2.473375260609949 3.091868636116742 -1.1639589699394148 -0.1656086112731664 0.8674256719285126
Ni 4.987679895199254 7.803845629983561 12.409172157036448 -1.81451620397852 -1.1142595458317586 -0.148470408930983
Ni 8.795848804860428 9.03881470963348 2.009090686693466 1.2972873810226366 0.6117849983669141 0.699501268037976
P 3.5541113860657565 7.379261434091494 9.911288506192786 0.085759145944691 2.3591128774243955 1.5665644144207471
P 0.15543779754525006 1.736302818850528 0.4176068802325364 1.1782584172812223 -0.7252701494719639 -0.17073436253550595
P 7.924915201266573 4.581321625713791 3.155960357141065 0.9518108203438124 -0.4607833383736451 0.3007506785263595
P 5.646915926479097 7.576430286273027 5.005555608850747 -0.5765385164597943 -0.24247842514802756 0.5377997051286996
P 3.9282352189401526 0.3811903273787298 1.549381173304635 -1.6573112433880168 1.036887595509498 0.5291733969122693
P 6.635240474007842 1.8309624468236645 6.4930197244194305 0.6340450953166952 1.715054620846072 -0.14596358334872925
P 2.4564591484863887 5.311287628277976 11.775894601164666 0.4489259248144269 -0.318524971790645 0.19471504172081952
P 0.15032394816358063 7.454701163116994 3.4497981481427007 0.9579968945498661 1.005557675047965 2.1340302791553114
Ni 6.741827772473374 7.4418724147135675 6.917760912236203 -3.0318520468771784 -0.2875562913232725 -0.994566466143784
Ni 2.2718032029662707 0.11437186845978943 13.469542992756681 0.21733483600286443 -0.29054699852048027 2.089460977185369
Ni 5.473305152466345 3.185542652065545 0.2682220967782869 -1.0843481029843067 -0.9561762964013597 -0.7842702821552558
Ni 8.107657517408628 0.4480772478198459 7.379850386045714 -0.6293785430789611 -0.05274798112599303 0.6804105699551121
Ni 1.745778071110842 4.6352098005785765 0.19201877389416208 0.5220540122586687 0.21018948320733477 -0.8120250836710209
Ni 3.460241362447647 0.16471518424365744 11.426706473821996 -1.578212797292953 -2.284032808460105 -1.5386802864159692
Ni 8.24085912737004 9.214552770673302 9.747877562554372 0.3187717976941284 -1.2489154174771524 0.8689472507793615
Ni 2.835515686213948 7.080410119908592 13.21484821199944 -0.9331016739700834 -0.6937484247145987 0.3381211487550177
Ni 3.511593513913348 9.149814503024157 3.8501619271540655 -4.2687508995094285 0.6337892705521472 -0.47836994110715686
Ni 1.3127125954994934 3.363510184225442 10.698473885053668 -0.6979696618847979 3.2642062391070104 -0.9389707311563507
Ni 7.770756562776464 4.843386666415474 10.086243465501683 -0.17782803615749374 -0.7872460769541281 -0.4495036516947678
Ni 5.696753895475748 6.025266465018633 10.651064181685298 -1.505706659703426 -0.37352189685181475 -1.5373332854697717
Ni 4.538692280005378 5.387507672195502 12.95523094479834 -1.0462153006683272 -0.879081510999886 -0.4081639124057165
Ni 1.0457241394076475 8.848343560275168 7.5924926967468584 0.37883688130682497 1.5176062393544896 0.1830527748915428
Ni 3.4507939785763337 3.2567742543519054 11.291398942598413 1.3522495961911292 0.3529736403868179 1.3576823371709263
Ni 2.3371081278584342 1.6351219878511758 9.632284129710042 0.16579630180394025 -0.6067011560861035 -0.5566479481834543
Ni 0.31879300440566244 6.214102668888889 11.154078384742663 -0.13972762974134645 -0.6327176347545233 2.0173381910771906
Ni 1.7628521041054077 1.236641182989973 2.2260841818639556 0.18738019862230307 0.042149122564224185 -0.7197728738028184
Ni 2.0755632970847686 6.734033913016115 7.71685631160978 -0.6973649384212635 -0.5396089904232965 -0.8100664172827532
Ni 1.3937260023251776 5.5957031169584 4.025564638579577 0.22525229107772818 0.8857753780802937 0.3049230647364942
Ni 1.9272663097478553 8.125799838648229 1.8885617621570727 0.1312195922703353 -1.7451290716339494 0.7270056441058318
Ni 1.348495606976679 7.66857246977308 5.6084464023022225 -1.457724732507509 -0.3837086075768295 -1.9279699876250023
Ni 9.247595390565396 6.128853266935065 1.949893583724005 -0.17104829423149895 -1.3584703802898606 -1.8502437392871167
Ni 4.924706625520169 7.936127583107945 1.4112988794828598 -0.9329438082359802 -0.8765623441224581 -0.29938285164455536
P 4.276738712859699 4.050512420413204 4.021403888101739 0.5123743230770594 -0.04172489054261201 0.3277315779905775
P 1.1309828308244723 1.3310871533141022 4.308186331954641 3.150102223471039 0.4783154337201376 1.0398014267221833
P 3.3199240238279972 2.29622520119408 0.04459035134777739 0.5249261916001412 0.5456590532721183 -0.3373531602407415
P 8.873629478562005 5.224245359965092 13.241822954659735 0.522506526415055 2.771678004221601 0.49333581838836965
P 3.9547008990280292 1.8890308800385884 8.263798527303 0.17373843946915238 -0.7829199387749485 -1.028697346389222
P 1.0437547732515822 8.849783427040215 11.625223227084874 -0.6618019537149893 -2.053439564785438 -0.33020857877616033
P 0.33970730140455535 5.523040937369992 9.078503011355995 0.6643447747415011 1.9134129157464337 -0.5837566314747882
P 6.1197960405097644 5.6525267621312825 8.38541617690303 1.5312791088558917 -1.4033381873368282 0.2727307962746658
