# total energy = -340887.34396513447 ev
CRYSTAL
PRIMVEC
9.16153601550206 0.00000000000000 0.00000000000000
0.00000000000000 9.16153601550206 0.00000000000000
0.00000000000000 0.00000000000000 13.40883402094189
PRIMCOORD
 96 1
Ni 6.599567425173545 2.312719824192426 11.686442492541158 -0.9245928651681237 0.06560118293957734 -0.0637114221160322
Ni 4.852636579592309 0.6064222230682779 5.879103318159249 -1.569728928191658 0.3193068442619921 0.59268170187856
Ni 2.9142021470507333 2.1989427086367423 4.839999156837054 0.7024336111934225 -0.8257159508945522 0.12457843280473384
Ni 3.6400156749340975 5.134949311362049 5.433299311895797 -0.7737544702255965 -1.4832529586856005 0.7204333902049528
Ni 3.785574158865872 3.0849273703682445 2.677315059218488 0.7458166061647478 -0.052994807029476475 0.9283353629296914
Ni 5.429327786040786 4.758382697247766 2.8745317800270063 0.18203307537777683 0.003583346475884151 -0.4453826875478587
Ni 5.732299781485384 3.444261135270816 0.19662855019746442 -0.03900980560429411 0.34309083405546714 0.9078174454819979
Ni 5.700765774581232 8.300965436846111 12.698729005690826 -0.1036275415846796 0.12663968620913674 0.9999249022422199
Ni 2.388540696109556 5.5011542282629105 12.142182184594137 -0.0878355688577455 0.39137229476967433 -0.6817699121964839
Ni 0.9043663675573275 8.229038217728013 11.900554918036672 0.8103973182596108 -1.3484119676125939 -0.8019332466526576
Ni 0.7262175516208639 0.4182341959855127 4.567652343925634 -0.24473893904743013 -1.2463098615335053 2.055282017310815
Ni 8.789348597812566 2.577304983806578 1.3313040227406743 0.6185359439375026 1.4250565528505263 0.17723025467249476
Ni 1.6893047841555773 1.537864594113267 2.82617994149184 -0.23718503795957216 1.39872305716232 -0.7460143239978507
Ni 2.0853579853370103 7.202359847679525 0.7232876924087931 1.2116079392759456 -0.6327317758219103 -1.912147932991081
Ni 7.759051421044981 4.116937754367404 4.286053295810117 -0.08565604470792344 -0.10327272934842215 -0.04238797804790765
Ni 8.03646273105594 4.1557093747097555 12.768856899138974 0.018976798212818932 1.4850879550118101 -0.2057129354932199
Ni 8.106731712158453 0.16616369454424632 7.276424453145893 -0.9029585747277997 -0.2099331442221546 -0.19651764214719702
Ni 7.137661080463627 0.9058056448625693 0.5989656489197335 0.3119524607794499 0.1390735410971153 -1.0356503806682873
Ni 1.5071551254489093 6.614656474961789 10.07854894956852 1.0709140889665878 1.4404942275618355 -0.6391029694555768
Ni 0.6807149507809883 5.326113921490473 1.2575499933446295 -1.5615384219610655 -0.038062354089360255 0.45903061734859657
Ni 6.541419156196016 2.016142580874236 6.8271885354976956 -0.8116440461825184 1.0322053595424805 1.6873445565253136
Ni 3.5357390722080497 4.351647145092992 0.574247824797885 0.4698439059140166 1.0858118320140266 0.409874724449236
Ni 6.10242583579327 5.825600864086164 5.039013371008325 1.133469800211622 0.5699971157968505 0.8404964516378364
Ni 5.17187030143286 3.2704942820020615 9.736999558344722 0.4325369419334421 0.21484215148799773 -0.22948766931531445
P 0.4130066235452137 6.178988792126215 12.676282326342813 0.1354714255681538 -0.24501893218169415 -0.33152909735979674
P 4.185163712942424 6.451755203386331 13.260385215413445 -0.10262789667557164 0.38039985491857065 -0.29192382426334884
P 2.31310460870433 9.002784901951449 1.704450635467008 0.956066767406689 0.8862749434245317 0.2720417406274412
P 6.483270887218488 8.09131284707429 6.221927079040329 1.0549015155884154 -0.4940007056658782 -1.2689957331667951
P 5.156982805436566 1.3594528420936685 13.261886791163471 -1.525970809269101 0.15596825996992492 -1.338996587835965
P 4.2503572031022 6.561583696926998 8.557517761697463 1.010880629922775 0.188751625048533 0.8564845995359766
P 5.0125145442885195 1.6047438068966224 3.923290367983598 -0.17422000709126123 0.11320335819857279 0.30483693278059115
P 0.0892498513825881 5.866736160715926 4.116351416063551 -0.15226150054229906 0.2130261813251815 -0.6986227220877645
Ni 0.9011873145661187 7.472222052028364 2.685856359229162 -1.1212493468860303 0.2080328418756482 1.6989772556682354
Ni 1.9039870571901487 6.652365357128404 5.028407060783764 -0.21713968927292282 0.961359383264196 -0.010016246585421459
Ni 6.246490989357416 6.183377167869123 9.679394568451857 -1.2355089142632594 0.44507929737482704 -0.5636081815513713
Ni 8.731951574786851 2.6345645837923275 10.458675736571516 0.5259806010065845 -0.4505372351656048 -0.19981276795870104
Ni 2.4404407975366396 6.487558486065421 7.540109033771469 -1.314816905265968 -1.0752505115584126 -0.31617729749407486
Ni 0.9040805276341985 8.923161992595263 8.990046702300218 0.4982396834478903 0.4292670129329187 -0.32898627633328503
Ni 1.6710183583041283 1.5220151368372112 11.58039221644595 -0.6032234819501482 -0.6690992587073509 -0.46099134061939323
Ni 4.502702550623398 7.507045050355698 1.7331189139110732 -1.2037038539375204 -1.521057945348516 -0.7981336704009093
Ni 5.7951112722857525 8.547713085872704 8.215431504464199 0.017758095314369417 -0.8166304436535161 0.9154811326748428
Ni 6.976995223671613 0.6822430949854079 4.88983974497185 1.176196135435555 0.580061184901072 -1.0036697139966326
Ni 0.3798162109326739 7.706885635073963 6.750677799919937 1.466056649411972 -0.7881760449675651 -0.14645723515569617
Ni 5.185530151605461 4.9245729602464055 7.362535562295662 1.62467057453486 1.7480223340213443 0.300059823106922
Ni 8.224237572865208 7.511918987506485 9.3778700956949 0.2938446954351455 0.7216338382709572 0.43673246807202853
Ni 4.804923300116184 0.7165365565320733 10.61777222224712 -0.4611054975997543 -0.7169780846665006 0.1821922266634604
Ni 8.118907393499422 7.655489418126754 4.7053474815105645 -0.128457713254482 -0.03322379505013633 0.023667518820268917
Ni 7.596305895581483 6.297419967968741 7.495806594147295 -0.8253505971353335 -0.7145710178869049 -1.319141757893567
Ni 2.688269507810962 5.695836868214459 2.807810145662811 -0.1761406211527418 -0.5409246239109264 -0.40503385141716697
Ni 3.131000734900778 4.718493369513693 9.696397463110026 0.7977454338235551 0.46497295097496055 -0.5110291219030748
Ni 1.102416788141638 3.822779156552613 3.912416540907904 -0.022042067401703974 0.3088208571290036 0.4641838794147619
Ni 0.7230036847928637 0.42416629054403643 0.2596388463289829 0.052635366807528707 1.5070850281081916 1.0244856223007193
Ni 1.1813525822979931 3.6890207309859018 8.303192606247158 -0.2818525560702759 -0.1032948408356092 0.5949843818698076
Ni 5.294185968538419 3.433954407273381 5.179698833942912 0.45873596892631313 -0.3596993891464257 -0.3530620863355662
Ni 4.4380037834075 7.428136740807336 6.047558312856525 -1.1744783814134998 -0.6438014033725106 0.41864681421491123
Ni 8.648792312535548 7.635389008147756 0.7748653077687568 -0.9802562201686988 -0.1882482030495532 -0.06836100507290162
P 0.3124221198262465 5.742872194026753 8.467088820631968 0.24628751448147265 0.8676480723519637 -0.8102931885815786
P 8.988987628738881 1.587941549876804 8.53354293814503 0.13847524539148412 1.3937297177127868 -0.1362191023674557
P 1.722286313747369 3.535390933840136 10.79553258905728 0.544212807743895 -0.12413697439194103 -0.45674182131441987
P 4.3389584177361495 6.420725080962054 3.9139181166579307 -0.6424878267674096 0.47999462119477326 -0.5668264313783528
P 6.73174090501265 4.600199616711134 10.955124713830363 1.0049249265599725 -1.6738956301092591 0.14674494159944407
P 6.513531440618956 8.32583900707992 10.622357571013978 -1.1562490028896668 0.33355229843741263 -0.9822596237519728
P 2.349769075767205 8.875512843871123 6.030341954409609 0.23545931351771707 -0.6796243266083908 0.10350207175040885
P 7.341798425564823 4.352325098756823 1.5306856145054533 -0.191922823687663 -0.746048776780212 0.5169357171954968
Ni 3.086942908287743 1.8366864137508978 0.833086869034267 -0.20218178241150986 -0.2706448602799145 -0.9647450119069771
Ni 1.763769748745045 1.6543718473962712 6.983709713404341 0.2862488853657586 -1.8642408248971571 1.0860972244649294
Ni 6.885902071246283 1.310401978361876 9.468835902769861 0.07269691344409415 -0.28608382054280407 -1.020791461278584
Ni 2.9925057952232454 1.9717091312852943 9.241261516279298 -0.7407854714987435 -0.37154291874857304 1.0869042937472573
Ni 6.588436158936315 2.451846909853801 2.5598806584925144 0.589036906037121 0.2504298187846203 0.6130232416493894
Ni 4.126310005693072 7.21375679846069 11.122306255023956 -0.27023168400189584 0.38437195219244125 -1.0331846927366142
Ni 7.823127203813033 7.130341013201449 11.893353950742464 -0.3513926690529432 -1.5819473246347207 -0.13836777327934235
Ni 7.62468833410242 3.771053124309486 8.573527545853478 0.054369318779499916 0.3712973783966702 0.07131391705363849
Ni 3.2622122534601226 0.04810630937042763 12.615768548770673 0.3175399821695563 -0.31022493656538186 0.04270499506769419
Ni 9.123103354209505 4.944334393393488 10.533577706428076 -0.9214232091908906 0.46249106509337123 0.7348153699582377
Ni 8.791455751092043 2.3076168486416964 6.16004548414373 -0.08501918245487293 1.0801410068814947 -0.28686517879351886
Ni 3.6879763158821617 2.8758977650442663 12.01230366952246 0.1761866438993288 -0.8778828627060946 -0.5288422388250956
Ni 1.3919671333495767 3.519312438164137 13.052762822018718 -0.9371203082111731 -0.7378047916038648 0.008000501706973319
Ni 3.294341760204127 8.67216339086573 8.297748821557313 0.0963268941582083 0.4999037014138745 -0.311460865855012
Ni 5.761176942950197 7.974118478591456 3.637012523434045 0.7061797084994161 1.0909553238881793 1.7700849702483386
Ni 2.903510634541394 8.467384738244695 3.83283485846371 1.3257433223704844 0.45906481302064167 -0.14656984947416046
Ni 3.7991423936784954 3.303475811593853 7.392223519696274 -1.5774484083231026 -1.5029039001473086 -0.37678102721906076
Ni 4.774818492827675 4.960165527597548 11.771924204167885 0.7595756076220531 -0.10192495707127608 -0.1554463260281839
Ni 8.56468025054048 0.51476013925749 2.5386808641937906 -0.7091994691623463 -1.6201058379823132 -0.04996450484358492
Ni 4.986963020390879 0.6042875851808089 1.948518535214266 -0.5769594060472967 0.8779993336793007 0.3107646111189357
Ni 6.461017516280026 6.04179479056036 0.5489473269865817 -1.3577581847141842 0.7814104441089575 -1.449909093117832
Ni 8.112952395100903 0.28519037022662375 11.54636077482882 0.36704297399569047 0.7246271165713262 -0.2966703378093987
Ni 0.5064689491795534 5.004983761698393 6.174244948786596 -2.304075071822961 1.5186205395516168 0.7048165096033022
Ni 7.490297762551866 6.206629146231337 2.622727879283273 1.0328915869762276 0.5489132985433578 1.5825790446814487
P 8.70760937364091 2.1275468586065105 3.903807445530847 -0.28875802494085756 0.26910888325136234 -0.1403143554827519
P 1.8675882746712074 3.683276447915331 1.848568925939941 0.4501996493205279 -1.3478879767883238 0.057041723405340465
P 4.851134087688682 1.4140555966400796 8.267350845116878 0.2801810819051239 0.46755716676236897 0.22879989921967045
P 8.612759991456516 2.110488078578756 12.581280862660856 1.2894753411773858 -1.2513739063199738 1.0264381180414
P 6.650597180680844 8.298070391470832 1.7066494041064608 1.1367741819945067 -1.4711638887315501 -0.29275737590823775
P 1.9017424808707073 3.59046092672243 6.123733736216766 2.236617552400935 -0.8033478676119972 -0.061943531582332026
P 7.125751083666591 4.187261704685903 6.479939752729717 -0.37120147624875427 0.0976947210400124 -0.6885519681153238
P 2.501419981137464 8.753884291965393 10.439192814118766 0.6027416572177232 0.6116281610740756 0.8235027452933172
