# total energy = -340875.0442443859 ev
CRYSTAL
PRIMVEC
9.24784083788061 0.00000000000000 0.00000000000000
0.00000000000000 9.24784083788061 0.00000000000000
0.00000000000000 0.00000000000000 13.53514985231626
PRIMCOORD
 96 1
Ni 0.3493602970192658 2.1593337810286677 2.1536047437974206 0.6156449955429526 0.42313981698925834 -1.0949413051191208
Ni 9.203746863161351 6.212865754030551 7.323273391373599 -1.3778176744682205 0.15205709784097685 -0.6947259581365196
Ni 6.810803381570082 3.06654694064987 9.33459733369579 -0.7457003923018576 -0.19681100501789975 -0.7140799371830993
Ni 0.8763623634897414 2.986053736354835 4.333494624838382 -0.2674458937266426 0.41959735105363866 0.5104547374568436
Ni 5.239946687180922 8.76409527476633 8.952242591101635 -2.2312480605589053 0.754380950794991 0.19012382280571127
Ni 6.183013724680324 4.6511736696432715 0.10604128864538716 2.006179860467525 1.5824281209258813 0.5382712454484794
Ni 8.151083667102613 0.54990804277084 6.873203185795812 0.9161383066428674 0.936676021584903 1.2867101197274229
Ni 0.14613900055977627 0.6618170862559791 4.225578798910067 0.4217017989911512 -0.1379826220257817 0.8117903419523954
Ni 0.7920627480173353 4.671121261746258 8.751854832991869 2.6424355902822945 -4.567906465634527 -0.34009909841699487
Ni 7.6579888080709875 7.414206482884702 1.30944336116192 -1.7887956592839642 -0.36898647087530645 -0.5330303087645143
Ni 7.223553001755745 4.886577451275868 7.758834659885842 -1.352174777089136 2.0243151366156558 0.10929528139341822
Ni 4.693787718975937 6.510100597694007 8.39195477207841 1.0221706010142977 -0.46350716506271145 0.3329126079708847
Ni 2.378498354625639 5.149512054276379 4.0655661879317 -0.3963005853092271 1.0586501839975704 0.5312161383739109
Ni 1.2589455277458999 8.587415280734087 7.273274941348195 0.12650033241779507 0.3977630287873666 -0.6336049224554829
Ni 2.284003919712189 8.018636094502257 3.674332593609184 -0.5810250914762379 -2.2841348812556084 0.5453744321521639
Ni 8.52511257883431 3.1464945223514533 7.775902474436269 1.8138562017970181 -2.022514850182123 -0.8107883830504423
Ni 8.735796882631357 7.723972150516424 5.64675641937041 -1.8644652822031371 1.5341631152719062 -1.9180635271445674
Ni 4.976910357934175 2.2854928220434734 4.309957021027293 0.808832287765336 0.022425418883051704 -0.7560390552237044
Ni 6.372594456303511 2.6192843794682203 6.479601219504091 0.23251771439088986 -0.7780559258144278 0.010396512742975643
Ni 0.5621494093293578 7.182353872029828 13.275694061084272 -0.14358659847612046 -0.32952852199000027 -1.4007920238762068
Ni 0.7108685574073227 2.7064730203337524 12.076087302336429 -0.6056364622670151 -0.7373947006496396 7.327644009664799e-05
Ni 8.905291304543054 8.230790804949455 11.003426575835643 0.7601595051499812 -0.3873194648565394 -0.1916106917638829
Ni 4.2970738543334255 8.62230738319332 4.590987798449278 1.1310629905423424 0.10101015856649057 0.9295293832377927
Ni 1.2888622919800954 4.231719365046545 6.44022668872204 -0.36732476690216737 0.4559064698973181 0.07884493532336098
P 5.828220321327954 1.3018647558172762 8.064851252951707 2.015966250430328 0.3641255432385794 0.001976664110396596
P 5.765862132384776 2.2887295662419183 12.878667619430596 0.733372209753808 -1.2667349621570765 -0.38024687428047416
P 3.2306221279893133 0.5284280834859046 10.619109441473174 0.2818409861060501 0.196963471435364 -0.41203136578092264
P 3.012539551738679 4.116324810451709 8.278084261609013 -1.1321503100692503 -0.42849722464642975 -0.015263096806657585
P 2.692083380411524 7.6611885609071635 1.1596986275650762 0.5881683873892387 -1.6353730485540288 -0.18208835409574448
P 1.3675244238428677 6.893775007137069 5.676723121943667 1.266384006575561 -1.0708228148043621 -2.120912767936747
P 8.876974416726945 8.081123753213374 3.110215243807172 -1.2967608190952054 0.1615753217440572 2.5274710264182407
P 7.650858722993841 8.077221164494105 12.706933370533577 -0.4262030292956144 0.307688029076141 0.8376034463607573
Ni 4.727819772262441 8.34189436152121 2.141531687937222 -0.9063696572918778 -1.9659143280792593 -1.2458221232638094
Ni 7.107797781378797 6.457415649983895 3.7326420779521365 0.15537510647061628 1.3583744781419445 -0.09332204589361347
Ni 7.54431435182161 2.899632666256363 0.6987751562978769 0.7700891055588673 -1.8262394059527194 -0.41986526000304464
Ni 2.2275643487318812 2.9809489283618595 10.148424874487521 -0.013271777408241661 0.11007406854097171 0.024707015828376803
Ni 3.2089266940191674 6.340485953854939 12.960406507850005 -1.7203675484185532 0.43059447349509067 0.011082997287038977
Ni 0.6322545143154991 5.058790738314257 11.603385781323118 0.6339923877018888 0.38333939716286886 0.46103736336598017
Ni 1.2737143291313744 8.979930625759186 1.787789764057319 -1.7950994900148052 1.5899012893744746 -0.926106987819805
Ni 3.355264523151134 5.535008288311137 10.017309915712868 -1.369416337778403 -0.5109234495631458 0.40293454568597703
Ni 7.159409979583139 3.479296560835533 11.578995526611752 0.6816755527104646 0.31295699078456424 1.0624993825403315
Ni 3.0626073605683346 3.34052346528736 2.526999253666223 -0.6060365259189111 -0.7405628139649761 0.40643535975038386
Ni 4.4522988582502645 7.688330972971264 11.296530409117828 -0.3777161374388205 1.0179581055948468 -2.0509815901632487
Ni 2.7113743758342546 1.0195651746695 3.4718871909732645 0.10842059209794877 0.9873678915128156 0.784464657554249
Ni 1.660976900714427 1.986426905947754 7.523580693270431 0.016920944125054727 0.4601400483626914 0.8802981570158066
Ni 7.699604090622418 0.7439184900256128 9.515805995253684 -0.7083576899873413 -0.06935422222410637 -0.40225603156171363
Ni 4.620683539293923 6.262267718339383 6.036947782061027 0.6496285515772489 0.19043004119222043 -0.49581384761521713
Ni 4.947437490047194 5.517307921465928 11.843106454932384 0.40837114332051605 -2.2269424912050164 -0.9010325613496805
Ni 7.957239680978046 1.019065791278883 12.169276866945877 -0.32053891689688024 0.15672982072629782 -0.34282343932669346
Ni 5.422767247349642 4.114650951309085 2.509173116189303 0.20691929709649526 -0.06805324402449571 0.35601294143377393
Ni 9.043352316367567 5.31407737716587 4.530823197288589 1.2096441306813555 0.38772724181791934 0.4595710632330988
Ni 7.406706484184878 6.086974900392188 11.56809972085573 1.398392413295779 -0.4145615884019441 1.9503979776112155
Ni 1.561692084387279 4.109462912751006 0.40222372805232065 -0.03144767698632003 0.036566743380440254 -0.18630959126594365
Ni 6.7714538199575625 4.353337716342962 4.842253476222367 -0.5619099679133419 -0.13420027216521405 0.28693048481381556
Ni 1.4376785423840137 9.184196928202745 12.229738323788768 0.9715286104877139 0.9938599269950626 -0.36014701820680556
Ni 9.135923200443086 6.188469950614845 9.642128723046525 -2.160046500713415 3.8141523497902563 1.9787207358153085
P 9.038904105054849 2.3695834363190653 10.081358609911693 -0.01817127159238806 0.7839838612630885 -0.18120466593921053
P 0.9688130256378878 4.37039073434848 2.505518369597231 0.06670392908545286 0.5542745628552712 0.7367023025683054
P 3.0750919453337637 4.202431453970904 12.026778741217324 -1.128658751976224 -0.6341831635564562 -0.7425639035554049
P 8.235386981711246 2.401451494912895 5.432020636620967 0.27404334443850226 0.12864154713051396 -0.5353394165136651
P 8.573774715897784 8.152073186043282 8.51860302385921 0.5185133460952619 0.10914718585132814 0.4255641101600348
P 2.3976691281209983 1.6042506466765427 1.2881132168941698 0.9076747492565465 0.3045577109772755 -0.8114504421144736
P 5.740735749564279 0.529242818239856 3.173126453616256 1.2604005352986165 0.7818058797751631 0.7506783051324233
P 3.8140036544764113 8.11337097327045 6.989185903050708 0.04718077145086068 0.19153098756588305 0.39618360011538867
Ni 4.776666866137254 2.9984180991928935 10.768266937194014 -0.1423105599771743 1.1590113961261523 0.971548922202688
Ni 3.9802613321896625 1.9966365219337052 8.680159099428208 -1.078039901378092 0.2610389617590343 0.5585461936474315
Ni 5.655239463522505 0.7327313772917314 10.986589032515333 -0.608635654104655 0.09757105097795453 0.8467642869244192
Ni 6.844234325219732 0.38742348400891824 4.966235575567704 -0.06934368070114509 0.6669354182868126 -0.782953106005729
Ni 6.138836790291838 0.28047313263579654 0.35927860602735695 1.0428533261746298 0.2041090813412098 -0.7118009113409355
Ni 7.831321083817982 0.4570125594914217 2.317109339373881 -0.7996305666614099 -0.08482660682809261 -1.0995662054856417
Ni 4.94993440700028 4.241041188338065 7.368237316994335 -0.8662401362608436 -0.272389353774847 -0.27308072341491674
Ni 2.2490285866878525 6.252501998700647 7.463389273372097 2.3496525033424436 -0.02225032675776813 1.0913456173480625
Ni 4.682949249831431 6.405877434504089 3.602907821774134 -1.0472229159972353 -0.6826916526798049 0.48919531385743487
Ni 7.37759428208001 2.515458873422683 3.1129350337179225 -0.7462817187266244 0.2784967522241656 1.961723172816047
Ni 6.871117797747957 7.714789044833408 10.012626809249749 -0.25703241170280255 -0.850959041732057 -0.5114736656396611
Ni 3.2494137400214265 1.7626569077484244 12.434078608956861 -0.5632263727319202 0.25996681174077807 0.277309931004916
Ni 5.640174731238886 7.123630084429475 13.285398744975264 0.7739249343651897 0.7915182219669207 0.6357582213530599
Ni 3.041050644206693 2.97496557551502 5.462245353946043 -0.11597577873738736 0.6723051672391582 0.8140246305995529
Ni 2.7215839918202054 8.030399347703462 9.250855363009572 0.3230621975393662 -0.037089191542813545 0.7353812697640367
Ni 4.295899378581419 3.5619815033449433 0.1881695111526652 -1.9638988403111277 -0.4846408617175331 0.8308324461855111
Ni 8.021706377570498 4.668744566720543 2.389143543902295 0.10393170308865973 0.49113109742756705 -1.02689037508747
Ni 0.904387019543932 0.493346400295048 9.438654960539557 0.5037032776656228 0.4541480924453147 0.15971769971002817
Ni 3.3735567517926293 5.469357868126111 1.5744356086885842 0.21326683658107787 1.1333165624632096 1.1126482354805807
Ni 6.278247986839133 8.272480070225422 6.8936409134488486 -0.6510267174763561 -0.20758855524937797 -0.3170895248956991
Ni 4.5621909477077445 1.4364948187914397 1.7111001965874846 -0.49878784264187637 1.6494889191301203 -0.9973414577857598
Ni 4.327721197972414 1.123251963106533 6.337752292183339 -0.06934985134873217 -1.231520876149789 0.619278735640798
Ni 0.439498999025666 6.708873682840777 1.941658109762981 2.7150530566387046 -3.5999159502070586 0.8926083418417273
Ni 3.8942101757138703 8.802076155974937 13.260101277104278 -0.5374001556974357 0.6355288789510732 0.7077995034910262
P 8.539502218756539 4.739166872638131 13.481401177088166 0.2555586553707534 0.30743786073854795 -0.8140793950968883
P 7.000957479308422 6.435063619333493 6.094241853509724 0.2805189248605169 -1.428078627506302 -0.6317390728913378
P 4.380961016116545 4.407936967050439 4.738710029314122 1.3530780056296956 0.7926587633292671 -0.757711814940437
P 5.593047735709533 6.131817679301497 1.6832854665141646 0.9661987136343683 0.23395213284457128 0.2998438504413739
P 2.001648851521011 1.1659492430043013 5.62457177463427 -0.7005705898427547 -1.7081031292289035 -0.8228627977164732
P 0.2114851667901471 1.1979930105689034 0.1473273480726338 -0.29391051567607446 0.35752886385766813 0.22219473519832703
P 6.177122850239154 5.165159400515716 10.173045400429006 -0.28299695408736425 -0.9217903627223222 -2.5731479596300653
P 1.919749975459794 7.023799645508875 11.311838359608357 -0.9632833397597862 0.3752244813652183 -0.6296929889955866
