# total energy = -340891.8515989002 ev
CRYSTAL
PRIMVEC
9.09504427417507 0.00000000000000 0.00000000000000

0.00000000000000 9.09504427417507 0.00000000000000

0.00000000000000 0.00000000000000 13.31151663641915

PRIMCOORD
 96 1
Ni 6.451024008652165 1.9352981075512972 11.333584881137053 -0.5152333897924094 -0.536322863472857 0.9597670990764116
Ni 4.818199791125745 0.32158348771352213 6.185702465302052 -0.46110086961406394 -0.7692473263838623 -1.6045195535082817
Ni 2.8435383316176366 1.583938354132737 5.053052026391174 -0.029685185769258552 0.4548214643632554 0.5551587652324375
Ni 3.1183723818558335 4.587922363169528 4.799068365330654 1.0487817758439228 -0.8965531854220882 0.02211405829021998
Ni 5.084602735249348 4.937963335157003 2.372577835461724 -0.03383931714694817 -1.0209516410055322 0.6713741707844567
Ni 7.103275114378299 6.305057641841891 2.6150871885673648 0.4793765279948002 0.3595710910986775 -0.6691193133120088
Ni 5.17158773943487 4.535835044163832 11.481036468690057 -0.4048865272060253 -0.44069890891894425 -0.2544973039857746
Ni 5.695143967575774 8.111779107384537 12.413668692204865 0.13370096393129233 -0.012099611477011421 0.4689139379005795
Ni 1.574497698095036 6.599546082925438 0.34454847470311273 1.6165646575982742 -0.786924174838335 0.5409241096902943
Ni 2.792715223776911 1.2191179350727537 0.18643567616032547 -0.5958937810579544 2.289910350286805 0.2344439848793253
Ni 0.5802329065267784 9.012306733840116 4.798868274354903 1.1753124472790208 0.28391818035005295 -0.2810352023753031
Ni 8.662402187517927 2.5852845472337056 1.3399774319484663 0.9801150666051444 -0.9832690388530936 1.3791983568658313
Ni 7.199446113359659 0.5635998894152683 5.008871029440942 -1.8153371572179187 0.29711436732535285 -1.006165483835293
Ni 0.49442843909818607 7.629123293695986 2.1698574823885814 0.23492041029511151 -1.0140310026262989 1.4403890694425387
Ni 7.611988230136228 4.206157876481186 3.9165944019144177 0.7694244753916749 -0.06811417916941817 -0.5848110408812315
Ni 7.549678081278532 3.683620293307741 12.810151689168558 0.6009128315391006 0.2214041209762316 -1.3600904323917866
Ni 8.284775946009885 8.808404934505608 6.823842609715572 -0.458135873448469 -0.14006675824832007 1.2230048682589776
Ni 7.027067737750268 0.8328641344921092 0.5254498163750556 -0.3710533807066642 -0.43927246088506283 -0.6273717970615776
Ni 1.8680129694328846 6.379400534377699 9.344645111500249 0.882938422852131 0.17358083084536557 -0.018232978068258923
Ni -0.15611279828971356 5.052815555238013 1.262583152032458 0.3692476949564931 0.12429458301572786 -0.3233715012496689
Ni 6.340219083307934 1.9898865637538803 6.991541585005697 0.8895839531931067 -0.2843727513889683 0.3549721588740854
Ni 3.5886680302695924 3.967640338341775 0.1549167999573844 -0.10667198483795821 1.1309994842942586 -0.1532814571663812
Ni 5.957163100321562 5.698636464607063 4.750587231410648 -0.495921576837675 0.2619025953109102 0.957214764968203
Ni 5.450378133966325 2.9011463425451876 9.268343146410952 0.4996023681233719 -0.29354876146128156 -0.008533234281991755
P 0.16414281294837083 5.625912489965967 12.359676870911795 0.23624349998190927 -0.374192183445962 0.3019056180664091
P 4.049077365472386 6.0690685260324235 12.53642723434134 -0.8051103588290586 -0.11031395246591968 1.3202601877687263
P 2.354324990951066 8.671806463378218 1.6322585057677061 0.7544508848009781 -0.8290190471258562 0.05507020150126645
P 6.4698416554171 7.768077381310626 6.019375022700255 -1.6347369576319266 0.40981533196621034 -0.9378042216520752
P 4.690841885060305 1.0984994568723772 12.557725099701154 1.1681053880076204 -0.1702093432699714 0.694196825105927
P 3.972287906005807 6.141146752524505 8.20483323466636 0.4489572922729945 -0.09144899724061671 0.8598152065711062
P 4.657854159194464 1.1570351623238644 3.866516178206146 1.245553442983455 0.5859253569913329 -0.4747205172800276
P 0.06726967654301344 5.702056201283532 3.3706225274628023 1.1051149032180128 0.48223610893078234 0.997465899178766
Ni 1.6732698797611565 1.3720238207238415 2.9638757729475262 -0.19369302821420836 -0.5656082427005356 -2.171873832365647
Ni 1.7297410101446684 6.551524248745224 4.71957131116039 0.2110358903680301 1.003257823270195 -0.37058981080668435
Ni 6.219955311837298 5.588177150948219 9.294220366602152 -0.3994370740556798 0.30040872180590844 -0.14978449975671623
Ni 8.697236207387286 2.1859848150341032 10.41990945856577 -0.4424063785283542 0.8732178531302575 -1.1248959424996818
Ni 2.463028961049913 5.200901067382375 6.992420166290131 -1.1007324578796012 -0.6722097793118745 0.8013591193167425
Ni 0.6404202720326456 0.05985357737813733 9.162676011621345 -0.5493588707212087 -0.11343655725530143 0.6038590586516182
Ni 1.4386268305158305 1.1240201513249677 11.428909131489212 1.101219939038981 -1.0454588821182769 -0.46857069562854786
Ni 4.086148766252415 6.973807158023122 1.4505959088834746 -0.8723992138837039 0.3794490609695272 0.025754483256284676
Ni 5.349277620946012 7.883548064407593 8.06269224351067 0.8059115145741153 -0.46197170225479145 0.7556626457208921
Ni 5.251933361243204 2.945803010315045 5.098990185910272 -0.8646175130557562 0.4499407392321864 -0.5209715778277673
Ni 0.8379737304092387 7.280064586498561 7.059736227559341 0.6695386602376147 -0.6985833842093969 0.04996399062295266
Ni 5.1101779999680526 4.542610852206305 7.150108226261665 0.7883423953421004 0.8886136188600373 -0.13536498189727653
Ni 8.45693604055482 7.173316050935463 9.373743796401039 -0.4746161304916794 -0.4993429438143981 0.29217939191758063
Ni 4.6788182364265465 0.265843598895936 10.479171858061006 -0.30423195220674054 0.02105527800840245 -0.9667946953471545
Ni 8.195962837909548 7.200710324524629 4.786754584782057 0.11817047239586101 -0.6083952559590747 -0.29586481118896785
Ni 7.48904142058166 6.398363701852272 7.20922419554283 0.21312156925246523 -1.8634520104472747 0.2320536302702778
Ni 2.1592362895939505 5.1649028818359195 2.5583541209065066 0.09051542968275379 0.4306376680282003 -0.8847785613846633
Ni 2.486448700257119 4.998172528769316 11.346390703585108 -0.7962133134497449 0.7898405771541817 1.0903140907597546
Ni 1.016289350971819 3.398017710556405 3.8169572815303923 -0.49802576766487133 0.6985707858039066 0.37969460132142996
Ni 3.6400732209488664 3.163092714936157 2.7943668838312905 -0.06596936491227348 -1.518598685174746 0.343936212774898
Ni 0.9692497815816556 3.143938551530186 8.236248427363684 0.3010265578955654 0.8902341851825958 -0.6430843227008279
Ni 3.769841313767669 2.7303141244756906 7.294031846110409 -1.2557499239004826 0.18461651983423688 -1.556018777694417
Ni 4.009941389624383 6.8371086414078555 5.985217674130707 0.779642039354625 0.3530564299086113 -0.2157716052808026
Ni 0.9392634203520793 7.5477317417871355 11.651144721229112 -0.4315822913296567 0.45877839212847443 -1.6087857849838036
P 0.3047640221927895 5.394580036864884 8.187660881424756 -0.5979180105768348 0.46741138521312403 -1.326481743198406
P 8.595680942149357 1.518726886126652 7.875426189800977 -1.2807760136311748 0.6847662758206465 0.8736819372508695
P 1.8105140990375612 3.1411645630027305 10.266667056273649 -0.30153383654928717 -0.029676958239142435 1.2331866938879859
P 3.9575994093768214 6.311751594485194 3.657072768347774 -0.39175153248596406 0.2140937033577474 0.43687593562842825
P 7.061410625224602 3.929186490820195 10.644315125888133 -0.021646631735498204 -0.14251290579596745 -1.8577313059134135
P 6.4135706160093395 7.68430292778147 10.339893986867427 -0.45584887718650524 -0.33390556801177335 -1.7894849720415051
P 2.572078542834147 8.451169782435453 6.048260883563201 -1.516657245177659 0.5930169737307917 -2.295885079813001
P 6.987849906503094 4.1004916511960126 1.462350344204404 -1.0374378115860132 0.07224979860434654 2.218230822363631
Ni 5.408941111897186 2.6998366308510895 0.8729268953596132 -0.19617517120611375 -0.5651613849711041 -0.3669151901685746
Ni 1.4562621215149656 0.9180810620555421 7.109268748606474 0.25827785407412934 1.3520223106716716 -1.1933171113865577
Ni 6.930078184777201 0.5187567732361884 9.042393140557568 -0.051355471653840586 0.22149616646940565 0.09607749715156357
Ni 2.8651754421317888 1.6470488668934378 9.119160771917702 -0.520829138712632 -1.4076113607908856 1.1861691874878668
Ni 6.492488315854359 2.3420648711641485 3.097949459762715 -0.04890443901018674 -1.1986531788874903 -1.2216434691350766
Ni 4.305030103635182 6.912288278024076 10.56041243223361 -0.44989600203718005 -0.3644135067926434 -1.484828016482204
Ni 7.997781821472646 7.387531630565492 0.15865850120392602 0.44806769057918966 0.021296961705563323 0.24120135820781688
Ni 7.615508012300573 3.6273219687669234 8.096237495595306 0.6302082380691082 0.9549488517521617 0.6121542087808747
Ni 3.2515147361293453 8.101565372576891 12.539568662660631 -0.5329210368801596 0.5570855499415052 -0.27497999732015865
Ni 0.10362256881920894 4.750032433705158 10.262021307618486 -0.16304933518642242 -0.5259286647227265 0.53266598344656
Ni 8.481519945439123 2.4954618892102616 5.659231275446231 0.8378947523489312 0.015029383529296695 1.023828448332695
Ni 3.735616661869915 2.603038073809421 11.309770417004957 -0.20258416005625113 -0.06258013672506642 0.15767547246901875
Ni 1.167221611998455 3.269277357749413 12.584907458756913 -0.4321901001169848 0.6621732210114789 0.09345368637547131
Ni 2.902774355484252 8.313834612715526 8.135612671109774 1.1168540460318122 -0.2926036239391928 0.4119267218822583
Ni 5.565084833337697 7.987231570023962 3.834448870828761 -0.03653100504649838 0.46559181550588197 -0.12135864031585551
Ni 3.150859880282296 8.68891424180492 3.768942723385661 -0.2599287594139911 -1.810939028150223 -7.584754325793388e-05
Ni 3.5718512932621653 4.2681406037422 9.403561899310096 -0.04852828661769062 0.6467383745136475 -1.1422071800846199
Ni 7.22501228303401 6.009950737742388 11.564473496073745 0.5940127619851576 -0.07788514251325296 -0.32371191530822313
Ni 0.796591278606214 -0.023105960177051448 0.2837335511369359 -1.8700566602479856 0.18256040863615658 -0.6224111106221926
Ni 4.439454859162369 0.3638645298985553 1.6284776958304494 1.4841435888206695 0.10544659707128937 0.6526213156569857
Ni 5.9199007036101365 5.7131885355707634 0.317344287540909 0.5195047634742538 0.3716676172518954 -0.32875282016624024
Ni 7.894080125767571 8.866267606675024 11.188143298385908 1.4044764147063296 0.8561305586306674 1.201795324060898
Ni 0.2401773837337084 4.875007438150292 5.772007096901608 -0.6908093966909329 0.26262198997543806 0.6107673557356772
Ni 7.801528954438433 8.958482261363127 2.6922413593124723 -0.86648876193654 -0.11384099178257168 -0.32481466145409865
P 8.651051572166239 1.5792998815130572 3.6818458501546045 0.24001530831951567 0.6714132515525082 -0.7488438230268458
P 1.9813645071957628 3.1803460140724953 1.3204239960954283 -0.7313217549826824 -0.11581559901043925 1.448819716708395
P 4.735071085745603 1.039263433005762 8.196473069897714 0.9673667658005403 -0.5256247603290626 1.1315304170970641
P 8.677681862029813 1.647958371328669 12.582883811388522 -0.5140092875773212 -0.8960021980146247 -0.0633614949757812
P 6.164029884114924 7.859664477938419 1.289815533832154 0.6006786040411074 0.48872377353765506 0.9372910294610826
P 1.7575354656853373 3.213133648962584 6.018029865640547 0.33123059228277146 -0.1740549422683067 0.19267949934802944
P 6.94663116549841 4.07067809580913 6.016139915424136 -0.20259830112363816 0.68051032875777 0.12712845292009717
P 2.413097167555714 8.418900565073447 10.222006750486049 0.24822381227223705 0.6007572797978428 1.8727804869370523
