# total energy = -381171.0279008625 ev
CRYSTAL
PRIMVEC
9.20456625281381 0.00000000000000 0.00000000000000
0.00000000000000 9.20456625281381 0.00000000000000
0.00000000000000 0.00000000000000 13.47181312280464
PRIMCOORD
 96 1
Ni 1.303946439266949 0.4356613153536489 1.3178370498815608 -0.1946019131817229 0.2874927850751887 0.4276760142967151
Ni 2.498266496968709 1.718124297477596 11.81697560150812 1.5884586433906773 -0.31557591646465005 -0.7657562825114683
Ni 6.444521687202155 8.232876823583393 6.469528652226193 -0.5199297668268142 -0.6731670010188213 -0.03417613166107663
Ni 8.549403440650037 3.656421814689812 10.847032488852552 -0.3840611058202418 -2.2272060292790483 0.26377975772896506
Ni 6.690219168572397 1.4369708277119626 3.1517575495425785 0.32345711898493973 -0.9228920804269333 1.2072643175952693
Ni 7.932062400751157 8.525554410034134 8.562738095475687 1.1544353467196955 1.963619361397496 -0.9353007385039311
Ni 0.9534917917679563 0.6631383582429266 4.365702662503376 -0.21293670693516875 1.2124548606572734 -0.6134762700264079
Ni 7.203162020418181 5.45554629334068 11.119769303428999 -0.7914518875053596 0.47948631409978715 -0.726688112865413
Ni 1.29938097450991 7.6068742870386 0.5449029460582648 -0.6689665897842285 -1.348010361298801 -0.5691134276403167
Ni 6.2151623105572025 5.972612790773466 4.701743880036548 0.24486775131581054 0.02187751679938168 0.8553468863871075
Ni 3.5707825322311626 0.2309425620042478 4.694939864817994 0.2533642188225959 0.8539075828374196 -0.15581013712550587
Ni 3.2548726210893615 8.608027321774193 8.573946495545538 -1.0627035281313377 0.37717054934799554 -1.0722685461119534
Ni 0.6270509366170257 2.097610146274373 13.045618565525452 -1.4138123473952748 0.5398182782206252 0.44430153866853805
Ni 5.57865736415801 8.819216885051413 12.986747081574755 -1.0643289795499025 -0.16062632756722658 -1.7681638419662258
Ni 5.869484832834224 8.32200463657212 3.797447732395499 0.3301090770838186 0.13152555354652834 0.5059259963485544
Ni 1.2582365643003053 3.5037180640461107 9.272150568583658 -0.4989932737844633 -1.0261077312851747 -1.2221512620094306
Ni 6.229917229923197 2.3394969373030547 9.962216884783675 0.633719079435844 0.49991629981936486 0.12815380886081798
Ni 7.587075265481361 5.863409819246229 6.602576052086313 1.6929919846190777 0.6167821944711894 0.25236868767854603
Ni 8.05347062685064 4.123811269191673 8.399688412600309 -1.8039096321072674 0.004913892361849601 1.123314456945175
Ni 4.549890631295166 6.8681802484364916 9.372690202551771 0.04377354554152461 -0.2066681003176376 0.05522163947746619
Ni 4.966581336035393 0.6978570608983201 1.8510409924999136 -0.15881010029409423 0.540431743434908 1.3529404516105668
Ni 5.666837106844366 4.707380756280925 0.8154785285279526 0.20836734239693147 -0.984391325382995 -0.004485289464863243
Ni 3.514726725032842 3.5427454240659597 12.88423951138677 1.0207649789160225 0.47791639850950596 0.7133235186330489
Ni 5.180642723917847 3.410162854790982 3.840530624213637 -0.25627856425591344 0.3488853292500572 0.4840651917197211
P 2.8802836014271507 5.262020292298859 9.829815645459735 -0.2341868745631967 0.020471637590790553 -1.2907500941247514
Ni 3.819250587980173 7.058788402042866 4.852493501309445 0.8716350820241698 0.04044036740323358 0.7689531921822111
P 2.3488855946663203 6.160836961774856 1.8189906935402167 0.25427696044485243 0.046643668000468055 2.1928985142464295
Ni 7.3651347690665965 3.546003840444975 12.914201294311443 -0.2852207012115604 -0.6274149915946872 0.031127317532423805
P 4.430037976856852 4.704462908845478 5.837215465202718 0.13004022725025347 -0.41388590249115814 0.24390255918906378
P 8.08709490660359 0.289395238200014 4.176801035441264 -0.5484268458252426 -0.8359918788992635 1.5113633437685714
P 3.5134012675227333 8.559878236806307 11.848068625599407 0.28446813931625203 -0.3320705716855636 1.6577917825688608
Ni 5.511592895972958 -0.019166667870125356 8.813785270629783 3.044241421680467 -1.3031808636889364 -3.081391805478519
Ni 2.793631816703835 6.410925021147331 7.428452058415781 0.9615203343220924 -1.4825176231814727 0.5581163051988647
Ni 1.866290197062386 4.312799419174583 5.881577791700752 0.14760651826879095 -1.7137860385462935 -0.9124050648526804
Ni 7.947507662570333 0.964362384264051 6.482676454361182 -0.1251998684388166 -0.5438297133728635 -1.3676574461057671
Ni 5.300974015790367 6.0683955050108604 7.206449891408532 -0.04814313536412999 0.24552363973225455 -0.18030298006054757
Ni 2.4543515123803368 2.756629461213318 4.120879614907163 0.633617006640341 -0.5905800821545248 -1.1330707650009906
Ni 0.6818908206411433 5.222946909448797 7.593912417137667 -0.07942831863065675 1.1430962675577927 0.05280711649870261
Ni 0.987880050502427 6.306802970075508 5.294759092798527 -0.33800622044370815 -0.9943499792576037 -0.13524002628363807
Ni 7.060279541741738 6.6848897248338375 8.949325266974189 -0.5795623908877825 -2.5573644715435635 -0.12171833764811939
Ni 8.882332594404268 6.063839244819864 1.824932240920597 2.799754964963475 1.0073726167695167 -1.2265979849268744
Ni 1.2607310016978004 7.863727702452252 3.628767616471974 1.4162875484086448 -1.2549729365251419 -1.8072986031841582
Ni 2.1647758646858914 8.104804491669201 6.109292312393924 0.2490743331979904 1.931562847182583 -0.31788810953759444
Ni 1.5165350965826168 6.587984053539269 11.685342943448722 -0.7481588811446792 1.1783648609520996 -1.2484724164024628
Ni 7.759578037682301 7.730510018120348 13.310191850478878 -0.19706914377529286 -0.7092030687067722 0.1257156317329706
Ni 0.4743370609506775 1.5425472002184881 10.71327081466754 -1.0523815773800391 0.22222481710531405 0.14509969268653722
Ni 5.622222575236771 7.755380755566959 1.4653825617150917 3.136337308476463 -0.7091490755403851 1.1217278291843455
Ni 8.415596664091419 1.6231331759198506 8.690181755529183 -0.34760337721384005 0.9844131797598661 1.0847664214686479
Ni 3.465233773422764 8.046060951186494 2.708710490396494 0.0886935459826666 -0.2544829058080714 -1.0966868270553176
Ni 1.9169613331258928 8.960525382934602 10.511584045372512 0.5407271631881397 -0.2788366520620875 0.26536587126916233
Ni 8.317632467701971 2.5852864643337217 4.469786054397821 0.4824957903500723 -1.5073403386521071 0.5950458312353624
Ni 8.932193728656042 8.055596881606439 10.741440468583756 -0.8111365104184803 0.05709083147572103 0.8916014978437676
Ni 5.64986388706215 4.7813762626959155 9.215595873905837 0.032554279786937486 -1.1363383800086688 0.47114874076836927
Ni 8.867356765453255 2.0223167960474 2.238664598134791 0.645957787593881 -0.6358698072302598 -1.0844051814744875
Ni 3.909013516025825 6.89879463509357 0.500358369152591 -2.117492686511605 -0.34047345103727816 -1.0079752833505222
Ni 1.9733485047017405 5.206157780987429 13.446701087627552 -0.24518553966654547 -0.6365331518458716 1.0103018746011696
P 2.7921314724389212 1.0126679468546567 2.77831910063567 0.3330455340043232 0.02965407542100699 -0.39101362587867494
Ni 0.9254178653385838 4.083495269925885 2.780865083603002 0.4974017609276273 1.5740704929898053 0.38994096163978653
P 0.22183372344867172 7.44031766450106 6.946861799423678 -1.2861884428959978 -0.9442342935481352 0.7217037722769443
Ni 1.8415299144082837 4.032290269031919 11.37505978352865 -0.5814740060881985 0.2844475704909617 0.6299781243361731
P 4.376853994263765 0.008333814094804541 6.7546189148881695 0.4601197366477173 -0.08535753963089815 -0.08553211753554947
P 5.853238773769357 2.7702982417863073 1.927304503987757 -1.146848021290741 1.6964614312249169 -2.7076544501817885
P 9.113919476031485 4.47332705095434 4.5537289353348545 0.052234017604051976 1.430306488395556 2.094447374656367
Ni 1.9722623659087353 2.662788910410874 1.5095028081262103 1.1464767539942513 -1.0682116024337602 -1.4684493180138645
Ni 4.007576009208028 1.6903817354257509 8.315247564640382 -0.6161718145807001 -0.17180599833312993 -0.8340825776916926
Ni 3.2477943098027424 5.023493167875659 4.105642376280546 -1.0334515732447558 -0.18811913367085667 -0.4355759858700821
Ni 9.152330130126492 2.963861061092299 6.789429663203987 0.6938512688410502 0.23556704274017493 -0.6185444285779347
Ni 8.400547198612065 8.670876098711817 2.2050255910761734 0.3492781938131017 -0.8865791049285119 -0.029837395076406675
Ni 7.675972964319025 4.08777539313561 2.4833403726743253 -0.9143038245372899 -0.8522479357468096 0.37731838777976956
Ni 4.7053189334874235 0.5744008188543993 10.605428278001373 -1.380202115539997 0.8782135065726359 2.016024871582405
Ni 5.739755679032396 6.327623698463456 12.664218166991851 1.0062649855276349 0.2549284779859222 -0.2056579138855684
Ni 3.5991049819436802 4.23875788992938 1.9380416302762367 -0.40733550296715004 -0.03299702375131092 -0.6101880861934394
Ni 3.5703315084950837 0.8174317374421536 0.2228618734756097 -2.1983945043639945 -0.6610478491577841 -0.7968941415668533
Ni 8.363765752706566 7.327626162443746 4.338772863633077 -2.165424734306193 -0.19008191382418232 0.12984199519651832
Ni 7.430938211703837 0.9586647578837947 11.686339797951115 0.1437470353133847 -0.3303605309729923 0.012048703634417958
Ni 3.7272601549522553 6.356774559119791 11.573459602289931 0.3982263415770303 -0.5325374282884958 0.21898908377683576
Ni 7.1711945625528655 0.7811298494274643 0.7413725673204518 0.1406174885454675 1.1576798217989221 -0.546976229421645
Ni 5.039711613242398 5.828082694775431 2.816525413364535 -1.5482877275987463 1.1143073683505584 -0.5136238792134445
Ni 0.7678863198056345 0.25812272507090156 7.480479947513939 -0.2529302166089708 -0.20813620022273188 0.3478437753594203
Ni 8.904119802226669 5.563672330640954 12.766967817266751 -0.2660880941471675 -0.4171586597051589 -0.09469141543731435
Ni 6.346189308171011 7.939978327547635 10.749132724425404 0.29282422459043117 0.21227053410607957 0.7355771878249268
Ni 3.0185914107805116 3.883084253484336 7.77077078998988 1.3395321486244607 0.4799784232448573 0.6196242919056749
Ni 6.343731689037686 2.379196230644 7.5351348197606045 -0.24063931505675978 0.29342611984048816 0.5238332156462785
Ni 0.201927008468736 5.430390214346754 9.908881947307492 -0.04418775026080777 1.998736773925919 0.46749674583807876
Ni 5.1671580346657064 1.9470326503864699 12.430185632167165 1.3876439165300232 1.0569303730929862 -0.3014711016321518
Ni 4.128266279156203 2.5156723313549203 5.987480005845179 -0.6584788028790273 1.6944587989725914 0.42552425806103494
Ni 3.9464668952524207 3.150382387375841 9.996664052740817 -0.5510036054134834 1.0828884877196447 1.8225570720051256
Ni 6.8038127181018675 3.737780973938738 5.6522874493011175 -0.7298608541664398 0.47419652645575755 0.7485070085127172
P 7.04893951637748 6.120060734206947 2.504167544258503 -2.024865866912803 2.223762036594506 1.2675464023147782
Ni 1.963628482960948 1.6313068305655172 6.05524310059285 0.21842806906704315 0.8576454526132972 1.9976553679362823
P 9.15110592284285 3.889168471638374 0.771567225765997 0.12270564126205319 0.039379273128570896 -0.39354667671317384
Ni 1.2123057797486432 7.358397026723546 8.986561418442182 -0.5030661583022561 -0.5684385130604792 -0.5334691960741458
P 1.7503126649279293 1.422814205138725 8.936311851503419 1.10905203348889 0.02165305949340142 0.05546383739525933
P 5.34233933558499 4.198938937229882 11.749454586847365 0.6656539804712278 -0.19054394106226538 -0.10112997197380647
P 9.204253087171766 9.163891065075768 12.825057833560445 0.08468416771295738 0.7702685685595251 -0.7008755226776833
Ni 5.757999128928467 1.2095075916717484 5.4593579041388445 1.6818035721024263 -1.0439599289752473 -0.8948737408371362
