# total energy = -381161.9783114764 ev
CRYSTAL
PRIMVEC
9.35658714638335 0.00000000000000 0.00000000000000
0.00000000000000 9.35658714638335 0.00000000000000
0.00000000000000 0.00000000000000 13.69431106706431
PRIMCOORD
 96 1
Ni 8.705995447739923 0.20166906949085991 5.907342028143943 -1.2646950489089122 1.382701227812767 1.8711159547504355
Ni 4.804289306949335 1.9514565702575986 6.8954556275011605 -1.946788405883086 1.1068678813533777 -2.313438258205416
Ni 8.709017625344954 7.690235005078234 1.8628917958909825 -0.4992187595317079 -0.565123332644317 1.5343621186565897
Ni 4.471288375175222 7.086033398747428 7.132243710684658 0.35000247357363595 1.2176076085028062 0.1262177681803697
Ni 4.22058798276287 6.3074437236780465 10.41731708363966 -0.8949367328645876 0.4581009064454755 1.0391439956438426
Ni 2.939063042598739 3.9220941438907784 12.452702239399192 0.29987110413488355 -0.6010647837359326 0.0034362793750585983
Ni 6.465167710947399 6.158449432091337 7.630100220349034 1.7242121189756239 -0.2991026013999752 0.7681582070847416
Ni 8.63754265715663 6.506832592913966 11.101717739889226 1.4495123719000456 -0.34764554330568515 0.6127170232628801
Ni 8.940190820662263 7.267925450270012 6.581568331676138 -1.2376475578728168 -0.8902827790323442 0.4117320893729489
Ni 0.27693158410183527 3.1534598774026743 8.813220063585524 2.1106262984090747 -0.13195467066414696 0.8625310628403726
Ni 0.5466520465931533 1.592678241264107 4.342616590579616 0.1241400597157346 0.6778446090001488 0.4642052195710006
Ni 8.417148250077696 4.940493144089986 8.206535219061609 -1.3465278632160034 0.7422988228194765 0.35764224950708084
Ni 0.9075318650296478 5.108247392636715 6.931676847143868 -0.744237434603086 -1.320449420961397 0.35019890585515817
Ni 5.854042230227359 1.9853929113518585 11.151550922317686 -0.048504118247974536 0.12944578819936417 -1.1212676017184753
Ni 7.581605029863358 4.987407071370554 2.83663929154924 -0.029330630643317233 -0.5603390238817962 1.2488202866601847
Ni 0.2956793774987387 4.186922982691972 3.943934289295306 1.505528225144033 -1.144040376638617 -0.38067033497113795
Ni 6.61560291693403 6.001735956219334 10.5364161440628 -0.39015204920932806 -0.2121358083004282 -0.6182983740053997
Ni 8.329720301033097 7.470149365370712 9.039518477069333 0.4656851465506367 0.06938481835172566 -1.2172404549713747
Ni 6.473560569497592 0.9165048319746147 1.8725870913533127 -1.1445294004598932 -0.10654034435610038 -1.4013394117392446
Ni 1.210068685149832 6.034727282025333 12.31250033262811 0.0017012989618228765 0.6930231165127999 0.5950188346521689
Ni 3.349049972311527 0.061781544043396176 7.2323488994724645 2.226612618669423 0.6080229602213206 0.3044273560469983
Ni 2.3057998770071753 2.475191528281088 3.121713913328035 -1.535286430243072 -2.451939728849145 2.307945867632277
Ni 1.4543223891105856 7.235635868489949 9.493868728443084 -0.18120158061541697 -0.8756058937464597 1.147409807331482
Ni 5.473631472061017 4.495082175947955 11.806440903129893 -1.4573038429200063 -1.278143203994018 -0.27535306438886126
P 2.4394493658934198 1.1905134182937516 0.58250555236627 0.7588819239891382 -0.5874865308308655 0.5469235218068387
Ni 5.574037007291924 1.424727504390116 4.292988317406729 -1.504964896441395 -1.365777969694867 -0.20806009556915783
P 3.439378463329995 1.435225595018117 4.889362203042895 -0.216544221780769 -0.623021747622998 -0.10212267490437896
Ni 6.946985159154983 2.9884845351986513 5.1326138165346125 2.0536869049095534 -0.31624260351437145 -0.9390416936036021
P 6.3768415295496 5.965525964481041 13.021673488651912 0.29225549657115474 1.0015544674258428 0.17380631659261034
P 6.682670932639476 1.3366445942546425 6.600110280158767 1.1497875635350392 -1.9937897143332888 -0.46029894253805886
P 0.17891852817001822 -0.049801370032618586 8.927485511158018 -0.18233260889606662 0.9464714104087699 -0.4084652456962191
Ni 8.014244256733356 3.6637213501281947 10.289864462331781 -0.0006636017259278894 0.9129048873072342 2.03397657096482
Ni 6.588506240945891 6.548993373992194 1.4795879810203818 -0.9713496617076883 0.7723295648536118 -0.45694570979510984
Ni 1.5485432203262453 8.387777923445524 7.581088546260268 -1.9762614756415384 -0.7578951345958367 -0.9899973587158627
Ni 6.2520433719771615 3.981209060635618 6.8851156631936705 0.7246631120155842 1.5073873898399588 -0.5483623111358943
Ni 2.817315132392368 4.5758669482136956 2.909219272663738 -0.0776210902185889 0.19173436182594078 -3.4821506836694156
Ni 6.782028530124987 8.414051219776566 7.075891794084602 -0.3819828831349744 1.3471271873628994 -0.9334012074883732
Ni 2.1680709161834906 7.523949740692465 3.5029499224688783 0.41208355917509676 -1.9363774949624069 -1.7985324269557543
Ni 3.3518569484152705 -0.007770645513863475 2.539295377220981 0.7926135119136284 0.917007339511382 -0.07468437618776816
Ni 8.29413720062464 4.907941577873573 5.564204170000511 -1.272144563208422 0.716646926579327 1.2268975184451645
Ni 1.986712190120618 4.736912523872476 10.38254707064259 -0.7432699284834942 1.506546124885586 0.11720193783500459
Ni 7.828347585969431 0.7506939465503778 3.665966931011189 1.3362660762786793 1.2012800749873762 -0.16862348684009024
Ni 4.486258914395188 9.200257156674105 11.159822145236719 2.19320267575041 -1.5253797126523212 -0.9303253967765267
Ni 4.706353910689722 6.256665525961326 3.5373503502789574 -0.9866814069687524 -0.20377252393739748 -1.752843923779704
Ni 3.4787603380655177 8.824318847099727 13.44955208404996 -0.08891054708947914 0.3329136364121492 -0.3758582582944753
Ni 0.9279423239386686 9.326842422365926 2.302287414242691 1.4152562789306529 0.7121050728449155 1.281650188706012
Ni 1.577670275696091 6.754744722396599 5.618433077007435 0.9700666812302067 0.3856742159436325 -0.352230077352574
Ni 7.115712492751011 0.8828136334600818 9.24120813105162 0.7389700155565596 -1.1044045074145497 -0.3113472230952832
Ni 2.212262076643427 1.5660681078006176 9.09174881709039 -0.6489153275603082 -0.8562621991125254 0.15472770269460448
Ni 3.443224020592124 6.336084236523243 12.784392313332859 1.0974936392273293 0.5348259672123563 -0.7979179548456774
Ni 2.621940238984802 6.141579505707838 7.713019230112321 0.4560041718174469 -0.2942496441830481 1.7034676873394212
Ni 1.4400816636775933 7.407432162626068 0.7847715721085261 0.04367790050392478 -0.32888008977272387 0.61881105197576
Ni 8.361841464246934 7.524164942193751 13.317908647419191 0.003536295288032619 -0.18749024183760615 -0.6648016597732614
Ni 5.011509639514699 4.832330998225734 8.88211635639321 -0.7980765919107288 -0.6743093421533806 0.5740818273891855
Ni 4.583820047174302 1.5032573391858488 8.984687005858806 0.03635951246564061 -0.44055209892843483 2.469229369167528
Ni 2.490948020810102 3.842226317152261 8.357131358344853 0.8636703186511384 -0.836092923253502 -0.5019148183066324
P 7.810111597882109 6.746810336610017 4.508495779089045 0.0036905614777097734 -2.5671981698045334 0.36965135815281497
Ni 0.4322883548570299 5.380767345962166 1.9274466323248773 0.7809700141374292 -0.05185863654250423 -0.9335899264604115
P 2.9625387194130486 5.484410260299392 4.604958448552893 0.9084440233224031 1.2680171713036097 3.245279577405837
Ni 1.0786367073855452 9.183770850358117 13.219926468224514 0.143913642798236 0.5844924811995482 -1.3008817832421145
P 0.01460937496128408 4.3343827940086355 12.005747434400101 -0.6908320223987522 -0.5991107453333553 0.12084647656612736
P 5.233541449320816 8.096909702988603 2.594182052294882 -0.27726133715516765 1.9519028442915158 -1.396789330474717
P 7.226335420999544 0.7208716967655048 13.064167364227785 -0.8491860089920342 0.9194324040131068 0.867090657186597
Ni 6.781261289989963 2.9708473686801296 13.139923906633019 0.17838699398475727 -1.1373691352660282 -0.02564958224730421
Ni 6.535557315042275 8.311110049465276 4.067717257176891 0.9272598704773256 0.1789292396414725 1.4676250223403562
Ni 7.029135993124545 8.623376784419737 11.460398760377787 0.3796012702766753 -0.16651621068910033 -1.5818475658320628
Ni 7.810747845798958 4.695958742518858 0.41383810092712336 1.1737512734394882 0.5963864044236568 -0.00036072577352841103
Ni 6.514935397266772 3.063468223516655 8.765974913124715 -0.38183658736509724 -0.9292650738328125 1.3121750967677468
Ni 4.590566146410299 4.512260869702866 0.6079741822142368 -0.013290546461319048 0.12435731793286324 0.12447327468543724
Ni 5.648141176430755 6.166327678355844 5.418687721806339 2.303953458643432 -0.8088001489758199 1.0531991881853282
Ni 2.005911906670224 3.160795441620457 0.9967487935110337 -0.48476144645579744 1.8814628452023983 -0.8869331458338209
Ni 4.025868050446179 7.106168773998283 1.3047264689789744 -0.06833555115160489 0.1079325967179367 -0.7811728741768547
Ni 1.9186523761918486 9.045480494313683 5.069387615456489 0.8443338231060555 1.8689243464157554 1.021667436125634
Ni -0.1320092791829568 8.225001379189434 4.3160363981945675 1.084152956254365 -0.820027128039891 -2.1593805849946426
Ni 4.127387019531571 4.391813525091229 6.703461268981204 -1.4843608470377985 1.2926578526704253 -1.5466003125939947
Ni 2.4099480470430747 8.19844738524802 11.343462942871934 0.33243386856225327 -0.3831514495217789 0.48155450948272555
Ni 1.0460009318860197 2.6484193802301164 11.058183411837565 -0.1099038615116946 0.14865475702764722 -0.8475731559789595
Ni 4.868222866005601 3.8767427666412946 4.153882066974806 -0.060525825299199 -0.10616881994929457 0.12523637810370689
Ni 8.945365013280162 2.701751926201245 1.9205171439834356 -0.19903758035557334 0.5457989212840922 0.7652780573234691
Ni 0.15250769000989492 8.920813328959419 10.996914608762452 0.33018723861992166 -0.9997240990853234 0.2231334449625125
Ni 1.2641871844300083 1.3206541870503166 6.851564813484325 0.2619432187408585 1.1785461237249701 0.005457937790777696
Ni 4.5953380057866635 8.521605187485006 5.302149559248516 -1.0794216122169666 0.7619975867999844 -0.5920795495181868
Ni 8.303896120878655 1.447407871308364 11.404320991777197 -0.9193200468049587 0.6853121210217875 -1.0743058882569563
Ni 5.958068764632095 8.404657206416037 13.510779718142217 -1.1206657064684185 -0.6976467313277405 1.0152381355605224
Ni 4.748262063918613 1.5413947878487115 13.155124617893492 -0.17303807096801813 0.10989923352600428 1.1004547787381822
Ni 8.761002822786285 0.5944576566160101 0.8661093186667038 -2.171737821008415 -0.32745904105548124 -0.054483989980493266
Ni 4.1607432522310575 2.4067200245237697 2.0364677128768753 2.3280043289450485 -0.08156850490211114 -1.1204597611051992
Ni 2.933112253258803 1.3278026195278503 11.459632455901465 -0.6628018557344133 1.2121663828825768 0.5298537108087455
P 2.571199467616131 5.65797494938087 0.9025401258584905 -1.0424072397761468 -2.837112836786643 0.1660148455726496
Ni 0.26520497359909584 2.152651260786926 13.129790722898505 0.4153321480193815 1.3905927147457018 1.2803111581796143
P 6.8132608175726395 2.850755574374966 2.9787592986578812 -0.1318834511065793 -0.09097617136925623 -0.7764114482324693
Ni 6.143974791983033 7.891055432127062 9.271952004657221 -2.3548137358284094 0.758319623727765 0.6329680602024326
P 0.6469462384386125 3.2719516953287027 5.965598010201037 -0.7748219922581624 -1.0673785650095038 -0.5818357603029914
P 3.8155319744056597 7.8267101832422465 9.054404807006186 -0.791036911455128 1.561017516460589 -0.06358389539923243
P 3.7273648549870737 3.478610632673318 10.354103981783354 0.7413683405854071 -0.8951838158783872 -0.11080066229435112
Ni 8.378720747217447 2.314295658014506 7.313447117403123 -0.32273541032756675 0.18426042204639878 -1.393094398121633
