# total energy = -381176.00923842605 ev
CRYSTAL
PRIMVEC
9.10461408710905 0.00000000000000 0.00000000000000

0.00000000000000 9.10461408710905 0.00000000000000

0.00000000000000 0.00000000000000 13.32552302497963

PRIMCOORD
 96 1
Ni 5.456440689044285 4.924385256524333 10.363285906711203 0.5885918480799024 -0.9622086186383687 -0.35267642086137324
Ni 3.0816569074214253 5.247307705626248 7.599372743952502 -2.5140182433474445 0.360145989765541 -1.4865100321703173
Ni 5.9377196893255615 8.545681739921838 13.410273354508877 0.5959950825225091 1.219724911956125 -0.43587551938837193
Ni 6.582899950707905 3.1884904480146887 7.484746564242673 -0.040432139873117466 -0.3054658246138417 0.23547576857794927
Ni 4.059292148756301 5.680851214742492 12.143842488701859 -1.0268003864768251 -1.4423965867908708 -0.3902224974359473
Ni 0.6852442047969158 4.708442021839569 11.827014668206823 2.2596626071458568 0.6715472060272112 -0.07715057834007358
Ni 5.589185961061482 7.749783698500217 2.6751386240204513 -0.6680422781977463 -0.5548661736926831 -0.06812754890585686
Ni 8.217760857737794 7.395878247980297 0.5783587679038928 -0.34183613571275967 -0.4285890130292877 -0.3873973692823264
Ni 2.9269968295232016 5.834409634347569 5.028039465911259 2.206143552181794 0.6446097582064189 -0.2938074144393069
Ni 7.643714945482362 5.596906673727502 11.366604353658786 -0.3776899121865753 0.44150597820127185 -0.06860731675575281
Ni 7.910389089335837 1.1749413311760724 6.3349804012185045 -1.0275172100381917 -0.3206042229171769 -0.39961602283570535
Ni 9.434929388613165 3.812684574143285 7.323174263401002 -0.10078338726766514 0.8514465228914369 0.008765662007771999
Ni 5.754671424997322 3.0358242805809206 2.7637929818539937 -1.736662686034151 2.684995575131692 1.538127756346609
Ni 1.9766299070972082 7.762038508934727 8.677646746519837 0.0635296451225293 -2.7352259320421535 1.3160813738006882
Ni 6.749987826706504 5.449594019321588 2.082965425305057 0.14480967224994418 -0.31349178024211166 -0.47618656030259277
Ni 1.2433442961050978 1.6117260828738065 5.86696136075656 -0.7710730667386915 0.23438176418282217 1.7821100197336728
Ni 7.601169084293311 4.93249746759205 8.896691923192 -0.6458819400506232 0.9369027928837285 -0.6348938164702356
Ni 6.3402346739538356 1.7970596053142758 12.764025121905162 -0.324791264415331 -0.7052047461806565 -0.38528726491785903
Ni 8.448571927073043 1.203675492937819 11.041741711314975 -2.6248744414700793 -0.853924037897652 0.2186941782442363
Ni 6.616049850256232 9.082589931700031 4.738835954732231 -1.139188190752638 -0.2869268852693897 0.21041239785141827
Ni 2.0274518624058495 6.8200296221542605 11.335782503908456 0.5671416486259264 -0.6575274947093515 -1.3507830389479318
Ni 2.8244060390506522 2.4066317213701955 2.292256829006573 0.5878706536431617 0.7575925157537534 -1.509641475981458
Ni 7.095134638565207 1.0762837339484772 8.726964619596844 1.2465821413582854 -1.831691944426858 -0.9763018635066412
Ni 3.7899776668448695 7.368009024547881 7.149009370945684 0.6007871045945137 0.0612264509106494 -0.2689726147838142
P 8.876297587847793 2.789417007475749 12.19967653401362 -0.1662192482739718 1.1040301547942664 2.298678326287422
Ni 6.793098173963117 7.825443040781623 7.684789501050151 -0.6414683843639598 -0.3381226914169145 -0.637460034535515
P 5.616490698426335 5.788139986035403 8.162575971403731 -0.3872994102518814 -0.006063175474944397 -0.4752758755628654
Ni 0.9791739210996835 8.38872729929739 1.8551789087382657 -0.24214700995053778 0.8126609174828069 -0.551247088882857
P 4.537612149489868 2.3333851017969214 0.673589388424542 -0.7425428205094825 0.19018270106810473 0.3169583986344735
P 4.0679324274356095 7.5281956031398245 1.0230299362423194 0.5835632845170595 -0.5588652675497471 -2.3165634340979584
P 2.4671500905813275 9.051179013424358 11.096749057676174 -0.5098667261638573 -0.5340109275102286 -1.2901805947745264
Ni 1.3520260733389298 2.9530269209290427 3.991246995157198 -1.747310138445668 0.5664502789858568 -0.6895343866332513
Ni 7.8891207110483075 1.9994460697635386 3.6239559411448443 -0.3718090279257661 -1.2674445866295914 -0.08655978746911545
Ni 1.149311842785921 7.152147731389054 3.7627275571639736 -1.962958844995361 -0.9317215057931051 2.0047984067389666
Ni 7.795197513097047 6.778721988468251 3.8901866902968636 -0.9203536302757955 -0.8208108002834509 -1.4003870751283045
Ni 4.321495927139238 5.079027125194572 1.2406730023595667 -1.8657932569859415 -0.87552618954846 0.2514721440062056
Ni 5.013209870639543 4.679462035500014 6.345854041710283 0.24221745817715704 -0.02137872278609221 -0.727346058164386
Ni 1.87268252913971 3.0374175880296863 8.920784552740141 -0.6063797681909427 -0.857047156907666 -0.345835743790456
Ni 3.54962496204501 1.8074934929501953 9.924649276527303 1.5146525560428044 -2.111465249370602 -1.074761487737136
Ni 5.93070913655099 0.5501126134521679 10.828066435975856 0.4470783300827268 -1.366297332533447 0.2234908283019312
Ni 7.5321014825428 8.85112333015729 2.680655109638779 2.4831768324865555 -0.08561670682955576 -1.5477015160779732
Ni 8.321644503397343 4.911010578568692 0.1669649637096948 -0.9189081560785207 -0.2222996362073075 1.5189308717031842
Ni 3.773607570885548 3.3490685250083296 4.1927157145159715 0.3625425150221756 0.8965243890666817 0.32005169284781654
Ni 5.881626162515003 1.0651852094910723 1.9961902597996601 -1.0121070461307087 -1.5759170592802407 -1.04000685786477
Ni -0.18533261197907003 -0.06546399553210172 4.609605063716313 1.4071493335528023 2.5543177142974396 -2.1566919824188857
Ni 7.352003113148276 5.646071589289427 6.184508445757038 -1.0406174948655758 -1.8889632673445016 0.5196729136210018
Ni 4.0335716142262195 3.662740686293408 8.645346307457052 2.859097311477534 -0.9117880000939717 0.5039742719388224
Ni 4.547017215744584 8.652324083621249 9.117988670904616 -0.11673116884617316 -0.0413965606689158 -0.5019035054527228
Ni 4.763069705797263 5.462622721945498 3.3368046099598274 0.4391963562314888 -0.11863044275141504 2.194488484441369
Ni 1.3886448308185706 1.7486867911697377 0.08232300926284535 0.23166462236197521 -0.24933889971328668 1.396701398746601
Ni 6.2210370675581474 7.029936497761699 9.948222032616448 -0.7431704267911523 1.3658227068898736 0.3411234259164512
Ni 8.17128180330379 3.3446892056777218 5.421555450068903 -0.2102876993480959 0.5848902308585991 0.6632101469164255
Ni 3.7164943273077786 6.450700955530286 9.612565870383994 0.30424994992886956 -0.9654325248923051 -0.03741675008556137
Ni 8.5533478249039 7.417956936913199 5.806157106666049 0.4126574294006957 -0.26123745092308553 3.189348056345539
Ni 5.814461425089018 2.3036949555659145 5.282810237430353 1.1188559069531891 0.923803536497609 -0.1133725367865854
Ni 1.6875037851371208 8.187287714703395 6.140734372140337 0.9557973157953862 -0.7069291850709309 -0.9602903185697335
P 0.012784698968898951 1.8177634975342416 7.9194117618028494 0.49449949967916773 0.15269498853529184 1.0642518464550639
Ni 3.912543980417949 1.05008065487677 12.144254927715739 0.3804314794874545 -0.061203310982197806 2.1803291622218515
P 0.41510029255072756 1.294903725147168 2.430801740137277 0.5199022560229885 0.5236347264822272 -0.7028267328667831
Ni 4.212122199241942 1.0066607507443963 4.233812121157344 1.9243773851777373 0.10049953747865918 -1.3034266611511551
P 3.5201988496197987 8.159627897392815 4.721099256212567 0.0029449415609368638 -1.350267532764094 1.069460644349513
P 0.36584068900327643 6.041239150425391 2.0164052342482046 -0.6476210342289169 -0.3856680452960455 -0.12263879257985974
P 0.2912921096290102 6.359217794129134 7.567044991047738 -0.08654050419540579 -0.1593603163706094 -0.08236580399242589
Ni 5.745676066372289 6.323964728748436 0.24080975642230604 2.2292757673238834 1.0008047337440118 -1.6392857533448735
Ni 3.467483134600624 0.2807671758531612 1.9124660504432998 0.39202509786232487 -0.09550285559501617 -0.41358148387686194
Ni 0.8971522745600048 0.6755842093503971 9.637817517293437 1.1205541205912186 -0.11169206376036893 0.49539244380708225
Ni 4.37593241420308 7.848086215782088 11.555600662308619 -0.24989940020244705 0.4882519761075591 -0.022119457606858677
Ni 3.6462158118962056 2.0892448775759944 6.488384042385702 -0.20962538317374865 2.055009480375719 0.15739805043791602
Ni 2.8115958471625726 3.8832271233606535 13.264584963239306 -0.6085510648106487 -1.087654027429088 -0.05891965715434369
Ni 1.1313848578338044 5.212864950890921 9.25982581045517 0.6042372679266431 1.9627816959875486 0.3917330205432028
Ni 0.4583271788664507 8.325231721310564 11.906994149827884 -1.9290781330875164 0.27846924142033974 -0.3269545906152369
Ni 6.4048228056198155 2.655788587901237 10.060383593318384 -0.38734466166752 2.288813260567884 0.8111889609229707
Ni 3.0533324532893613 7.161898772975501 2.7897912071108593 1.5468599940132843 -0.4209494942061589 0.08723881581401104
Ni 0.7528232021595798 3.634680265967139 1.5846180051712 -0.2537187739485372 -1.350791523588364 -1.4376786124899112
Ni 0.0837223884335616 8.675695627741149 7.8673087873054 -1.838931913818723 0.13325770574628662 -1.6957088693296085
Ni 8.227302493202405 0.9581604720039572 0.3248708364964053 0.9573798297911577 -1.5081615490018219 0.49428815499930995
Ni 4.824798988669457 9.327403897356437 6.377355095664488 1.3422004394852434 -1.5556032874235532 0.29969138402390966
Ni 1.8667554254303 6.319030027964257 0.28940654407107047 -0.23950494434200045 -1.3764776155005585 1.3068338870604914
Ni 8.38437529380876 4.268698270594127 3.230373493305053 1.0546683165316868 1.2942339389082935 0.1893182961852804
Ni 2.0831903092706834 0.5716031443211246 3.9584667429369844 -1.8873789535765173 -0.6775358195104783 -1.0120463680961023
Ni 4.548100664809745 3.1209068983450288 11.605318227939916 -1.214140218779496 0.6417324366586238 -1.2751080167121203
Ni 0.8605999807625124 5.3580835440784575 5.489382092932175 -1.9825545077391018 -0.34618104294501667 0.44109845835020806
Ni 1.7566169099575963 2.27348584633731 11.218851035935614 -0.35696090716934004 0.8977063251899249 0.6812986289870202
Ni 8.891638862425912 3.5316615586369218 10.088273757362984 -0.8732942148941477 -2.253564978888551 -0.4383862016253676
Ni 5.400274325321783 7.016498087508107 5.221845742133566 -0.07716369096619613 0.05521829704335651 0.016847667684958084
Ni 2.2604571437133996 8.557080716641009 13.23396341499682 1.9724511007565126 0.3919276530525121 0.3130883741561059
Ni 8.532088551230364 7.173361481992624 9.56944459759059 1.0288109891489507 0.18054492086802454 0.4876225700536763
Ni 2.378079651888308 0.6227574180405084 7.841923302570261 1.2725148020636472 1.3107789877511684 -0.6109936128138703
P 6.5516347062561175 4.417576918606829 4.3230664730530215 -1.0441707594344727 0.7141843239714475 1.1987285122101161
Ni 7.4431585084456815 2.8441357375733727 1.3749005055348147 1.1903546863241241 0.7923381467650548 -0.899889963104805
P 2.849216112181438 4.299262459768457 10.681832678328105 -0.021838178921014004 0.4819987961089957 -0.07995488055808811
Ni 5.838952836730051 3.9350687954365045 13.13270280862864 1.526540822839958 2.4645620455988455 1.2824289758535656
P 2.3477157642218227 3.6524615770953686 5.7523488379677215 -0.5916028669920844 1.3644834192531599 1.4330583401090802
P 5.018845626701179 1.3931425101310875 8.161110128550867 -0.07498982324332891 1.6918568425733702 0.4964910761878998
P 7.4481387322998245 7.848086215782088 11.595776592475305 -0.37697694527995074 0.5598561707081068 0.8318472606032706
Ni 2.2938619724535294 4.841769989152314 2.600848615683585 0.714407495725847 1.1666388307644229 0.8542778216926449
