# total energy = -381164.5434576117 ev
CRYSTAL
PRIMVEC
9.26333418185765 0.00000000000000 0.00000000000000

0.00000000000000 9.26333418185765 0.00000000000000

0.00000000000000 0.00000000000000 13.55782592731593

PRIMCOORD
 96 1
Ni 2.6267851939592717 4.608332834015307 10.803242331888505 2.8184368576436944 1.3698999622830408 -0.45123194723978416
Ni 6.067280203580996 4.527862248547539 2.974790138687386 -0.5640529823982737 -1.8917413443102709 -0.8921702258630442
Ni 6.991584968005932 6.393794212625305 1.438973768047835 -0.21415232450982474 0.19341843439658302 -0.6583584752510792
Ni 7.655673407304231 0.8333416001429225 5.45957397511591 0.95749655787468 0.43561069576275946 -0.2322976279602838
Ni 5.537473058969098 6.025511829012771 5.260924549056205 1.1380486778315562 -0.6545537567930082 0.5061108586658509
Ni 6.493625166877192 0.24921982092394368 7.79204914188637 2.157961850270245 2.1322988982865017 -0.33727628425621914
Ni 7.189218206287829 3.424432387864949 7.323761653336236 0.11215717632224555 -0.25526015029372817 0.8035219312960161
Ni 4.528538471954831 7.304787565594365 13.166180899990762 -0.004885610227075457 -0.2807600943370455 0.698207746037533
Ni 8.177115761001268 7.943022038731673 6.375161015587384 4.055782053784744 0.17328463976118544 1.9813908264483038
Ni 7.854779515747217 7.584975639571987 4.024477838825507 0.42906569555539015 0.960817651828113 -0.1764075016608833
Ni 1.2675205652959258 3.8215793213010767 1.4477591143420252 -0.9820811891925796 0.052486499934490255 -0.1545117300290565
Ni 3.805720492899923 0.49471114977343394 3.5209535527548423 -0.6662180805048139 -0.20748802511577172 -0.16276831361089386
Ni 0.7476659471058735 4.895486935421472 7.5077407367914395 -1.3836602492919268 -0.029440159637988007 -1.6309484371237717
Ni 1.0745375208559556 1.2329220115118673 10.469163884016872 -1.4385741277209871 0.29368580125977806 -1.0768420244152488
Ni 8.37418393588803 1.830833190238999 8.856663778990388 -0.017837028181420893 0.08760468379386202 0.5077854181547965
Ni 8.891439262460464 0.9637480420721969 0.8310794938955149 -0.045978523612643395 -0.7969792450814919 0.122943211194156
Ni 4.7668933280238015 1.7912787525795797 11.356238381369918 -0.03816854064992137 -1.7960047754378938 0.6889492035537426
Ni 6.201098331550075 2.782066467609117 9.702685031186757 0.41775669830047407 1.0507805514415065 -0.9438987645855873
Ni 0.5043672494961923 6.455951186090106 5.281383549293815 -2.6953622630779965 1.4716022618205495 -0.5263482687586484
Ni 5.254070607973253 1.430583039796804 5.370363433692249 0.4499952466192056 0.2649475527848211 -0.454862602013836
Ni 4.914652774184315 2.4278365622001763 7.37995859748252 0.9122430853535193 -0.4529209049064329 -0.39774168863112785
Ni 2.8733566275935605 0.9702138494460315 5.819669423833035 -0.5724283509461625 -0.835307194127413 -0.3130750044196673
Ni 3.6709667681618514 7.433835076375013 5.77991860348547 -1.1136599645745466 0.350974350568602 1.5853740909280825
Ni 3.0751768930000614 8.747477783382005 1.370167573189139 -0.5271234563617762 -1.3637395991085999 0.7492474862231677
P 5.269355109644926 7.770825916565176 2.2698920799257216 -1.0705975861674337 -0.7257758854637888 -0.6152261628379792
Ni 7.879290298427972 5.468109211382746 3.547513384993036 2.203933946124985 -0.8352035786700132 1.1293395800933326
P 0.7698182848620174 0.8858702638880047 4.519392781954563 0.07969571335943049 0.21181853417032553 2.2530666990958936
Ni 1.9486905931291125 2.815581211274639 4.040760927939728 1.2689846774232016 1.1671898181718867 1.1721134807257492
P 4.901832319448803 2.225238176708572 3.2746220394801275 0.2879203595309106 2.060088180450207 0.002587044000885867
P 1.9617241045545932 6.8763583520702145 10.772723350550633 0.8553214324658107 0.4930774225206605 -0.5489678059303772
P 7.995295034448792 4.953086348387811 5.984560480533905 0.5494773985769441 0.12220633302813147 -1.0451899447276065
Ni 3.0773723032401743 9.255052925562378 10.81770795480395 0.0027616219055371792 -1.1110698352498674 0.49032737057934905
Ni 3.448600427174884 3.971858394403829 2.227794856988197 -0.6349750633301322 -2.6751168825653995 1.8043711451247184
Ni 5.419912082778072 7.551535002581237 8.018152311948702 0.27717674786116137 -2.233012608658496 0.3571375419565205
Ni 2.6468032594819895 5.767537230797981 8.435109812218187 -2.224166471121776 -1.7262312062881822 -2.1891393043143137
Ni 5.281517867641838 5.023256106062307 7.859485289595223 1.2205623202557558 0.08391360809552 -0.7651867831612436
Ni 2.8161555380041197 3.299460744196747 6.406262660655651 0.0017306095378615358 -1.6665327619862849 1.6057559970185442
Ni 2.332674328458909 6.105621144441027 1.5537538912680522 -0.7771120738439197 0.022698470038780266 0.577755933806663
Ni 4.561701208915187 5.583697097357975 1.6178144799410525 2.6427682910313646 3.7814540882262877 -1.2392786657183368
Ni 2.5858412561478827 2.3604921215013532 12.377196776365901 -0.047009021759686784 1.405430808199799 1.5826461504739582
Ni 1.1731827683114946 8.213270554955534 6.766141347349068 1.4241494676552247 -0.10413456312808518 0.08017136744426838
Ni 7.60757817537737 3.96807895399047 0.9633237813591284 0.9412898662078305 0.42582867667533114 -0.269264177882304
Ni 7.396457522287014 6.148871652504687 7.660429203157708 0.6061594246500205 -0.8236171593839944 -0.43519674815379245
Ni 3.269253010892915 7.872074160972073 8.530014525264622 -1.7034216645928342 1.9099372984930074 0.21732660847274832
Ni 1.3700749398456744 0.44611569779186216 12.594881428174164 -0.290376534380887 -1.1596269182229642 1.8511138005968961
Ni 4.519201030933591 4.1469909935581555 4.575603621102366 -1.6704706635881101 -1.899671140680309 0.32679929598429525
Ni 1.9441700859680362 4.964822993004787 5.312119292655396 1.4549394564528877 0.14366476001222356 -2.121498208126572
Ni 0.37670553353377656 8.937857830870618 8.9117759866847 -0.08012431625641685 0.05127319635267945 -0.9328399356682644
Ni 8.105871456542582 4.496135328410885 9.494694458772074 1.8001465655204094 -0.705143811035734 -1.4728515608466182
Ni 6.315204084029869 5.747630325287421 9.857990389505902 0.8897240783153967 -0.48401222699459867 -1.238233512283274
Ni 3.75238221373296 6.686923164684942 3.711156670557438 0.5932841113492492 -0.617037247904789 -2.1316772055421027
Ni 1.5851325100332783 4.806364395674102 12.77783042885004 -1.6513046321826206 -0.2848170380152385 1.4280367185247729
Ni 0.1269011962125707 6.012802534289418 11.522200279521241 -1.341838428160134 -1.8962783129486762 0.37645089757315164
Ni 6.271638622598429 8.065761218822376 5.838257230532657 -3.5655940369967367 0.39179601257065433 -1.0075487373360648
Ni 4.169371209339222 6.0528386653348525 9.768563086058535 0.9427983324325568 0.9205991706276985 2.6286722179496147
Ni 6.796619570015817 2.0407773998673524 2.2825004043046992 0.6243885460635376 0.32623313906818013 0.2717108396505836
P 0.8438888326298111 5.410204108382974 3.1642744217446954 0.36606492635313725 -0.23721280587371402 -0.37853014869968354
Ni 6.9242683173101485 2.2370674546690115 12.80512299083504 -0.6225401800008891 0.51459447065683 0.44312962984762394
P 4.556856485051983 9.114222453493023 6.785190468099145 -0.9708038165065475 1.3853404652078272 0.5628355650514049
Ni 0.7184299375749854 8.037156042360483 1.8466169856319457 -0.21605416951822792 0.27370370171089636 0.03341045713964568
P 8.00518827553082 7.769371573072782 13.119569654226202 0.5285331922251091 -0.2297949161430881 0.4484075904171116
P 2.7792874673051764 2.395998482051365 10.375492120771952 2.0423290566945727 0.17872046606477607 -2.3869885207887407
P 5.61733226437 5.108543625390238 13.16744256612875 1.6258021170361416 0.5599492446425453 0.3648202553127588
Ni 2.083601794551074 8.38197440007341 3.98215088519619 -1.6551468887468463 -0.26246823800639313 0.48075772461304295
Ni 4.970362466943974 4.020240789695432 11.361729685970504 0.5148459245460036 1.3443406257566974 -0.42039644991616626
Ni 2.040629186517809 7.321739467448403 13.061622866221873 -0.3199825301727779 0.23894470096315623 -1.0451477786357612
Ni -0.00684004608143206 8.099507545846558 11.137821926148284 0.1099776521724235 1.6711216669085476 -0.026313441083548234
Ni 6.465835163837788 6.576152212569876 11.815564520273279 1.1604129044593692 0.2829812703580804 2.371509451316535
Ni 7.157491286151177 8.918469672083459 1.6771572524313965 -2.1337615988749574 -2.1014649436247805 -2.6580301022864417
Ni 1.3254534582987374 1.3936871790948218 2.540018320136209 -0.5490876193376931 -2.321200418649338 -1.7198322447403733
Ni 4.523841961441171 0.6211084205975568 8.966699222358345 1.3325140654354148 0.3571894782403784 1.0105957516925046
Ni 4.928631145713135 0.9789213837317114 1.3490564342135383 0.8318917406879608 -1.45515979999381 -0.5350236850454592
Ni 7.100419883242585 3.1748040538963256 4.994296143894943 -0.5837358055391817 0.4582279189416431 -1.2482232765061343
Ni 0.7373901303153364 3.7510112402496825 10.86749281891561 -3.4512658211651015 -2.680840672423054 -0.4900810588964979
Ni 3.9478107784403975 3.648002962316957 8.933021444008325 -1.8442713237537658 -0.6788234279736503 1.8297744156891715
Ni 8.868707039974232 3.0378734455868344 3.0683257309174135 -0.27723665456481933 0.762398678893145 0.2851227421811154
Ni 6.0771086013226 9.015716156052681 3.803865047030326 -0.15458217825567572 0.9152841861726883 -0.8026145889903984
Ni 8.241245824681867 0.8542758094325058 11.739694106641966 0.9176699127960455 -0.8508217448232445 -1.4663705811079648
Ni 5.325703972474491 8.061500085023 10.399395228719579 -0.7316403146643657 0.4162916837191734 -0.22791235440839458
Ni 0.16588686514311646 6.060388282827224 0.5061745260271882 -1.6747497505794382 0.4387235303601283 0.2659058029330324
Ni 5.3876108359119375 3.169264579957138 0.5787796143013707 -1.0244933356102033 0.453057173373981 0.8288424123386758
Ni 0.2501091010212046 3.192469232495041 5.614675540079434 -0.7100083382168869 0.5747240889588747 0.15648428037439505
Ni 2.5524098824914794 1.1414558481748411 8.244879830745987 -1.8666268086308304 1.193971714251421 0.18686649221067816
Ni 6.281504073677419 8.89923898998019 12.391785601628154 -0.41114767762438875 1.2271299461709446 0.7032553357637695
Ni 0.532664883257783 1.2849263705329395 6.927371534316215 -0.20849255512088608 -0.2565927530622226 -0.29252006308645107
Ni 7.491934709396061 7.871055194193962 9.238777247115634 0.5974171596810163 0.5742024121274498 0.9412273884010113
Ni 2.86247220973646 1.9628079146731299 1.1529525724322427 1.0242889329088811 0.6671974136989478 -1.191886035366986
Ni 7.527515176620844 4.321586319320386 11.657127228611591 -0.3490002575613667 -0.42115955333443594 1.183575972839394
P 6.435544060524837 0.7457929009010177 10.224024561872548 1.0493908701828314 -0.878627454181603 0.33731176547984487
Ni 3.606234587748732 4.505037392717841 13.269030774906163 -0.02452549594519002 -0.40156131948753426 0.6781222881415676
P 3.6982565511465464 5.264028692395707 6.54531179353018 0.31029281368883976 0.523046458078925 -1.1868644137826785
Ni 0.3980501085349084 6.551243106512224 9.102046726828025 0.047830232109401495 0.7312338232545664 0.4797827622942834
P 3.7336424883500547 0.09115398896955024 12.988207236192373 -0.03580801083754478 0.76383618267062 -0.6777402222118005
P 9.220222788419658 2.37400732631285 13.007242461940931 0.6128370937805123 2.553074071698326 -1.606465364380743
P 0.9312059485130543 3.1445407405864145 8.563001258872395 -0.871261500734835 -1.8292743361243013 0.24732135506262565
Ni 8.526917792592599 0.4516616560650926 3.0281135965193955 0.8191421543317764 0.7025716794331835 3.14380430627747
