# total energy = -340862.61417661875 ev
CRYSTAL
PRIMVEC
9.34831941219455 0.00000000000000 0.00000000000000
0.00000000000000 9.34831941219455 0.00000000000000
0.00000000000000 0.00000000000000 13.68221040235720
PRIMCOORD
 96 1
Ni 4.228413020283419 2.8072628468003256 7.365666858840639 -0.43775088203421386 -0.9511575030305297 1.5328323122756247
Ni 3.991760321057488 2.364750811621235 10.394497957090046 1.3100269400764923 0.34869583894707046 -0.5159021337246599
Ni 0.29573875039944486 -0.16771819383023628 10.518992327676713 0.2520257025168305 0.9284487485791043 -0.0032933260392911026
Ni 0.06570840045779767 2.739020117021566 6.351623831428267 -1.0559924346597491 0.20132869038259518 -0.2322048111361614
Ni 1.4871306100280914 2.0583689998720476 9.104772063177863 -0.4710147862936662 -0.527713267426975 -0.7862875696956007
Ni 2.2278166327446227 1.6511655661141045 1.2978953900154209 -1.516990974367994 -0.2406516563519339 -0.6795443653000749
Ni 2.112701430758918 8.702294204749121 8.664847642738879 0.621180323538885 0.4815537381517771 -0.5760716041257047
Ni 5.621284528344493 4.485342223740875 6.88148095173268 0.7109807294324851 2.40526263650758 -0.8312124552327491
Ni 2.1020163019730105 6.448349019986467 9.290110903769742 -0.649478656262946 0.286189749993049 -0.2081997064708156
Ni 5.867154670250129 6.973593679623369 12.158258418347614 0.20909779280505278 1.6805750990119637 1.821005925467922
Ni 3.47301274322829 5.0192527752277645 6.146486185713314 -0.327130711181785 -1.7484306252033563 -1.294288703405629
Ni 7.4447770096286865 8.164906078539259 10.32901485112371 0.4264485696475172 0.8728689544312709 1.3337245408037481
Ni 2.8738415757707814 2.181907037409898 12.516595383424391 -0.9103242710642515 0.24480964438436548 0.150483839816586
Ni 6.264841515115639 0.4879196257755795 8.23470623828804 2.08964686794393 1.1043183754586465 1.3617295106571063
Ni 5.824554379893718 5.344864079463925 4.274295505492615 -0.10225457249655293 -0.8204145932862967 -0.05387900940664268
Ni 0.39564423713171926 7.334401405450904 2.0773152382888442 -1.9103998399517226 -0.007770387974038232 0.12896087814314564
Ni 8.341290164219483 1.2659961205874672 4.253251504259058 0.9434318522514978 -0.39150727768564186 -2.2195050610903646
Ni 6.289923055389119 1.1115992815428108 0.7830105376580836 -0.14207684669981338 0.6956173596025375 -0.6762448686131967
Ni 6.104601976603623 5.987271222979894 0.9184209405136085 -0.3153820552862891 1.3555606628422332 -0.04342156151874458
Ni 3.99742540246104 0.122677992176255 1.1221385765500127 1.618433592486213 1.9146563012352316 -1.3148377312015742
Ni 0.7236963874973642 0.21239568070128392 6.017449466852742 0.22192682624892102 0.06048828719304422 -1.4903857130756397
Ni 9.331501521628432 3.3919908611745213 3.081822045338571 -0.5389764990456202 -0.025859127154949015 -0.9830214416186618
Ni 9.160539461053919 5.15638326880648 12.56523562278218 -0.8452997865637506 -2.604095299941199 0.47412659244977057
Ni 2.5139593335388764 0.5404225906052299 10.768419505018079 1.0497785925395533 0.17618715811996108 -2.0145038069521886
P 7.510710704577945 4.074175102664275 5.394730818293903 0.38405544939328695 0.23388451283142944 -0.08475075928483468
P 0.0701376340700136 7.404485754101775 9.331691292507132 -0.29634072238412196 -0.5313552350549364 -0.34828420533094856
P 7.889803742658528 1.1856473175123388 6.212612456037018 -0.614706028668451 0.7075861019286395 3.8636679400218816
P 1.4038090414639703 -0.41154011901059634 1.1000045613038252 -1.1532408121909623 1.1332821096808483 -1.2983639019162672
P 7.5292203764905405 2.1421953776701486 2.3804036372022694 -1.2054511756459303 -0.6984764263178873 0.3507612061165314
P 8.608493170420344 1.6079202417364957 9.6272542945066 -0.42336170319207733 0.7464580964034886 0.6730705846502731
P 1.231229721676891 4.010634577416846 7.745403061278588 0.6540719320605832 -0.7453039281943874 0.4811539316101972
P 5.342676572783346 4.016823164692673 9.111955311611014 -1.1235846798874263 0.4198377491992189 -0.8947539274298203
Ni 8.824364556180772 1.9309888031644618 0.5951485857282212 -1.420489245194818 -0.011060628689535789 1.4620513849073207
Ni 7.221810249635098 7.426856281822402 8.222747868434205 0.247703935213025 -0.1633447549396542 -0.6199179118866937
Ni 7.2437507546749265 8.63145264224728 5.703771292008717 0.4720748521270644 -0.14562265506954275 -0.11337716477227572
Ni 4.21899926290161 1.9506483183322332 2.6761853898697945 0.3248704543926985 -0.4073828112653178 0.6300354599366698
Ni 0.8799965443205078 3.534627514731277 10.99412064836239 1.0409455676289556 -0.5966987934577529 0.6355787583524021
Ni 6.956869536667998 3.175764239286479 10.220857603079693 -1.0630706816627693 -0.576879958959613 -0.4901167972304398
Ni 4.497074364271333 0.12492252360363584 12.26296800628993 -0.08188449348063316 -0.11769430409039086 1.110483366618778
Ni 4.077147868153268 6.163225285979321 8.081739692072992 0.7718955626399868 0.3258240765552195 0.1854305310951
Ni 2.352214715644068 2.548996833704738 5.949339483205882 0.4425421327752701 -0.6579985208084991 -0.8936799776393511
Ni 5.3608777501640645 7.496398427962702 4.813387830283116 0.38835613365116994 0.18326591934361341 1.1086311439013876
Ni 8.167056191943248 8.940171533783412 1.5144978143332037 -0.35767721651007434 0.8158516565059627 -0.2972933161053783
Ni 8.567276431297802 4.617667681277633 9.8573893456227 0.021801926366439874 0.8066144541784108 3.086050901517085
Ni 6.018681575316419 9.720569216239692 3.2592662304101525 0.5545154752214837 -0.03663076384915627 -0.024402340103764426
Ni 8.783054333866751 5.223971616244896 7.91469364238948 -0.40654745984821594 0.3161050494952427 -2.252723713934178
Ni 2.2014076311521573 8.861224978580449 12.682478502205921 -1.8107883615049716 0.10061549423123317 2.2853576979191157
Ni 0.7672745120366334 5.100938387941025 5.916119296282348 0.22617146045788789 -0.45084782442748805 -0.36952845942170554
Ni -0.1134427876901678 0.1298500226264282 8.13765853271924 -1.4726091058185091 0.8058053280135542 0.427203959756303
Ni 6.770763199074089 3.682545968606525 13.356765283679634 0.8428122442552065 -0.8198366092956397 0.2965104151927668
Ni 4.140323808953933 3.1065773292737946 0.5962498177238291 0.5725975295341751 -0.2832815752073186 1.147825554712662
Ni 6.281359995049757 6.161262138958288 10.200990555226841 0.9303253967765267 -2.1221049884726355 -3.3128150012536492
Ni 1.6663378880909436 4.445836227022377 0.6972387746453306 -0.7495650174635864 -0.5639095148418739 -1.521780168226521
Ni 0.047239861149452826 7.353640246257025 7.091051570387506 1.8900279611635902 0.08061334007769341 -0.5297192421134104
Ni 7.127139821625578 7.2487240604615435 3.277381403254711 -1.1079438880263757 1.1872392806235939 -1.3659641175637445
Ni 9.1669150147127 8.078527609613817 12.43086288335206 -1.1806924806440118 2.2365648447861286 0.6089989509813447
P 8.35382626019665 4.674066090696162 1.1628112434981535 -0.11803394681799673 0.5026146725871343 0.20112608745348587
P 4.1101567830640615 0.9370661630538463 8.746120059745806 -0.7514028420032737 -0.34667700874482876 0.14124997992314384
P 2.4927106041159828 4.74530028260221 11.943050763246678 -0.16034916264643997 0.20445618026798337 0.3576682176490098
P 5.096245531728842 2.4478293238875137 12.43173788602429 0.817535986186921 -0.8555674870383458 -0.21568418777331885
P 7.038966475423762 8.982023958608002 12.906154799622824 0.46191333821303027 -0.9776025845959356 0.23874158381341465
P 7.090045691247206 5.168723050081543 11.872724293129881 0.45494307754278424 0.08881464494156319 -0.1812774281586749
P 5.820843097192052 6.774698841435303 6.790247900673797 -0.6960963561214849 -0.3539138928129002 -0.24414784243065052
P 0.7667407230132954 2.270734765952059 12.804304862507811 1.4247109965856497 0.15714736787969066 -1.4203763737660375
Ni 2.9613979329088442 7.738099219528431 1.811046129170846 -1.6915814774247966 -3.3398802329015576 1.9737528502870718
Ni 6.353781423487573 3.984384497249893 2.04060625865936 -0.15237000109570534 -0.7593596349565052 0.9624099360158973
Ni 3.892041800708169 5.490772644722402 1.2266621329412881 -0.9845427633591948 -0.7712288755902653 1.1198902617549746
Ni 4.61549887123535 8.668378502880993 7.386560352135916 -1.6800487941948485 -1.4526434613298596 -1.6789303643196891
Ni 3.920348511087633 7.269673643671708 13.467454056548865 0.6509858369360917 -0.17504121744097595 -0.9505208978877953
Ni 2.5862966271043613 3.6183417126996043 2.564853452643194 -1.4526851132010723 0.910179003735639 0.4404577394424157
Ni 5.746477218371499 2.887527515003124 4.284516022816877 2.2701506511613743 -0.8293692313764233 0.5224335070852745
Ni 4.095554708555237 5.347818148314622 10.482597451570593 0.46305645067853796 1.8426286459440202 0.5712312453142678
Ni 3.2943850609525995 6.147641637959979 3.9347028551390415 0.2429278539806203 -0.4130235544908629 -0.025150016903066362
Ni 0.9256817799956856 6.957907200093403 4.516155218483857 0.2863347602113456 0.1816371254909388 0.22300206159097077
Ni 1.463862643669279 9.15120049022529 3.458863127366217 0.21521547566701643 0.9473908368992457 -0.07639441690033939
Ni 3.7968385185072258 8.639165005544195 3.856467707023225 -0.8226673938762155 0.3133447131412862 -1.9144318439292514
Ni 4.934603745344659 8.071965089572078 9.818914468506204 -0.5278081411336264 0.9504813028991115 -0.02366211950363022
Ni 8.163943201667038 6.727639402845402 0.15047241466642047 -0.8264219758226413 0.0146714859692457 1.7454036654515745
Ni 8.169561541474852 2.174970584602249 11.83137667753927 1.2201419448888857 -0.6139164428876202 0.5037976371516419
Ni 2.6690479482004683 4.152205522590755 9.385024388077106 -0.9548328949995877 -0.9629010167197031 -1.7139637017747384
Ni 7.708474396149131 6.282397658475161 5.765518809643603 -0.023724083089817206 -0.7776388928816672 -0.0017794604979259677
Ni 7.106517429585585 3.0528244941740867 7.611605243476054 1.3972001927598903 -1.7013413850250376 0.40762629473469153
Ni 1.4201685999725773 6.663930607853313 -0.030977525159982946 0.7874854466584438 0.7315840075051336 1.3008601859755597
Ni 5.528614640632596 1.2759146872032567 6.027492366113198 0.6277996286276156 -0.1732339890289081 -0.1383924558696907
Ni 4.750825139218545 4.669560200866934 12.651693552420381 -0.6691879617664153 1.041165911169878 0.14375911949824274
Ni 6.310480009195077 0.7951811143565721 11.218632685511105 0.7654284668584044 0.8071975803753905 -1.238107528228371
Ni 1.0817220535465208 6.550245698697217 11.460096029770481 1.7528110136592392 0.08250412934250308 -2.8549465225339543
Ni 8.332390564390801 5.404085681265081 3.5557322800392943 0.4798547531827994 -0.5010118468763888 0.012432826446714073
P 8.809182885884784 8.403951947467021 3.842880859973848 -0.9534475846162869 0.4397038919955266 0.6175797506718202
P 3.38897135408979 7.748176707569733 11.343933816040227 0.3770548497057377 -0.9855038417208833 -0.9227619826069721
P 5.142276655212487 7.904059929358886 2.09611470809502 1.204886818502028 -0.9082583896741583 0.33943266847758957
P 2.316036720542178 6.735482642610385 6.335834520387674 -1.0386336316663274 0.9364615915812518 0.4006943435015486
P 1.6799957823658433 5.848850661358787 2.5075108629907406 1.4515013773056165 -2.0296159800032787 0.18167517781772582
P 4.11075507548952 3.985880228313537 3.8180339625109765 0.6383195543223329 1.3870620758846242 1.4061532881881202
P 1.4211501734830936 1.9529199598851428 3.3783974703017416 0.7348410809898506 -0.5996609614098705 1.1515323141402878
P 3.6227728159756496 0.539766338601056 5.424503345115737 -0.7479866172328731 1.378264275087336 1.8222169150568877
