# total energy = -340876.5891138331 ev
CRYSTAL
PRIMVEC
9.12325836238407 0.00000000000000 0.00000000000000

0.00000000000000 9.12325836238407 0.00000000000000

0.00000000000000 0.00000000000000 13.35281080643568

PRIMCOORD
 96 1
Ni 5.959431050334796 2.3655240784951577 6.265419666252726 0.4725533344253797 -0.6733048121482662 0.5101708876678376
Ni 1.3851387207803278 6.11157963223141 13.04773943827683 0.5725479072431624 -0.16359929415262148 1.0870691014598957
Ni 8.172724437606897 7.861092173984869 10.612654163071896 -0.5889847126429469 -1.1039874744817892 -0.49083644900528367
Ni 4.698031084502228 8.05250726043764 7.64497860213841 -1.6947573040496169 -1.2367666979297602 2.6557040252564263
Ni 8.321077743970203 4.0612093951367845 3.3732408940049075 0.7554739267488537 0.6974891227039537 -0.1335019605466088
Ni 6.008240483275187 3.2910330363713993 3.5851896983490694 -1.411669075800027 0.7077863908649036 -0.6711162891373796
Ni 8.581291322722691 6.677750807822951 3.3518495898151257 -2.814201736516424 0.14085711536009937 -3.1250259972287022
Ni 2.9075916051467896 5.32110402331792 4.860904056757987 1.3021778763457188 0.4296840458656793 -0.04192826480266973
Ni 0.684182348857061 2.259958854466512 4.51168761744601 -0.3322801165932084 -2.2980856870087454 1.9173724146148141
Ni 0.8369066083646176 4.510292671222349 8.825126827827592 0.6314361969389384 -0.9601831035679076 0.866802950742849
Ni 4.472321669372273 5.529999273044297 7.674995034907976 -0.5671573323552104 -0.9453887188675525 -0.8912978505604197
Ni 2.950908836474074 7.735291562617571 9.167385870212405 -0.8905226629572921 -0.7367164436356924 0.8400022856102373
Ni 8.1263235449088 2.6379445771119903 9.51625471337578 0.5191918602195251 0.8426947448407357 -0.13488495693706448
Ni 4.65072698921327 4.119762468148266 11.386196091895545 0.23995334473332866 -0.5455374400925894 0.37453028351167117
Ni 2.460716157616659 2.8563097691546524 1.3091164324054336 0.34965203221275265 -0.5065260918263985 0.8619001141245931
Ni 1.3085398424686427 8.466584593683528 6.727960660942099 -0.17851966290787966 0.5211746949775089 0.8609097251868658
Ni 3.1512829627674934 3.5020448820682755 8.694802904899204 0.5684919920062338 0.8945906623790786 -0.47967426174087713
Ni 8.42429829056601 4.7191149348807775 11.23267810889905 1.6162016178319003 0.27949999667769926 -0.29003354921917146
Ni 1.5207468350281712 5.447743974466622 2.3205847318077235 0.610267019060491 0.7144162374765954 -0.7177363029887639
Ni 5.090823855682706 5.833365864471187 9.89214938517454 1.4814441876116358 0.4095615640841915 -0.1267733835735236
Ni 6.166465155328493 7.98044264159724 3.665920500432475 0.5638449801525257 -2.248390633776463 0.4487392627249175
Ni 2.4023911660675163 1.826321255010495 12.292077271448804 -1.8420694310064405 1.272184415307422 1.058845587837828
Ni 6.044286477583127 5.876728712090939 12.309142326460952 1.1499816818237163 0.9291956540474577 0.08139084167366628
Ni 5.159804813152294 9.112310583338658 1.8149673598152958 -0.10584383250970804 -0.30706916454521954 1.638208461120295
P 8.267423860769748 3.4031305134814134 1.2529125984560368 -0.9512045542183811 0.01566110357602464 0.555691754917772
P 4.168745243000033 2.0257283159035997 2.7438957149749124 0.8397163789387022 0.1721052747411036 -1.9713041316362632
P 8.524152354777708 6.674220106785954 12.495574289124558 -1.16451715643573 0.22210911746305617 -0.22282954056884846
P 2.803476979218615 4.415146208393315 13.170117915383203 0.5930444845346174 -0.37958481521644305 -0.4840273965032503
P 7.382267075210393 8.921406399361524 1.860580915305402 0.6710918636573475 0.6615448433988607 0.5137619474532056
P 7.527664445821796 1.3448139182389216 7.847860712191701 -0.5660178194341284 -0.06725465938260031 -0.6780652096513871
P 1.810802592312999 0.07707876170844512 0.3299143613172148 -0.9302647187419204 2.1158656924311434 -1.0257889144931753
P 1.6736435241212555 7.445983912529214 3.1694628799675524 -0.4517058015524092 0.49358135874027254 -0.5932288326312815
Ni 4.296671573596322 5.631969933226491 0.8494848448496486 -0.7903031186128969 0.6717382389920947 -0.2505018096731363
Ni 1.1718369372015758 6.366218900044352 10.774529963174313 0.00641078862235025 1.0957573732625128 -1.7889931200067513
Ni 6.651767767633375 6.66046223297771 6.980502491627377 -1.475336532052001 0.5387037050002078 0.12525771825994556
Ni 3.7463383747495524 2.6626594843709657 4.799574776186925 -0.5510324017688897 1.2320361252233105 -0.18599257424615712
Ni 4.729396847202986 3.2108669639887437 0.3969821714807085 -1.1574741335460197 0.18845980483972705 -0.46710670948851163
Ni 6.40768410989745 7.029780860054334 1.2117703519536098 -0.003473046150264986 -0.0846779970653703 0.9381790884929906
Ni 6.787248156262309 8.556576415463717 12.851198905202393 0.6009429134460876 0.6646533071208554 0.12522506524979723
Ni 2.158198029229668 6.331787722489765 6.942299759011565 0.11946656549946522 -0.9370845698772313 1.0445312280976848
Ni 5.570579526823522 4.830272716365958 5.436557034901854 -1.5837486395095175 0.09178761152695805 -0.47111840175106606
Ni 0.4470980550373724 1.916094118586839 2.234286005065716 -0.3739098763188528 0.6746163318708381 -0.12033097038228956
Ni 8.509226703882291 5.658847052748434 1.2854215054460352 -0.4253234549041385 -1.450029163635464 -1.600966803160017
Ni 6.50173578170726 1.9188219728764049 1.2817740267003215 0.7486545898341752 0.07492066056829032 1.6540248593272613
Ni 4.333620770495123 1.8876660451209968 10.882674332379079 1.7362744494567968 -1.205932486157723 0.8398467338689793
Ni 6.30428109813177 4.688479032859501 1.3631881608448926 1.0094395266008744 -1.302708037817576 0.8053224748398646
Ni 3.848655718754501 1.125153223490178 6.875442696119272 1.0951768181686945 -0.6918704909655955 1.0843738140159196
Ni 3.885960722734549 7.1401996576015385 2.96177372501402 1.4290489618393711 -0.9117468624433911 1.6903581465406565
Ni 5.37807877261002 8.044396683636892 10.951374293487067 -0.3910969296211007 0.018837701531793365 -0.4465103733943987
Ni -0.0475586342009272 9.13639598576158 3.670954714469205 -0.08960423072239407 -1.3815797126138143 -1.3137732944928018
Ni 6.17263247807012 0.24115874106289953 9.233495738234076 -0.8076958601680476 2.158574287043263 -1.9514287328685747
Ni 0.41156113855337084 9.25189643828968 11.727066574337641 1.5561270211375071 0.6357929312457372 -0.09540309679235827
Ni 1.0216042395886025 4.367376826921188 5.617928326079098 -0.22370063031989215 -0.05668562561750237 -0.6467152345851959
Ni 2.1297425859883456 4.027453338710719 11.001060471568685 0.6442395193511937 0.8519383749261908 0.7203732263909787
Ni 2.267585898567104 1.825965447929247 9.909174297849317 -1.6464215930587065 -1.4668439211999578 -0.7394125024106168
Ni 5.515091868665867 2.863216075834255 8.815044714866392 0.02883260796097615 -1.0352950542113977 0.1294532443985319
P 0.8804181650978145 8.492786592076948 9.163099763372143 0.7753863494020646 -0.1662472732984298 1.319102420015199
P 6.462286811981232 7.363847216311954 9.02917124101296 -1.1738764861634428 -1.1815412017975522 0.4313832879449732
P 2.2452612850334335 0.816094631089175 5.361447072376313 -0.5880277480463164 0.11263720128245762 -0.6893117290994838
P 7.5791926097932585 2.6329450314575356 4.9048079136064064 1.5616525789414266 0.7100448478817771 0.3365563753710591
P 4.664795053810295 6.8489031371615905 5.730626113597987 -0.43733307777050484 0.26000332140566834 0.17366002082273319
P 2.9746840481082155 5.506461266130986 9.572724034147338 -0.8724586063667298 0.3177456704224592 -0.44346798702364915
P 6.01486396894149 1.6962874517021993 12.609593124473308 -0.48814450399541737 -0.2801499715568724 -1.8373666262141322
P 0.09852389312333884 5.480140665377151 7.171194103681611 -0.5604403253463509 0.8262576823306351 0.6397537156656982
Ni 8.624088528315845 0.6908797329171621 5.822973560721205 -1.6648990830376038 -0.8642009943436278 0.9020059810065433
Ni 8.240875178553573 8.049232010638462 8.071000105404028 0.852104725300726 1.433108219510409 -1.1024113882439208
Ni 7.298406083137857 0.9387559292088484 10.953417903389617 0.26109192648415674 1.038293217607773 2.255965103689612
Ni 0.6422117104834216 3.6974833255166946 13.159034980965261 0.28237371868106853 -0.38749018610644875 -0.9364965585842451
Ni 2.8631430897663073 7.546285016407092 1.0778400049427268 -0.8607379754956919 0.4264691384728075 -1.1848620386406692
Ni 4.113668131474586 0.7923641234216516 13.437467706929331 -0.34753575720069824 0.11657304600175407 -0.9466488165268987
Ni 6.734114298795984 1.033966254847337 3.8198517670387258 0.42617269027831123 -0.13213901876081113 -0.4362403589269584
Ni 8.646385772074034 1.341109875290548 13.551100628443807 -0.1667362971197064 -0.5609134083280276 -0.6549635906369172
Ni 3.5972369611897768 6.2973109286427125 11.78961107294004 -1.0876334586037977 -0.5376325834232161 -0.08694982381868252
Ni 6.917017385074292 4.240618273412069 7.547142602705485 -0.08108770861095067 0.6866439524593336 0.5707725605102945
Ni 7.782677767232971 5.377139076985187 5.612346716532756 1.814882329068687 -1.6567335165076758 -2.0056304157219587
Ni 7.070753413948781 3.6731242253389667 12.722771707714807 -0.7196833994128057 -1.2896836005334498 0.16704354394748008
Ni 2.779400700054187 7.85590103990205 5.003605504484551 0.7147147425536207 -0.28500935653170273 0.2919577628250778
Ni 4.321140152875973 0.4965150969934318 4.29326221189729 0.04116130472965814 -1.0840837935793264 -0.27274879399679475
Ni 5.723083915801384 8.932609760791578 6.072991898107173 3.111978162905808 0.7116006224046713 -2.809334381121794
Ni 7.961028347523007 5.863034701092149 9.179937649247805 0.06312341082304612 -0.8354738016122643 -0.5197443902888855
Ni 2.1742184711443087 2.599973575261915 6.6058494953095845 -2.1195554825779044 0.6228674814333209 0.754390720987004
Ni 2.313731340027383 0.5234049890772648 2.7266710029391263 0.5683552093180534 -0.7569368844476254 -0.27302981557232336
Ni 2.9274985551796737 8.78132788845185 11.500001442995549 0.08080977235921566 -0.6516962327395551 -0.2795143948554025
Ni 0.6200841593332117 1.2211846423930843 8.041770097516604 0.26435157107203505 -0.39108021745055227 0.9499449707796672
Ni 3.7105660781964174 4.347871300262018 2.909644338307834 0.9839395825575572 -0.36027377359265694 -0.5163330506144914
Ni 8.806626684254411 2.938382602562456 6.875535753355907 -1.0650447746700045 0.9051221580380219 -0.2758760267718668
Ni 0.16656971659733902 7.859532096782475 1.1144653261650066 -0.15444822378097273 1.3575854065817459 0.06564283481079018
Ni 0.6674074134650058 6.628311870046507 4.996394480971264 2.4955219843154697 0.5042318964755832 3.2453148015191458
P 0.5703085733183565 2.544102740247532 11.143855888857733 -1.4703370219548808 -0.7093197967902946 0.052890420241128264
P 4.120474082310761 3.485194223630724 6.705567622969727 0.9248905989142007 1.0983595867720504 1.4602413282817754
P 6.662898142995482 4.146320273622933 10.176030521110945 -1.0569229168938183 0.7042917474480839 0.1518696644205191
P 7.791372232577306 7.554596304894699 5.212269935771042 -0.5518777804883205 1.9252826706008261 0.5721005352930986
P 5.733146869919749 5.724379418507467 3.1001753810125825 -0.8403085039967463 -0.0776102915853115 0.6728319862769058
P 3.96327121520873 0.6437909465286518 9.15819874890942 0.37847692686424494 -0.4598220029016404 -0.7395402862377328
P 4.5501521875805855 7.8247816051806165 12.918550448705036 0.9603412264123268 -0.40985775516837153 1.2141106510931414
P 1.5255182992202878 3.69835003507358 3.467551666355934 1.842911981512394 1.5998072356342772 -1.4888067986242939
