# total energy = -340854.3081981618 ev
CRYSTAL
PRIMVEC
9.41338063822979 0.00000000000000 0.00000000000000
0.00000000000000 9.41338063822979 0.00000000000000
0.00000000000000 0.00000000000000 13.77743408314913
PRIMCOORD
 96 1
Ni 7.775941728639445 5.060661557797514 8.452662116845644 -0.06529187922927465 1.244773370284321 0.930330024762217
Ni 2.0915966506385955 5.438749982655517 0.3496741360385365 1.1314188312198645 1.9332834294181156 1.2770515135917362
Ni 1.0980614134510451 0.4335388836023965 6.451586415070973 -1.5175784714403475 -1.3400774796049695 0.9141423592587611
Ni 8.061543690800328 1.0245711524559888 7.433049933198698 0.21394406515376055 -1.6589014706932719 -0.1375290794281309
Ni 3.8602390455812268 0.7285306927393983 4.0937304163732815 -0.5454675060866025 1.1614932820077415 0.6783025224731738
Ni 3.0907987428433126 0.2316143427348736 0.8289347497138275 0.9791835559298105 -0.021705252887575525 -0.9103780071203224
Ni 7.744774026045025 1.598307276112666 11.37606836358053 2.625237995457085 -0.7460983990712247 -0.39861586370596513
Ni 2.01150760996408 2.392071753874434 9.04991380614748 -1.0945839217797018 -1.607047205026142 -1.3568930085004116
Ni 6.341182524068742 2.9219980050229784 6.672218166861446 0.8710157032726159 0.715223049648607 0.6740524889475682
Ni 7.067208316276466 2.7491212734776727 13.35735996371138 0.7425785588434244 -2.1496906114003878 1.4532769811488002
Ni 8.245471730967152 5.662440141746784 11.313146504791076 -0.12779873951424442 0.4987629029412119 0.4699832597053583
Ni 4.969295287371227 5.322202919586503 13.71218416018163 -0.9281258180220467 0.5465586822682522 -0.714147557196241
Ni -0.19276814572599718 0.9089042404569171 3.864460005364778 2.435605767575812 0.3056637995572607 -0.08131679390262124
Ni 5.829593537992359 1.7326550415694923 10.59859374064801 -3.837739650191894 -1.1243094738685926 -0.7239961678555465
Ni 7.834059939396903 8.35470459744424 9.02736028798198 0.7620919462860036 1.270615013937773 0.030121759086044895
Ni 9.099736004734456 8.076172083984178 3.413868783118531 -1.2309832584787639 -1.1655255430955862 -1.504570232106138
Ni 0.8840670361997818 6.170687377771514 7.919943857062395 0.22322934711042847 0.3294570453221165 -2.0348278632215213
Ni 5.19614834228603 3.295219712200126 12.36098941633916 -1.2837867754330408 0.7912680536293276 -0.5051158417424334
Ni 5.890187467802168 0.7062012130280658 1.5705726333600423 0.42399136635627627 0.5692774640220067 0.4466121890795856
Ni 0.11095739777134958 7.466505087236923 12.239169918892879 0.7230253193018451 0.4576969861388376 -0.3022786851351117
Ni 3.5928802146882353 8.73632303996244 6.024210471634256 0.6162944562014935 -1.7265700776848394 0.6900072125046117
Ni 7.785505723153468 7.113569214880366 7.08264814285314 1.2509671577998585 -0.13633274512718455 -0.9765255494816731
Ni 2.9763508636095617 7.93807779311733 12.810685426106783 -0.9204996689353565 0.42143748958617094 -1.1615251636869415
Ni 2.52129864037887 6.5813272721467335 2.7111100433126873 0.5585544211775477 0.6019644127320665 0.06959359192842207
P 6.746645059209008 5.21409024538025 6.549888464196012 -1.8535591768135948 0.08003021388071378 0.6954417532566216
P 3.9982486160242288 7.150196678122554 0.6468790309139703 0.01293033490842289 -0.036554916305898334 2.39402100215549
P 5.642606149186698 9.037118198132802 9.272226787682248 0.6551600229184394 -0.9011068662310416 2.4698523474635072
P 5.975858643070006 5.751575441011826 11.765625109812975 0.14051978662533865 0.7930200033234278 0.10502982124884493
P 6.3029265460126505 3.0705129080227223 1.8251659790557242 -0.18459286568515304 -0.8220582995373068 -0.3546736537970602
P 0.06413712620260224 7.7596189269787015 5.849195961393936 2.4099443582539655 -1.557784097124956 0.5366761330472177
P 8.067417640186893 9.0908874271329 12.7683882838333 0.8552754097192239 2.0898489566524074 -0.9885721962335621
P 6.951122508848385 2.6284699765424047 9.125442064005021 -0.20537766364098825 -0.291900170114265 -2.041525329846355
Ni 9.248825123940259 1.546769018273812 13.108318629791654 0.30632688706255634 0.9108714018169732 0.9840007748127957
Ni 1.589279844282993 8.47183529009974 4.46453570879477 2.614384597682349 0.348726949295322 0.4022069234913331
Ni 4.0740451552239465 3.714181034872979 6.274697700787598 0.9618419793275692 0.3248324020659115 -2.066622382024299
Ni 4.910113364625497 4.546135597027848 9.798386745321876 -2.128475153665038 0.2946638489023312 -1.0201090904995787
Ni 1.6392648943513606 2.0350504744124773 5.053066842468858 -1.7947960998417736 1.721996599381544 -1.4552564734726745
Ni 0.10834141935063406 6.923145942218781 9.939936688143542 0.6034335410784253 0.2424128620174148 0.16216384725767555
Ni 5.841049621972247 9.630641247447429 7.343316884276528 -0.4040275216398397 -1.2749712340239396 1.596998305430572
Ni 8.668574941027968 3.0303648405007664 8.00001877766627 2.2954263950090277 0.9363073253915746 0.16096494185356794
Ni 5.875700275324727 0.9357436707309154 5.425222954981648 -0.2891282637960827 -0.4773389287394811 -2.528941697426496
Ni 6.789532420435276 8.543038099650989 11.115937126179533 -0.6475256463016332 0.5547802988470961 0.6498874616655904
Ni 7.221032365837144 4.907534098388448 13.452548066591104 1.5577668707337753 0.5457469850002343 0.7662309081550417
Ni 0.9721103833352704 5.4023766806848625 5.308638238390925 0.5578954474373101 1.6438242646451753 -0.6923428026163237
Ni 1.5737760067194142 1.1496184980507533 11.519119740580333 1.2250607223467418 -2.00628450436619 -0.5582759707051805
Ni 1.126150940645774 4.738149730981627 2.4349958272843684 2.6843129472423706 1.9853050739010458 0.6770413963725631
Ni 2.5272855503305616 4.6674081770713105 9.734611092927675 -0.37845995758338047 2.0540597148679396 2.0347998381970633
Ni 7.255184110026982 6.452420440576821 4.1830492765566545 0.2631405814830694 0.7177262756864349 -0.5943598609119313
Ni 5.559231838743095 4.749784669189632 4.568514026317402 0.434332086160652 -1.3265030833546445 0.8273943670382394
Ni 3.4657242718777805 2.736789745118056 10.755092131588052 0.45281343279429115 -0.5396295592485868 1.0366101734783955
Ni 7.981718224777773 9.059644417495063 5.425580663437881 0.17730481666417205 1.5630800554165727 0.12663865776787225
Ni 1.4611354965276835 1.7995841764067986 1.5133957606453026 -0.11360779272584305 0.06668361737047869 0.7652880846257982
Ni 7.335828540146701 1.9101913964262565 3.771958481258973 -2.4791805668429694 1.6580807745641897 0.2960486450649998
Ni 3.16057071856963 1.470878345269823 6.368164096387191 2.484317373848902 0.9208279988090529 2.2326287429565164
Ni 4.181028223778937 8.497298484155284 2.648918662844385 -0.0766389288109777 -0.697256180757541 -1.4420721135719166
Ni 6.503026773753384 6.567404882494923 1.631427313807684 -2.4461411198894965 1.1615704151025803 0.3029397157578783
P 1.5893833914676918 9.067241015499803 2.307099992772337 -0.3661798546644468 -0.3631788630545939 0.3599007065239544
P 3.2859098789576366 7.7463084070546575 8.109659243515855 0.5438945051725278 0.2620427204332003 -0.18076706418115965
P 9.081709381216392 3.748502219910506 12.534488372330705 -2.7070160452668413 -0.44812245507652504 -1.0196249517743086
P 2.3674463506769103 2.919710553579172 3.3415646080573005 -0.28327771855257666 0.5037289886972357 -1.9461101488691386
P 3.1929715740000106 4.962564720365789 12.10114716971728 0.23816565670528658 -0.7321792178869714 -0.23851532673522152
P 9.006712979352985 2.4444572159517346 5.878279541561776 -0.21137476176468759 -0.4430689518130176 -1.1689422820866189
P 6.205526298732537 8.040354171458727 5.556645983139746 -2.14721592460765 -0.6406314902849612 0.21973444658329255
P 0.628913594368682 4.395521510192841 8.99225590969291 -1.713445110267107 -0.3182997431537163 -0.3780465241950457
Ni 9.01606987949761 3.466740916963917 3.0047340882736187 -1.9984518956956485 -0.9796615240074935 1.2472534563936972
Ni 3.1818073048133657 3.485426477111885 0.11786964301903367 0.28225853325944295 -1.2823886095339334 -0.17674920127101817
Ni 7.374668147789278 7.2049354853066525 13.238033129402218 -1.8150283677282484 -0.15250215579819543 -0.7667129899977828
Ni 6.221208990524231 6.639916151925552 9.793895621520063 0.24463712336224322 -0.05721321598619823 -0.11620974912506436
Ni 6.596605188580059 8.824196946250238 3.490802458673852 -0.2498844878041116 -0.31634339075829393 -0.8671937584233647
Ni 0.6970212844354721 8.977352645800586 13.856791568966049 0.8904391021045504 0.35860795585445987 1.3935569395803482
Ni 4.568671229770536 4.933270280476379 2.170413943617397 -0.13613065641870747 -0.4505822294709272 0.781153590903145
Ni 3.346381434821892 6.155870716979121 6.717490878687965 -0.5465969917053555 -0.7795299392567929 -0.2600079493913587
Ni 6.843527570565626 4.151413728955004 10.550704109062735 1.9329751541490772 -2.112966259396161 1.3443087440774977
Ni 3.7218717666819914 6.9059100426566005 10.133385421274426 -0.14369561325015898 0.2650835641420532 0.3095363951387895
Ni 4.834994588816538 6.811107888374391 4.14422473032276 -0.5995447475469803 1.802033498130477 0.06317406155532346
Ni 8.947653430552808 6.920397235134042 1.1211618490193642 3.1893434283598494 1.9366945119821937 -1.5341978251645836
Ni 0.9889791610607913 5.279080223849555 12.250948881821419 0.8348801338923235 0.25711288723175074 -1.7272012835109352
Ni 8.137726178597559 4.641238979483728 5.200113258121961 1.5464527312725367 -2.366599158499111 -0.6924423043086655
Ni 1.3332358966634812 8.501308584217266 8.406811423460898 -0.8282371746545091 0.802831847207527 1.025676043064395
Ni 5.523404512837217 6.964423615392001 7.4640623150160685 -1.0314628249495008 0.19389691669489834 -0.18408018771479265
Ni 8.20828887827976 1.7313559950705404 1.595137790922832 0.28553771823134694 -0.8960757315650375 -0.8276417071623552
Ni 3.7071680664547237 0.462874742365685 8.741740440398287 -0.7170433906867975 0.314160267064046 -2.519603707855022
Ni 5.518236566982691 9.065123004903686 13.326305221682086 -0.32134444351731106 -0.47751993440203566 -0.38396957454770003
Ni 3.8559841976281377 0.11142994946879442 10.879749763233132 -0.2879267872888138 -1.8564994903888412 0.7621425970182809
Ni 1.9005991617709521 4.091667003383642 6.930434722683553 -1.6139727285013816 -0.9395014068488399 0.6726430101945513
Ni 4.158370217090696 2.1189142806382946 2.194235444126439 -0.4761901598470185 1.5843677611507552 0.11481981075607323
Ni 0.3067481799525168 3.7139551137427262 0.6478561398023124 -0.10262429713114582 -0.36046403522659215 0.6193075319962044
Ni 0.3806093281364042 2.88212292553341 10.786160052349944 -0.7042845483592322 0.9728028492144474 -1.4337823627592985
P 4.400115239841309 1.2740728006786048 12.45314641072133 -0.49796766073342624 1.482881948499427 1.6149302073186447
P 3.578007073613278 3.6748989983503235 8.246359412741436 1.3282303504583963 -1.0793917874202958 0.5442739999991336
P 1.9021711963022925 8.122617703011922 10.789053725493261 -0.6082800705374491 0.0984151441458047 0.24014206370536711
P 8.139721815248123 5.543803308222934 2.1747817521356123 0.6389774996213059 -4.468663940491421 3.5937897827046625
P 9.439832026188329 0.696194789633965 9.4372113410774 -0.20457907899909283 0.7087415556893213 -0.38276192739284404
P 3.218924263837767 5.48389655518431 4.678458544354786 -0.47325935935346886 -0.2501598529526853 -0.9646221131758679
P 5.233952478081616 2.6194707848540126 4.403392037568013 -0.6528576000375079 0.07306072454141611 -0.39998214792587244
P 7.5773570551474885 8.684483553949915 1.3586793226201272 -0.2138795304644123 0.30085532242502383 0.9569548264385971
