# total energy = -381164.78216417046 ev
CRYSTAL
PRIMVEC
9.26006792365638 0.00000000000000 0.00000000000000

0.00000000000000 9.26006792365638 0.00000000000000

0.00000000000000 0.00000000000000 13.55304542827918

PRIMCOORD
 96 1
Ni 7.38588558628983 5.172720137423027 0.5805145723490898 -1.406113178978804 -0.9976548752611204 -0.23240304318989652
Ni 5.351680206480477 2.0368352390462516 5.960954697202673 2.0337482570040972 -0.6365758321583488 1.2365908344735284
Ni 2.0336497757452188 5.853214735106194 11.648083635424166 0.5050325380000076 1.057297783734734 -0.11130254163143412
Ni 2.6470922229551896 5.313519467342231 4.135115657551818 0.05525583514951129 0.14317753596315988 2.5869378143253057
Ni 4.385966262474296 9.307942285753803 4.4649018578725395 0.2501724513581756 0.16645296155133268 -0.4566765152941232
Ni 8.65781145017554 0.22943669828399377 6.260314166957887 0.318187128835252 1.3903718569841474 -1.508905112036066
Ni 0.25287948576333985 7.673753311985213 1.900705761286091 2.714069352569197 0.76082902041318 1.094811978630108
Ni 8.99247955820645 5.162932245826539 1.984260278470831 0.9840460262284344 -0.0313538317209331 2.5001926503182617
Ni 2.727849273677017 7.749519186197573 3.0518747858594453 -0.696552212711981 -0.30534858230968703 -0.46731162641046614
Ni 1.6707014208499071 6.545339977865226 8.350058655024814 1.9362916201168203 -1.8146221334287653 0.1886248696626816
Ni 6.948004763278359 2.2357692742093076 1.6355548337595855 -0.4629294381823705 0.1297052125083379 -0.24044879631250848
Ni 5.196259229606822 7.389182170403689 10.873987347063176 1.0455617262447283 -0.8602774909195054 -1.199270243646199
Ni 3.0247177852113656 3.0466363655414384 0.7112120943755706 0.7182896043890726 0.576096286716053 0.2500621510325564
Ni 7.798375303570393 6.6598221952799666 11.35527010755122 0.36196735924499596 0.6955068021666022 -0.4073781832796274
Ni 6.843384518001992 1.0385165965431609 7.785939958608307 -1.1371045687507322 -0.6930388002420839 1.5307700304299572
Ni 8.23125569000466 0.3063452648549217 2.829699832693678 -0.5346704154710986 -0.018294684544129785 -0.7168006785483719
Ni 7.520452890623002 7.751426760151098 6.795090486740721 0.8532388389051693 -2.4334956632113443 -0.10904716993835413
Ni 4.528580565669671 4.197820206223169 7.00391520025213 1.5396488209768258 -0.17078372771620265 0.6373517910924249
Ni 3.4475972984912273 0.57023404514907 0.2829080334162169 -0.8498532102623879 0.10382963029315666 -0.12753571566084487
Ni 2.48367054755801 9.13547352417898 8.843565630930572 1.1411766819375766 -0.8130622666862836 0.6562985073982568
Ni 4.550638047015777 6.07484519628911 5.680162589264031 -0.9454239429808621 0.39475432386802983 0.03230102612555082
Ni 3.9626422659431277 2.37488327180064 8.329037375258316 -0.7659159480177842 -0.5053474981372652 -1.7672773255962144
Ni 4.924605882516406 2.9990951777870682 2.950755772193893 -0.01377494229690531 0.7570153030940447 -0.4138949013522227
Ni 2.0599576281819476 5.686533515866097 2.092657705376534 -0.8820999861112357 -1.5271928546016602 -1.2313529831133567
P 4.767166210876399 7.916718969230862 2.900161540107109 2.192612864685211 -0.017302752944505683 -0.4719185290548582
Ni 1.8015924782920614 3.4181780632953505 11.85938912108193 0.25553345855977283 -0.9013349230814477 -0.7012311062448892
P 2.774853377502724 7.32926953215461 10.278263113458427 0.902453610066923 0.5393675638364517 -0.3794284921442369
Ni 4.063391802906031 6.180854451725812 8.730302038429832 1.0959484062273963 0.5064044786468698 -0.43151312865461816
P 1.7547087553469163 4.687001804489649 0.02293996580130515 0.8784508193944225 -0.38732049329780394 1.549588448688041
P 6.082716253864337 6.898843063670266 8.139159686340639 -0.18940468525149962 -0.06478460057555295 0.7409150550980723
P 8.756847874607365 6.5900661050279865 4.288169761112264 -0.673322295649763 0.7134348473999327 -2.544711815776559
Ni 3.582673906549855 7.897883991456731 6.99133817625369 -1.5160676912227762 -1.5338157592348165 0.2977363171800679
Ni 5.683051730397526 6.908167951879976 1.0209613601300844 -1.2441637617247798 1.0307555144698313 -1.4805283606655857
Ni 5.384766428499637 -0.11528228726709253 9.319954445620372 -1.6915056298815385 0.3210580226251438 -0.9734543667555171
Ni -0.027855209755340907 0.3773357221360526 10.462043047772237 -0.22292184317233868 2.0376594191330453 -0.273424994128213
Ni 5.4417714054797495 2.576808308842282 9.994029038342477 0.6847876159768852 0.08734371682299151 1.570426725589631
Ni 6.1912535077928466 5.329372703305511 12.319107961834176 -1.459952593396763 -0.14249105141909651 -1.0354693750057327
Ni 1.7000280553684288 1.61602072087142 7.6786944841289095 -0.7360186462377195 0.8018944229949222 -2.3836957089700817
Ni 7.9335445123063755 7.441649714193378 0.4176086827247808 -1.4302653507449754 0.041058460603206705 -2.9186378900453285
Ni 4.268539343519648 5.23715168872706 10.945859362792731 0.023556961384333625 -0.07016540527149207 -1.1306408154032592
Ni 6.81389120226423 9.110517641631644 11.138814172218936 0.9912811105242927 0.7227142158193295 1.753190251375529
Ni 6.486075544357637 1.4911672275928516 4.012744788433154 0.7439625836751446 0.04374140675200854 0.020858331506247947
Ni 4.3581304988612 3.325540345668798 12.169130052775484 -0.5785606890961456 -0.8862363768771123 0.08064933552195143
Ni 3.869374863710558 5.563133853222012 13.21434075228468 0.7665422687478733 -1.1134823013461017 1.7440630922632805
Ni 9.153410275382763 3.702851065621965 7.897562667106307 0.2250363184121802 1.3223317255857743 0.4821980566039953
Ni 1.2497757818622486 3.5239650771063986 3.3020503318440015 1.1887454328554752 -0.0031678562050203507 0.14817138963332546
Ni 8.123024018311424 0.3972069014897929 0.2695253835247842 -1.787699083785676 0.5727463964072137 0.7645995431992059
Ni 1.3271436477928604 0.4498976129119083 3.341651937521901 0.17353635076067533 -1.6690974373896672 -0.6270653215647523
Ni 3.0838062774319797 1.6381152424884684 2.764469137544066 -0.896820580150862 0.8513038266659855 0.5334807660383716
Ni 1.8991750720894027 8.370786390644094 5.193771049406278 -0.4129150539374566 -0.4534724065345287 0.7420777079476059
Ni 3.8397056066858206 7.8275908172760875 12.487166153146552 -0.4116017344426718 0.5333784361325524 0.7341114019126775
Ni 6.831290869539349 4.857924134752632 7.221035082441054 0.8847672485307536 1.5207859226340519 0.08797903641414526
Ni -0.33913053467267523 5.869447633846633 6.18718185600952 1.2322459272412714 -0.3724124658377199 1.2932036978715664
Ni 0.3247385373980664 1.3806946195076095 12.607720196975498 1.6918879529216218 0.24411878896492797 -1.4213274248253973
Ni 3.6309466396553347 3.131643787353888 4.959777471789614 -2.09229279020721 -0.10010898690845985 -0.22528083032281848
Ni 0.9988464663640179 2.6336836448740977 9.619219462684686 -0.2681148947692092 -0.5982820787844729 1.3626260543294468
P 5.213297754240255 4.178124042149631 1.0273137665966794 -0.020898697825880136 -0.48755212182705704 -1.0341331726928127
Ni 7.788661492515789 2.4699471271739086 6.55951158552773 1.1065074126901653 2.009514324157397 -2.6904866801532505
P 1.3199300550268585 9.41387746064862 0.6886304931956317 0.3996185939388666 -3.561519095596415 -1.0589618017007183
Ni 6.7362547943692865 6.133785527425955 5.057562861070363 0.8499948780465748 -0.7182224985965631 -0.5079286286008801
P 7.943415744512484 4.114683318093303 11.595714248352476 -0.19091829368254862 0.6778021857979875 0.7402252281198993
P 6.079651171443867 8.78458177747537 13.172692671637224 -0.550071323407201 0.024490014721564278 0.16052836853678162
P 1.9634955025806091 6.3094675325050185 6.071303220380258 0.798101017390761 -0.4116536707265297 0.31436672664789733
Ni 8.025515505055967 3.9102302825598527 4.577731153196481 0.9651867274300863 0.5206275642247873 -0.5299637540240485
Ni 9.061059619856014 3.4132887475309746 0.06321755642390108 -0.7782168768723242 0.9436496246892586 -0.40198375173693357
Ni 0.7059421898272629 8.233876289173825 7.551621352614126 -1.0115552873922966 1.2853260948957024 -0.44473065578615667
Ni 0.5772513244790781 8.138506851565282 12.268948026924189 -0.08901210566434993 0.5627198654091471 2.126069115326706
Ni 8.660737631579979 6.262000425292532 8.614898444275404 -2.02092847953161 -0.5894889059728751 -0.7824170309966008
Ni 3.707453319286539 0.8440523960760603 6.527593984056797 -2.000726036441806 -0.3339845008788248 1.3998468863541182
Ni 0.2719709674137459 5.054756134539716 10.439585531499954 -0.9398559619747815 -1.0105620702410918 -0.3970012109206776
Ni 7.685596938618996 2.2698370634084366 10.591203398554615 0.6811615891885237 -0.3528821091142761 -0.28729866678651167
Ni 6.39534540068461 4.855868399715337 2.7308439795826973 2.263126654435057 -0.33994740333047907 0.8473769808077536
Ni 0.41643080210881744 7.550696271847344 10.14772023456313 1.4429264911524118 -1.3312395695983654 -0.5646937013060662
Ni 2.356011253755567 9.409154826103485 11.184962645785877 -0.17403951564933898 0.6897333900179347 0.5306378972729378
Ni 5.618907241193296 8.765783839972181 6.719558892242071 -1.2268761782889257 -0.0902493205055607 -1.009848332003519
Ni 4.945904038308196 0.7934414958673519 2.046916674789957 1.9545253695160272 -1.7248345830509713 -0.2621183108661422
Ni 7.3618279303128435 7.106926045756056 2.480599909096898 0.05572403303518145 -0.6984090634150617 2.3816545101703372
Ni 0.9370818145678262 1.920491748016664 1.4675234966436437 -0.37853786200916745 1.7620446164423653 0.8605441143173309
Ni 6.548442100556639 2.8416184658761185 12.853124956062695 0.3735314099335116 -0.10250911170952025 -0.04165109988188311
Ni -0.0676059025237834 1.6151039741655993 4.51927604960898 -0.5982375986997825 2.1997242789190117 0.85701501811815
Ni 2.165596480909227 7.033077005564958 0.3283425557607467 -0.4213989230387517 2.0536545090097214 0.284036193985156
Ni 0.9659917460382476 3.886857871595297 5.763378187969649 -0.15725715398467754 -1.0433665183656224 -1.357937647714842
Ni 5.868391986124779 4.006951690057787 5.159265259003257 -0.47670258070706284 0.49956560134816547 -1.9527500227831596
Ni 6.797000838714567 8.267768137085978 4.396783873602979 -0.5532641193128859 1.8259879520635456 0.3411774190828382
Ni 4.372733625680181 5.75459501372247 2.5822078543388876 -1.2333903252583598 0.22267424593790683 0.36389260129216683
Ni 4.59854963747957 0.7861269683630323 11.718735174226175 0.8660295629119343 0.3649261847630038 -0.25026166863787225
Ni 2.4522418776635164 4.408671948561892 7.303803419875044 -1.54009747847847 0.37896723623710216 -0.37620484300061663
Ni 7.617368759543383 8.604779042253984 9.065157199828999 1.0605857104573864 -2.052747938035052 -0.1560425648512861
P 3.1703138302175904 2.318443158952396 10.214022319549745 -0.5487808867305516 -0.3627317482148463 2.425086613212043
Ni 0.17057785574322124 5.94584319266501 13.163300184933044 -0.9385544695545385 -0.5780932625414238 -0.7638649790260263
P 6.239202138527582 3.0364039906936435 8.03364862254811 -1.1945738666117944 0.5955533669994001 0.7902110731197229
Ni 6.719086628787557 4.9280043273753575 9.826676464191552 -0.16849364613044532 -0.1704767379987451 -0.3274413004436683
P 8.597009845423846 2.9860384822799273 2.655163297993505 -0.4628582186248028 0.15004135296252868 0.27534252286590005
P 8.948466456259329 1.0076898310514786 8.293582427912401 0.5669313323873333 0.6487039828804506 0.8570319873990144
P 2.0346313429251883 1.31162377426806 5.362858960250847 -0.758289798931094 1.0419390418904766 -0.9045739988440356
Ni 2.480762886289044 4.613449086466088 9.465216202181345 -0.03238510119892487 -1.4417859497900654 1.9153656685974307
