# total energy = -340896.4172052948 ev
CRYSTAL
PRIMVEC
8.99496928680917 0.00000000000000 0.00000000000000
0.00000000000000 8.99496928680917 0.00000000000000
0.00000000000000 0.00000000000000 13.16504677668004
PRIMCOORD
 96 1
Ni 6.383801462284954 2.2057552942660625 11.341226614169447 0.17754907146449422 -0.3963694908739496 0.33536569749706757
Ni 4.557382000878999 0.40359616376229357 5.934948011473141 -0.25908183803266344 -0.604806767276868 0.25042210547513644
Ni 2.61735608094551 1.4739156210864364 4.74248407104234 0.515844541013847 0.05718981894743054 0.34236758273619744
Ni 3.2348157282632104 4.2456613500261335 4.635425949950123 0.03737329844213564 -0.24574809703823483 0.5184040742109072
Ni 4.7613609129953005 4.414586867931683 2.7515340335864615 0.9283073379052335 0.23698963411931445 -0.2822438779714236
Ni 7.3199978362790725 6.000885631761034 2.5885640846588287 -0.011709575127444348 -0.4136442187939973 -0.2279817741937493
Ni 5.182550336633604 4.529929355477096 11.469941022637032 -0.08258948996745777 0.00995222611670544 -1.1057597358908633
Ni 5.603541870953806 7.703462359912272 12.444102462308678 -0.16877929569166417 0.28147588945714747 -0.9167440585476663
Ni 1.8590801938614956 6.436026252325402 0.33915800480746006 0.21936755016217702 1.054002915033546 -0.6130294122969765
Ni 2.9205674911200656 1.6397288797164093 0.3742491778880313 -1.2060019059430778 -0.48669080226802625 -0.3527021318929861
Ni 0.48391404099776897 8.942816174266918 4.726462232251427 1.3147261453243744 1.195145165734232 0.6566417496702885
Ni 8.638210543896657 2.249299939217115 1.5041719983270592 -0.7897847842155817 1.0570489009487216 -0.510953531470133
Ni 6.706891753959577 0.8153048900697956 4.913313823886154 0.31671645782699653 -0.7573662586755602 -0.5142522568260627
Ni 0.923063719247468 7.334398781655366 2.6388153784996775 -0.41610142208523826 0.19405015444331097 -0.8475924392526692
Ni 7.45849337404221 3.7601219181292413 3.8090428560543166 0.744429496009234 -0.4175579520261067 -0.34930776149945647
Ni 7.532890762678888 3.894839568910467 12.744752105310736 0.39380481547056695 -0.452089410144073 -0.11184015930245901
Ni 8.038983698751188 8.826987958395259 6.852709196492423 -0.7081836263033223 -0.6966661125820259 0.0760087514261465
Ni 6.850460454241285 0.5700282762597798 0.4045577259488805 -0.8483051490489778 0.6192157436133464 -0.20035938449079044
Ni 1.797617570653369 6.560084864836229 9.005470630868148 0.6579622682539249 -0.2584308347122259 0.5623532260983476
Ni 0.20982834045996354 4.994213675616224 1.162320899799635 -1.0032097436410787 -0.8139698661022176 0.7204925255776624
Ni 6.305365332565232 2.020818731532405 7.097289599701486 0.29547477483940077 -0.009271397999596935 -0.919420576938565
Ni 3.2763005253122195 4.358773085258417 0.5728023247007847 0.4696104497469719 -0.7161959550848376 -0.6802768725907252
Ni 6.1720778818557305 5.609415585713781 4.8930400632467865 -1.1363298953682366 0.09939036357488043 -1.2976460499136362
Ni 5.380502619516853 2.9871212667847704 9.230987996265856 -0.06703662983452326 -0.19901881130249596 0.0018373103190549
P 0.222855754069261 5.5088608272118575 12.160606225198308 0.987466621874209 0.30588182910533773 0.9521052116557797
P 3.976145093742643 6.0326558622851225 12.599791883324023 -0.5717256684521832 0.9534936073628739 -0.6448527274551604
P 2.389297636804014 8.51363921815257 1.364873209831814 -0.013921752287414732 -0.07120258828675478 -0.3800190745403842
P 6.467967387260578 7.720453856361876 5.703598308172878 -0.9762566120910025 0.5439798657974826 0.3468960667341703
P 4.818973689469477 0.9583599776213431 12.480701192194411 0.19424298718040742 0.4402739055663836 0.49423930403924554
P 3.927257437202884 6.249623509644002 8.02287101077333 -0.2628636736725989 -0.4663163523767324 0.47354963690037805
P 4.652287918846062 0.9175677931856846 3.8389538264851644 0.3997170671899438 0.8459253359628915 -1.2604105626009454
P 0.24412885576503437 5.483665919030098 3.684133319475659 -0.29628030145983164 -0.8992225047241353 -1.5147746834429654
Ni 1.3270097873040385 1.0323885725288333 2.6984133446331597 1.037192785454743 -0.36474877864487504 -1.015201111675
Ni 1.957116361042144 6.39530602764178 4.651645678059137 0.12899841624930042 0.611878843632301 0.6990029882453187
Ni 5.810093344205411 5.614012014875109 9.054813432839538 0.2684673930126215 0.48507100727641617 0.6729302024176669
Ni 8.671671828593603 2.4228848510670233 10.258730667303837 -0.38442517402787985 0.23524256952122066 -0.4272430405243545
Ni 2.354649016198467 5.259880085165766 6.773772046999147 0.18655050363215614 -0.7143948973203568 0.9216111568319805
Ni 0.5280532534000224 9.11046440657382 9.206619725735615 -0.44902774049961386 -0.19680663414252558 -0.16480951241063874
Ni 1.4653074357490767 1.2286947760842488 11.435172768943724 0.2566493173317709 -1.060326800369045 -0.05624622408723861
Ni 4.005180853689347 6.87483682024363 1.6474474626192184 0.29012019539570677 -0.49373228249583995 -0.38941080016792934
Ni 5.561859184586697 7.933076933691555 7.901411044807919 0.46426666893655527 0.1897741527757764 -0.350840396093899
Ni 5.10484279940325 2.7929288809454254 5.005350346740764 -0.45984565705072417 -0.023027571243424857 -0.6424348620422871
Ni 0.8679461471751547 7.347099677889798 6.84367824761185 -0.2453909708091322 -0.09743144007629671 0.11855125277404746
Ni 5.056584790693811 4.586615650143803 6.9497622135608745 -0.425884469613931 -0.05533065425150471 -0.13421492745323338
Ni 8.218532275051118 7.076926788868974 9.19120324835871 -0.6921990779496079 0.02167414253932396 -0.47599938399245123
Ni 4.673992779054053 0.48240558469570505 10.357297537655755 -0.38354148587134596 -0.2932823951737723 -0.5795855308162341
Ni 8.298884333168811 7.161227638379667 4.660031687662084 -1.2657458587709298 -1.3436443710206214 0.18808468088849542
Ni 7.146556843933237 6.135090569309 6.952408533442014 0.998695657820809 -0.20813774288462863 1.0117267799731544
Ni 2.219418652183982 5.1322864498361485 2.501200448202085 0.08240462765016131 0.8257786858116876 1.5499409469314533
Ni 2.4585229182630717 5.141389358468758 11.273756251163178 -0.8517380859899266 -0.2775716693067348 0.01044073571734976
Ni 1.0222332525226905 3.1635755737471323 3.902896362647847 -0.418254463872499 0.7132798098793071 -0.7919591661590812
Ni 3.4942756091996086 2.4274992701663605 2.5607597359688477 0.5432496724996774 0.05384995594092016 0.6906595013766299
Ni 1.300726487872728 3.1754849127091633 8.168068699941761 -1.6354283272719965 0.9903830241900556 -0.49812989734290336
Ni 3.555180544329453 2.7088529056598465 7.210851083383997 0.05860623967898294 0.9220754980629087 -1.1419462131137494
Ni 4.1182476140766076 7.024333205099339 5.8557077315244115 0.7337594178898976 -0.9302824593537333 0.00796733447619273
Ni 0.6140091772075532 7.543702715422364 11.23681481295837 0.9796754079645644 -0.8894916505896165 0.5472145706846963
P 0.13102251751415384 5.496258875636475 7.811361510606414 0.9196969705284032 0.6404805665293937 0.9992211913069758
P 8.500866362166102 1.6071131221058916 7.833821048713888 0.22414645960805915 1.19417765961464 1.5617142854172976
P 1.8381039261428724 3.12245957042731 10.261179097866878 0.5158687093835632 0.4871464017482061 1.0245936086334935
P 4.068658349954494 6.180758026945127 3.787952352229336 -0.23355541162678484 -0.46204086492983 -0.030711827261560014
P 7.101015315863173 4.225791463495071 10.358613501621122 -0.8903442283978988 -0.9933523912310246 -0.3506938432137057
P 6.27363108191716 7.938312005652206 9.96001584213466 0.46282813671781586 -1.0611480107187594 1.0041186286085932
P 2.4107686278178875 8.396335827364164 5.723477189672946 -0.17430279661305467 0.39821220050964323 0.00831931849897277
P 6.67275584658729 3.9268256786906655 1.7613255692106895 0.5484242747220813 -0.8660246778159278 -0.6705840707829934
Ni 5.12151047696869 2.8813404312911994 0.35737191754478415 0.8980819633617888 -0.3264534826091023 0.7359736519323969
Ni 1.5133585601714115 0.9699454976992102 6.993180029448962 -0.6712435587438633 0.3068627049613683 -0.6575570623957063
Ni 6.829610116088725 1.005493615205213 9.112647485551225 0.22954500491581112 -1.2351798130586147 0.8783590310115648
Ni 2.66085575105154 1.4075417448018226 9.074811047930465 0.45019399289357304 0.05049029544006789 1.5832552448128667
Ni 6.311922664969552 1.6948050749313015 2.612998018462803 0.13250282985813308 1.093270345174601 -0.3666400821303169
Ni 4.159903315536703 6.912903529070908 10.503640286378467 0.1676184426143436 -0.27243691918333085 -1.1855971170344808
Ni 8.090362961705209 7.07640508066671 0.35499814522448203 0.014065991174762872 -0.2061186555720708 -0.20641458954593483
Ni 7.586554747760065 3.9384651685825602 8.121280469167667 0.4802337337887729 -0.7391949870831721 -0.02397836519246838
Ni 3.2422545676299777 8.28330504685292 12.289084065981072 -0.8922884966084632 0.43558447051051435 0.8429055752999611
Ni 0.2535672767415143 4.8431431711847175 10.024208438435668 -0.08990093602720646 -0.10172955323101834 -0.04914123761134117
Ni 8.514754594309135 2.2901101135907824 5.701570842159252 0.4246076597840364 0.21984217580575044 0.47877823228916905
Ni 3.673014638289128 2.697798088753248 11.421256652396776 -0.288713030635535 -0.04109137072367117 -0.5500787796063688
Ni 1.0892637615446368 3.247084865985424 12.726163102365922 -0.29118000411878886 0.5570212723624729 -0.5989958170220457
Ni 3.1520080436072737 8.36534815914347 7.96681436393694 -0.16257753775632644 -0.9946068324634161 -0.2481405085298114
Ni 5.762716842458418 7.754589763734163 3.5526268726290597 -0.7414233621930586 0.5513357919419215 -0.07841710375732301
Ni 3.1126280693053308 8.32052622859377 3.5467162784961666 0.3479368492938589 -0.29964998926301295 0.2121106114894476
Ni 3.482303305454546 4.317279293240404 9.104063586630177 -0.6410526369827798 0.7476541735941188 0.18656567314080771
Ni 7.267692091517584 6.154267843226711 11.419018704108442 -0.25518764518457987 0.013657699992750672 -0.9578716818259118
Ni 0.45405614088404805 -0.031236828862119294 0.4943554010182568 0.7488870175599553 0.5062103603581927 -0.7752644791122197
Ni 4.4956045537557126 0.29348964767443225 1.5665611033426547 0.7718554534306707 -0.3690227234298806 0.006525974043975857
Ni 5.812054247448403 5.396486679437947 0.40469984645915247 0.37289351923919656 1.1815620277331587 1.1526232332116213
Ni 7.733901335023686 8.860979946263473 11.343372813773934 -0.3949291588829973 -0.0499688757189591 -0.5649086455303497
Ni 0.17737359279462744 4.794453403963059 5.744857331499873 -0.8129699640827935 -0.6230502868680883 0.08310628170287623
Ni 7.917362722840596 8.698242967033059 2.410901753359155 -0.21116315997451376 -0.6237431991700548 0.6052572245507254
P 8.396812560721404 1.4484598588035449 3.590450717293215 -0.8234860331227689 1.0257806869630592 0.15651127695758854
P 1.6947061302722513 3.248056322637916 1.7022538087639738 -0.5814624361239727 -1.2401338146297802 -0.7318573157711783
P 4.559666723006155 1.0637450344787134 7.963852320643741 1.091586529714275 -0.008355313943230771 2.2677045036137264
P 8.401525924479792 1.6156133678151965 12.3995251949159 0.6508752795001566 1.0272703841347082 0.317853142534601
P 6.2019951487648814 7.5797185713166035 1.2979578364131257 0.3524815312417478 -0.18181453160906752 1.6017376198877704
P 1.7801043660014997 3.073338044693433 5.987108037736756 0.08783145509268744 0.6570937496060425 -0.42506351637453244
P 6.807869276004715 3.7713206545399127 5.915687084343686 0.4672931144677049 0.9673505678506245 0.22464885316577443
P 2.3845123132935906 8.397954921784983 10.231110715478449 0.14473948113364105 0.543866737258386 -0.2105913466314438
