# total energy = -340861.51702355343 ev
CRYSTAL
PRIMVEC
9.39000357550653 0.00000000000000 0.00000000000000

0.00000000000000 9.39000357550653 0.00000000000000

0.00000000000000 0.00000000000000 13.74321938886325

PRIMCOORD
 96 1
Ni 4.9727768307999645 6.0873139056155186 12.239436676352017 0.06039289926576051 0.7085659493434054 -0.7937931340440265
Ni 2.7394020595682225 7.998667896995503 1.3386069722113256 0.1404259413599517 -1.821764143790185 1.1043008919571495
Ni 1.4707844174059745 3.069028742250795 1.2131809395294604 0.1504730411833086 -0.257765176103769 0.25410598208462687
Ni 3.1549097142145257 2.984274570706444 10.794171471443947 1.5098199105408514 1.0250710624905444 -0.2408905118356174
Ni 9.158680758736528 7.833732485608784 11.004635253775707 2.2306639059206614 0.2968040351737856 -0.5422438569429823
Ni 5.969722891849742 5.133129920481206 0.2006230586691763 0.38509597484265934 -0.8991636264617417 0.6211759526635109
Ni 3.555327633244634 8.494441301515627 8.974816978304926 -2.0869641789054443 0.2979083239815579 1.765842907142533
Ni 2.1382728158360864 6.59613941499346 11.938816653465329 -0.09307599132107841 0.6214929696832974 0.4370320015903183
Ni 1.4819209615508449 6.516756325448153 5.181756992579541 -0.4595180985079763 -0.40772528220640103 -0.7323638230939515
Ni 7.572502588382566 3.0736016739527776 9.523762216614884 0.8042768071841697 -1.4328372252372097 0.5494843405554796
Ni 3.8128015290729196 6.175194948323649 5.5219709042025364 1.0325478304835638 0.1345499421951489 -0.1191184381314271
Ni 6.465374226324434 4.30207705117462 2.214375977160649 -0.07255627410117181 -1.9806436638696339 2.0819389577767113
Ni 7.355631067665933 2.7007340251765055 13.709740325579057 -0.11566004726918146 0.9012806728047446 0.15292587359917534
Ni 6.5746644770007805 1.3004028039922533 7.750543627647021 0.480449706454321 0.19671253176682252 0.5983916077791436
Ni 9.216889390400988 6.475214949987017 3.188357845663466 -0.19635386287582313 -3.717101947202463 -0.6693705100908666
Ni 8.55873465544474 8.728994198813028 1.6157219383497505 -0.002310907521363762 -0.2628865564907344 0.2570972035024669
Ni 7.111453416786329 6.5714906558195265 10.678783352498057 -0.03680174220938178 -1.0385112471558502 0.550875050255419
Ni 4.885731498402874 0.7000285165411017 10.488509016680535 -1.0370665442895237 -0.10360620142844093 -1.226678717566139
Ni 8.166392139420186 8.187078317119301 4.20825589225566 -2.025153573356551 -1.9023689992274464 0.5036613686840938
Ni 7.1305714639018065 7.201353310245848 13.631060547295512 0.0693627068645386 0.4247290158532491 -0.011220551306167772
Ni 3.4923488798047977 8.606050883055197 12.829460362950815 0.3079924476904373 0.4294541892430604 -0.7984632858261862
Ni 1.5805253882500727 0.5334489155424377 1.0625333574604776 -0.7677334608424972 1.4574028303917157 0.39821142917869484
Ni 6.09230938747477 6.177326479116975 6.80068092212103 0.177854518520055 -1.2320770057635748 1.023060716928735
Ni 0.3705924509294745 3.438825859884257 12.94384469052311 -0.5939842227400673 -0.4278662759306502 -1.2539588934383308
P 6.020203550637957 8.621459878790215 12.263981206487157 -0.10834423033405859 0.7863801294094069 -0.08363772872631402
P 1.892311064292465 9.266421658836226 7.307118553610234 0.8562400876253383 0.23437430798365444 0.9670975712995538
P 4.863364510078186 3.324549517352155 1.1616007113320006 0.43974734363895235 -0.7251855601779575 -1.761906291092288
P 8.955227553014009 6.4491201302748795 1.0478887080099382 -0.05307939632348278 1.2349640975033827 -1.2320986030301295
P 8.000048227509243 6.097098289257134 5.040600826043134 -0.02366494771710763 0.4836962384160767 1.208175516555629
P 0.04356961621601912 4.142597231818399 3.2757646931951068 0.7994264210704038 -0.05183395395215589 0.3758965677315784
P 1.9097576907858622 4.84582398354984 6.597336640439051 0.045079923057773974 -0.7607179487566125 0.32179387234990386
P 4.446974195103369 2.6070311803015804 9.154702214255767 -0.365856409886757 -0.7404802815534989 -0.04979506914525618
Ni 0.8585759085502866 4.396775236419998 8.547773704365223 0.6187601441331666 -1.6976521090989085 -0.020832106254002836
Ni 0.9225058693441492 -0.010017255728286463 9.370044103403092 0.4193672373207035 -0.43860371695281236 -0.5695661989070191
Ni 1.4538354610978035 5.265820059866673 13.907038384010713 0.44445271953442167 0.8894510271596683 -0.2926020812772961
Ni 5.878461447883472 8.52276155205604 8.523242320234974 0.5373222512716488 -0.3855304912769167 -0.6005068543499336
Ni 7.57562006954285 2.722481273270536 4.403039307751401 -0.13934916335600514 0.4993871667887722 0.11094130163727345
Ni 3.894222249376605 4.818217373275035 7.690101114151139 -0.719834066058057 0.25363855552990516 0.07132265880438683
Ni 3.865667248748822 1.054703972546487 7.561354776233501 0.5900859161269257 0.7156542236487546 -0.06712713266580052
Ni 3.6463637171270276 1.7075721355351459 5.121438427129791 -2.2898936381162565 0.3875058698357326 -0.683311802762307
Ni 8.13825968894967 8.97052386870709 7.007942713261052 -4.581682436372697 2.944224480265181 0.9011690869275448
Ni 6.664836680561648 0.43277023707120166 0.364625103708509 0.10135160106630932 -0.7432992390595328 -0.13975154100074644
Ni 8.46022412878046 4.425555597131657 1.4390527785958898 1.7479081770409834 -0.2692945168996072 -1.2966065529055282
Ni 1.485104172735593 6.354318654991058 9.645733667011001 -1.3305065480870828 0.8753909495221763 0.8174241431994052
Ni 2.2769349974442665 1.664490799500858 12.418854290128815 -0.6938574394886372 -0.741689985590884 1.1560065478615575
Ni 3.782922537952365 5.6745950820071815 10.165529517471954 -0.6590377607062908 -0.7987273381208503 -0.9634795149309924
Ni 5.136097161585573 7.450995943159443 1.3336800373775872 -1.0332317439244656 -0.6552091309888199 -0.8966660568508685
Ni 0.9500429935930927 2.6434550038580324 10.415202198396733 -1.5139154207664638 -0.853500577206988 -0.37357923245231145
Ni 3.782255847704232 2.312504330682689 2.670266280836825 -0.48264414300247843 0.1746558090770992 0.5777867870445985
Ni 5.808599821881924 7.570098747487889 5.1043420477667505 0.646425471258919 1.2499536289336797 -0.9920557839067883
Ni 5.849389997063473 3.7129764019193634 8.132961848977887 0.3645991404408882 1.6561593891717605 -0.2766039060768269
Ni 5.601963404974658 4.170607612243482 10.901767765489826 0.002593471758789082 -1.1113757965260602 -0.6771774077297951
Ni 6.765206427917905 1.4009885214288906 11.639558181085393 1.6066620537725815 -0.14061337478040944 0.20138114088708542
Ni 0.9216710980334588 8.219671019249862 3.537587099641849 3.001885582422075 3.2257667041838896 -0.5391623898041811
Ni 1.9967372931584881 2.521553978488127 6.843834561182227 1.043823403397383 1.541127205294565 0.5521210068473782
Ni 8.840735240401527 4.735613512531001 10.503695469332726 -0.12132521597475882 0.5076607196514741 -0.07328389629581573
P 6.279067166983477 8.757859069556142 2.579479032047045 0.3545070463122088 0.6392952879720409 -0.04686272598980962
P 2.5134879654860667 9.66437939695069 10.765448389753606 1.4434985616057978 -0.2612207387525372 0.579399382947357
P 3.215137196630376 6.982246968697445 3.5056620267597705 -0.8801513470252972 0.22527517389586363 -0.018798877874057946
P 8.678889140164607 6.9667910229449515 9.262517295383075 0.666654139600968 -0.8810316927477214 -2.6863158366050124
P 5.551285556113052 0.27462192021054704 5.997293820111266 -0.22251715153475227 -0.6663216959622137 0.6642696985291915
P 7.755391686451403 3.25677247212646 7.278257438868519 1.3488251438906125 -0.472883721181605 -0.42286548028194915
P 8.321233297049961 0.7003430816581785 4.5333932142673525 0.4735892318890618 3.481640319691901 1.1443959602058227
P 3.5103682965113796 6.266202862195558 -0.03874315441967562 -0.5139974605027793 -0.026215996273735498 1.0034989927467233
Ni 8.96071131505499 6.068449388594403 12.463601412783085 0.5198140671845565 -0.11351343323982385 1.3276546804605844
Ni 2.553902540527822 4.453443907511308 4.526838052827611 0.6486039669674766 -1.8165342628498133 -0.5054014913036522
Ni 6.9487716062383695 6.611548410728479 2.628417852261409 0.08412752387853897 0.2681539755372607 -0.4825001612254465
Ni 0.3407688608295395 7.959042082247313 6.580775491275216 3.5776034027527865 -2.0760444466691474 -1.0863005987249872
Ni 6.384845556352756 1.6525185450449476 2.6170249610211296 -0.2154260490159258 -0.16116754478267728 -0.6399563185948076
Ni 9.161281789704596 5.617569590783068 6.965599431501458 -1.1164323851133613 0.3753532936335987 -0.6685644692498035
Ni 2.6929215422688055 8.784855329603783 5.143111494196212 -0.5241098663464329 -0.86390531748008 -0.6142182903987551
Ni 6.180237380200373 5.149656326632109 4.458919218549144 -0.36851415922457825 -0.09428312425530214 0.5714593021646739
Ni 1.8358771432885261 5.223790404223806 2.3943851611576217 -0.04162924550501218 0.5516078146563854 0.9070574273875217
Ni 0.9089373142941175 0.9009501773214136 5.6408492874474545 -0.9897070811689535 0.18853436683140434 -1.1846630352559857
Ni 5.50339653828941 2.4491288815324905 5.972885445026802 1.9423496533854419 1.5955618300943617 -0.004835473715430382
Ni 9.495734934183512 1.8505443287474534 8.009053240860787 -1.3676880422333866 0.17299101978016657 0.004994625001113979
Ni 4.636699215716443 -0.028832005730880753 3.9281417590009857 0.8048784453239105 -0.04507503796176753 -1.4541550128783793
Ni 0.43345007332422747 3.354710208577555 5.178774727469583 -0.09996526224174396 0.34709249901569256 1.3890120005221431
Ni 4.485567109467127 0.5056216401855039 1.207450220396565 -0.7045141478715351 0.12182555264994505 -0.017483758607060213
Ni 8.6256666003559 9.036920583419045 12.686242151646944 -0.6576894742085125 0.683683584279429 2.5565738573214682
Ni 4.754337179499695 1.80245812085042 12.5742212879543 -0.3010263007852493 -0.1772557085937915 1.669722472568176
Ni 4.102238996797612 8.14548999164069 6.839010916386932 1.5773121398555545 -0.31660770016327405 -0.705103701826418
Ni 0.31007012240388626 1.9374957611095949 3.046692740937639 -0.5723645875877627 -0.5480609778453917 1.4174944242325525
Ni 3.9212748494452154 3.9340076941842073 12.99993118139774 -0.7880233214397847 0.492712582982074 0.5740023803015017
Ni 4.343083196436551 5.093644955785439 2.506391939845022 -1.3102758228625047 0.6320938851275952 0.6413002342172117
Ni 7.931454251979498 0.26475772153922633 9.815805410309395 -0.8275136662249232 -0.4152701844331945 -1.877291230323212
Ni 5.055878361729225 7.535637434661857 10.546931740424679 -0.5729078616857424 2.2491907610802553 -0.10402169169930471
Ni 2.314898781573871 6.815715256716605 7.651042455614037 -0.012180601226591927 -0.11657201756048957 -1.358019408795371
P 1.2332361089937223 8.285748473842993 13.40021576237822 0.15982491471185378 -0.017245417344009008 -0.8119718618355822
P 1.5670319532279997 4.636135815506753 11.076333564460844 0.5237439983665818 -0.0916585421482615 0.24925019665422235
P 4.709969412986615 3.6267386098228296 4.20696476677512 -0.48029286916148245 -0.6097702819297306 0.7010585852227668
P 5.741461296893878 6.137343844235982 8.920600037126118 -0.9171384657726076 -0.2672052384707463 0.48572226770716986
P 8.840857310446959 1.5812296385121851 1.1645163074171458 -0.4757469016620129 0.03788983306723797 -1.7456368645083034
P 9.027023519735492 1.1717221960990798 11.317348662163388 0.1045330841180845 1.169429763245999 0.09986113256371189
P 2.190077465117073 0.9469255124328086 3.4912727854042904 0.5958698697985544 -1.0607204362630378 0.2986068927104793
P 7.230039770922558 4.782178539861871 12.151011952441538 0.12239145245574405 -0.6896981659046251 0.5682621353836149
