# total energy = -340870.521271427 ev
CRYSTAL
PRIMVEC
9.28711673828219 0.00000000000000 0.00000000000000
0.00000000000000 9.28711673828219 0.00000000000000
0.00000000000000 0.00000000000000 13.59263410262053
PRIMCOORD
 96 1
Ni 5.5334962652153035 3.1099953196411345 13.037252465757547 -0.33658285773362034 0.9901901914529592 -0.6203670836089704
Ni 1.3085082973817985 6.551494267338931 12.711545855900436 -0.30969914596889886 -0.1206911819351857 1.8247666780619345
Ni 1.204083958010203 1.6381359278794896 7.240823069400935 0.021246825193918246 0.2818065333236888 0.6723738156935646
Ni 0.43799063603146127 5.915531094847992 2.517750319967507 0.9544048063232337 0.9290383025339871 0.1553517094318486
Ni 0.9840628779628473 0.6671019458348575 3.594531126791643 0.10249599908339767 -0.9096542415804205 1.0464523563797978
Ni 5.74995109247729 6.362362137198184 9.874667919495494 -1.362970325042743 -1.2534043064864415 -0.8192856218881761
Ni 7.7849905237118024 7.527802402916925 4.765305912301831 -0.718132252875602 0.6846402917657435 0.5722450312907629
Ni 7.737050427675145 0.8630591779859359 10.85941340053054 -0.017732384282756558 0.4702038603565966 0.9317089073876147
Ni 0.5015962403971838 4.379804202031699 13.848175628414037 0.9416773314542363 -0.8415840282750603 -0.023028085464057116
Ni 8.004463663878072 5.5224167350774245 9.400216992291945 -0.2937811891870618 0.13876269472491587 0.1981855167679232
Ni 0.739391004248289 4.94800857160062 10.998561340264681 0.06608763565769264 -2.156550314634699 0.10427931623606557
Ni 6.532864311382027 3.682555346908854 3.2710942882385536 -0.2700547921043994 0.5222568722980941 -1.288713780421013
Ni 2.739680831193696 8.910096841912681 12.42089439646951 -1.4582854901069855 -0.7618996277695395 0.6793497327907655
Ni 5.9605364620300225 1.94018082199034 9.21587422819655 -0.8638297270471382 -2.687195668106804 -0.16216744680210138
Ni 1.8807432755675177 0.8032705785545542 1.447424987911888 0.4277482622955472 1.4093872217443857 -2.467741471768092
Ni 5.1289123164084565 0.13803255702704992 6.975154882412515 0.10182339849640527 1.620571978985454 0.33822347866083685
Ni 4.323422116979676 5.826866992395073 0.25510966409340363 -0.2933582427170302 0.5087755499822076 -0.6483715392416963
Ni 8.86146021212888 2.5451993218748967 9.510602731827417 1.0400590512589443 -0.22196847812013387 -1.099838742420738
Ni 7.551512411669654 8.038110887423366 7.15619514783479 -0.07764243037482757 -0.03206191353155123 1.039280778332023
Ni 8.220853481323658 8.541974112989584 12.70114707141143 0.9088728833297056 -0.1924316450032815 0.20354678107983654
Ni 8.186621169430765 4.845785278869995 4.758849508821652 0.5086691063113303 0.5969654168555784 0.002529451290073063
Ni 0.7719302747797955 8.034693228504056 7.7095382733746805 -0.26813546359449947 0.549599268866789 -0.20158528647809154
Ni 1.1713561590111365 4.839637207661885 6.230224113095286 0.18382667694308988 0.5634613715608618 0.8865677920746021
Ni 1.769325737374612 2.557384018891575 11.961055818569346 -0.366368316526169 -0.32221090528266444 1.2119028448085452
P 5.029958088731087 5.042337815196964 11.669588950298435 0.39022018344310216 -0.9777974742155611 0.007909484655063796
P 2.326719903187883 6.560577067401668 1.250724786430524 0.696460167218807 0.20094533890124747 -0.97136483121634
P 6.145944458402713 7.53328180172778 0.4897068736892936 0.6438196582049558 -0.6478565472784907 0.01678004767181626
P 8.896593374334746 0.24131179491834318 9.05719362476921 -0.8270002169236146 -0.31681287419554466 -1.1647920073636713
P 0.7470593764484958 0.5880267913009326 13.00378726969817 -0.23042535063823544 0.1943103500832331 -0.21839310206404972
P 9.130591564908093 6.797677154928957 11.002258541394513 -0.5946817630277242 1.4601963339764528 0.10784106544539493
P 8.469088821688597 4.2082432965522 2.0459499358497517 -1.6978613968962373 0.857585288799323 -0.09105998933231413
P 8.979880236259726 3.0030263103133117 11.565836069459085 -1.4984492068100645 0.9605978225078231 1.6052502610267192
Ni 2.107153891855327 7.344753334167891 10.804594337207105 -0.9814085886055872 0.3200241820439908 -2.9594544098410585
Ni 5.032697788136513 3.936362957250932 8.724187341242049 -1.0846170403749773 1.7742136477047312 0.17868575617209873
Ni 4.7979194797663665 2.491826262610528 6.895461205911127 0.48653216520297504 -0.23582672415946482 -0.7542811919923332
Ni 3.549006609790075 1.43659620992298 8.469868939485398 -0.30984955550383414 0.4420235412676387 1.2680192281861389
Ni 2.7428663121972945 4.776169052622265 2.4379479842015654 0.9799181201029897 1.368267311775624 -1.4387034542099995
Ni 6.1691901113240135 7.732639047276576 11.811658616923921 1.194905281809284 1.1611173867255615 1.7088958003335277
Ni 6.666496632550462 3.43765408141357 10.76790744038928 0.13485153259596777 1.0275226093548304 1.720013250402928
Ni 9.296868101025938 9.54371966101322 5.846069963447959 -1.151918493835113 -0.6665523239157811 -0.4860904496798661
Ni 0.5837342859952095 2.673983768163221 2.337349008169277 -0.4024342090107908 1.8061187239434444 -0.5570192154799439
Ni 6.1209899760217565 0.6353604386217447 13.365052391702735 0.24092342195608188 -1.034204135140064 0.37582663372559144
Ni 6.910654928715461 8.885755309229209 2.2151370543189888 -1.510245171003728 -0.7841617816018496 -0.2556013356832308
Ni 8.650911991042662 0.9267994455427726 1.6665656493028558 0.04402499943069837 -0.5104657932004371 -1.4526015523483304
Ni 2.600244062132407 2.4421866242308434 3.1361199787172906 2.6012249203719393 -0.31859901956169 0.4896321442845374
Ni 4.876098427545634 6.311738064455872 2.416661912888893 0.002489342080757003 -0.3537997358325391 0.6502060213472737
Ni 7.421873550651503 7.9143972068142405 9.961212701933773 1.6383316169617201 0.6163965289969965 -1.288118312928859
Ni 1.6535804028327947 0.5317533655134631 9.720200880882533 -0.5572590994048919 -0.02055237023005493 0.5264948216388416
Ni 6.6635247552293215 5.461790437726145 6.7906356631011775 1.2208281723226329 -0.45540073390549307 -0.13443218567036203
Ni 7.34100133904995 6.4580844482888144 2.775643332914492 0.3861658108680704 -0.38713871630430097 -1.775240546307349
Ni 4.499106502242257 3.473233025217606 1.662569403017584 1.385780380958723 -0.2713650262753907 0.017385285355982962
Ni 3.0958510410158286 4.9454546145277645 10.038432290565312 0.30579312604627334 -0.03164230949562938 -0.15687328828269756
Ni 8.578221729190876 6.462180066722012 0.6214214052739302 -1.9271328364356874 0.04208664475740494 -1.3575612382120297
Ni 4.19127573447181 7.065805499112284 11.620044040508361 -2.240516630345025 -1.4353787607121409 0.9139117313051939
Ni 7.307400551087798 1.429556575518527 7.41705167969795 1.0651370772734945 -0.46562292585413356 -0.749148241641142
Ni 5.285743854915049 8.023808727815375 4.0028679994280925 0.1249036773546365 0.7781289451442083 0.6835743123950744
P 2.934143766279239 5.672004322613736 4.796731657549573 0.054383459846886986 -0.6149865360233473 -0.24754581236860593
P 8.896268325252745 6.231209476169576 6.612123350825198 -1.0400035154306604 0.6732958132872018 0.9472645957340265
P 6.060475124070021 5.9659415639078475 4.351804474108235 -0.17606374516821938 -0.6443986706368773 1.4744042500457188
P 0.22901472379045903 2.3572745168958646 4.956866623440947 0.7082684727076448 0.7206082252199203 0.8867135736238471
P 2.604293244982462 3.105509642309537 0.7855126828490732 -0.9826566020800753 -0.472655921441515 -0.4855548888913702
P 6.624556013855859 -0.03275566034895208 5.538930157154677 1.066197914437841 0.769422675619462 -1.6172696540850988
P 5.395443276531671 8.505355012123148 8.825275748320662 1.3318355513111513 -0.8905869405363243 1.8562488078306163
P 5.5925251785064685 1.134142682680473 11.268348363477871 0.7158316297668832 0.22625039332493938 1.1995440661328762
Ni 6.747248111635844 3.1446734131322 5.531386232317293 0.5213901534224246 -0.8062624701556307 1.1691675107235477
Ni 0.6930325041734764 6.800296121818213 4.806246308535539 0.18719662185658728 0.33924523505713183 0.21620123661905347
Ni 2.6215208463284516 2.829385090709015 5.493544946902539 0.0022893102548089605 -0.3743459354150069 0.40620241780397137
Ni 0.8065461445894493 8.19235132039059 0.774815781916291 0.16855638104758067 -0.6499170293519453 0.940579213294051
Ni 3.8446526805438435 1.3834181801078116 13.137783645838446 -0.41004416014756473 1.2363306388336062 1.0274899563446822
Ni 3.1015440435091395 8.21416675735109 8.580010427853537 -0.3014916704574421 -1.6254444765864071 -1.3550870656399243
Ni 1.3673143198738782 4.415903224366935 4.071184029347824 -1.992270449475285 -1.828356452295722 0.3171358047526022
Ni 0.8916523526619649 5.709124927778113 8.614563145270118 1.2656152467303363 0.14204265102776828 -0.7102898740130477
Ni 5.081018655954942 7.200422254643348 7.154646056781146 -0.727185878437438 -2.262388747827768 0.008643020386978662
Ni 2.848228650348375 7.500470418679056 5.815962060049811 0.2032346491560564 0.8840134010838646 1.3404549175490463
Ni 6.504798644930501 5.048959529353133 0.7746235386020796 -0.009089106785461766 0.12660060544108517 1.878225054991391
Ni 2.4386389456787314 3.731034095709968 7.776862439238481 0.31554686299892754 -0.370561271561594 1.980353386322725
Ni 4.089841846654613 -0.18841052117870588 10.442337351146609 0.13701254480302855 0.6070317999526449 0.7908800741622896
Ni 2.8724958860988177 4.760771013252103 12.359578066352729 -0.09146416674926829 -1.0266407209705095 0.5134004503487287
Ni 8.685822262449442 3.4463468225779073 7.14078132036636 0.20056841517780294 0.39209708875084087 -0.48804294542054666
Ni 2.4787407152808787 7.413803046301279 3.386142160321566 1.0547161390504867 0.3547726412687697 -1.4972302468012988
Ni 7.759859586114903 1.4269654699791572 4.0145706950917495 -0.4400183379121519 -0.24640424256499496 0.27880631304478437
Ni 3.887949218266218 2.3801579722686514 10.91960134597695 1.136838973794171 1.0077076315114322 -0.4356623749363013
Ni 7.784052524932317 2.3366199695139342 -0.2412365692736518 1.1289554572810363 0.24564293891893826 -0.14686835455118577
Ni 4.2866544222471825 4.72322320072281 6.555618675833677 -0.33350704702177403 1.3772759430321377 -1.6034088369426063
Ni 4.230337347011559 8.528739971793877 0.9981802239499304 -0.6101014400169041 -0.23714981384626252 0.5741874997291143
Ni 7.706040745252364 4.802507315380878 12.540468809197284 1.091994820896287 -0.10886770693769637 -1.7075729677570464
Ni 3.8372972841740194 0.49439593887505656 4.984975939340628 -0.39541304049795123 0.3746516395808838 -0.4630299683159768
Ni 5.253350392114612 1.3519534289702302 3.360412203702124 0.037087134660284515 0.548969348592274 -0.09098799844379814
P 3.35870430295413 5.941943654539633 8.14665034817308 -0.16982342068546238 0.12541455555278402 -0.03414424998187668
P 2.8965959537499466 0.28956951034369754 6.801672472502565 -1.9346767102212166 -0.20372984362492008 0.46091934973087717
P 7.1380685535991555 3.69565946847176 8.672086616955793 0.12565752480152553 0.10146010161971558 -1.7441713357063702
P 2.1012658599128162 2.711011502161313 9.798059423138115 -0.33630080771682724 0.7955054887494429 -1.4358022214028048
P 3.2124043547043315 0.28386814944542094 2.927350240465443 1.7185927159063177 -0.989670057283431 0.39442753665623037
P 6.295086264340854 1.9987453794500765 1.615267331893309 0.8784554473801128 -0.017192966839518778 -1.239405678214504
P 9.031349436615237 8.259292857049294 2.891547477150658 -0.5055254184760261 -0.6760605205165325 0.19503822938819315
P 4.763603583823815 3.211002000093418 4.785694848148184 -0.7434393641818228 -0.8650844253898455 -0.5495694440701181
