# total energy = -340869.990514337 ev
CRYSTAL
PRIMVEC
9.23828429936271 0.00000000000000 0.00000000000000

0.00000000000000 9.23828429936271 0.00000000000000

0.00000000000000 0.00000000000000 13.52116289220472

PRIMCOORD
 96 1
Ni 1.491253066710015 2.922189376166948 12.173116123813212 -0.8595436980772745 -0.06312881013968483 -0.9913261048296153
Ni 0.5020268375933468 8.513753244293794 1.0359211363820535 0.9102024007744067 -0.06512912839916525 1.4589946003588679
Ni 3.6654370513518426 7.556352904093785 0.8594662136930107 -1.5825271083975907 -1.1623173205709338 -0.3977424599620763
Ni 8.679940737972105 3.137155010187772 0.41194248113351384 -0.33402640986035376 -0.057765746055558585 -0.003332406807342648
Ni 5.042782074421102 2.2642110637398947 6.952176510933158 0.739976602444203 -0.05096543530427352 0.552586633629887
Ni 2.9861552556615627 5.0840217748924985 9.88856697750437 -0.24910801464940321 -0.4161824118348187 -0.12387780719328342
Ni 6.7378686427442265 0.342368039327926 10.617520255615027 1.4996159734246561 -0.7846729169103132 -0.032234691663989644
Ni 6.0261235165305385 4.544016351134745 5.723386792402489 -0.09217404833209933 -0.40154614997888266 0.7580797398028171
Ni 1.319042211762137 5.2568885480154375 6.966900488220638 -0.3309248881168946 0.6185236026423283 -0.20136905670222738
Ni 2.4028592323498272 7.4335391545268585 9.76236092999544 -0.14677013841042463 -0.005259962847358682 1.7999074529264099
Ni 5.1185175279301784 5.2529345623967645 11.202931845998437 -0.1517673345146999 0.596818863975385 -0.18720870604144532
Ni 5.342601348412756 3.42676598018729 13.451880340484568 -0.11966865420794227 -0.5400357935480699 -0.2860817636602751
Ni 1.6238593974820676 7.669124638783381 12.578845858851965 0.9331438400619285 0.713939297840177 -1.3891960915084913
Ni 4.610264086815836 5.485046451810713 3.932278422392612 -0.06448583838821152 -0.9027498011511033 -0.8114771815873509
Ni 1.1249366233650628 0.20375220471253877 3.6788648973722675 0.4972397814284662 0.35738796740442963 -0.34114759428616737
Ni 3.193453113833089 7.073375408429655 7.57110736771898 0.4500962909734442 -0.25804979722372334 -0.6920052167712469
Ni 6.744326203369116 0.3080949289384012 8.223503908859112 -0.264743407193815 0.018505257893039095 -1.356535882271309
Ni 4.9083280868178925 8.267026389345403 9.681977695727591 -0.26539569606583324 -0.09614794537818279 -1.0357647947589645
Ni 5.146694294605305 3.0570128951363884 3.5077136736170575 1.0201661689897592 0.5837219215821109 1.610244114696885
Ni 9.166687453571793 7.089939651920967 7.436950852865587 0.7067044706546345 0.9330777627106833 0.6593046412144323
Ni 3.4135275189920584 1.6474632135000833 12.97907234801912 0.9061991931522845 1.885648601148972 0.4657355401725979
Ni 4.448769641488663 0.47178808589465066 11.323906253189948 1.170429922375739 0.8700003746342243 0.19221721499963024
Ni 2.637169833392852 5.401153593392084 12.51297042602235 1.4538354247554317 -0.3421960901553397 -1.8091120022438132
Ni 0.34717933771625575 8.68883720561412 9.1085583220068 0.029307490714865655 1.3766264823735967 0.7493071358165095
P 1.026244033728875 1.6789010944821996 9.600971801107644 -0.9870220781376227 -3.8567377885609506 -0.1609914242161292
P 1.0769437371757904 5.860989187245988 9.001970694731082 -0.17657616602826365 0.4308037612924193 0.07306638096837094
P 7.307131712423334 2.8283099325759213 3.651038261666645 0.17753235929394587 0.016704714349190585 0.6685112474143647
P 1.8453472601168714 8.865380815831058 7.073055763797865 -2.091269748259334 -3.1793564923504665 0.03349298955112296
P 4.790872542061317 1.37872152740847 8.780359039088593 0.5037449295368356 -0.5865007698788287 2.4895675665042476
P 6.902901350903064 3.3758722727731034 7.796748762910222 0.015745692870030945 -0.4203149459459535 -0.8380711300257954
P 7.184123958889135 8.842368249999012 1.887959769613818 0.20731241876985584 0.32027203638873875 -0.807748567782854
P 1.490283046873658 0.7212180627870235 13.062389661334844 -1.802936983781353 -0.032457092087440874 1.1520339363670544
Ni 3.8571037327317916 3.250924479566191 5.3894274393131525 -1.1540257699861027 1.9376568758954629 0.09140605981782322
Ni 2.936037564116461 2.5532769749742226 9.90508964871698 2.072807170678772 0.15799891724670853 0.4021164206600558
Ni 8.8455462197486 9.141402269837425 5.901973911074686 -0.4505986845311594 0.9103258137261483 0.6594069711202514
Ni 7.346274322391369 7.338292444880776 9.284914395055376 -0.22476326725645163 0.522496499112726 0.741995946867077
Ni 7.408669693579501 5.983599694561487 11.418770497871982 -4.17407233958792 1.7755575633271357 1.226583072528539
Ni 7.00435618750183 1.972807866614155 5.7328246234960325 0.5360960921740315 0.12351888119196794 0.08693285453781803
Ni 6.384245601829314 6.781085336024961 2.0440886195033157 -0.9534804947367513 1.3705044286362589 -0.09062033069173425
Ni 5.850790121538007 7.009557341481533 7.151640304140584 -0.4687671279100701 -1.1549433967043656 0.6351966924226351
Ni 0.9398383620198733 7.501810074438065 5.057861725648579 0.23058218793107388 -1.3383473842877402 0.605764246094131
Ni 7.8453171942024 6.319365132203278 5.74534527001236 0.9850145607892906 1.45660296019824 1.127539036549484
Ni 7.1352719122733745 0.25078061403594776 3.97005653779084 -0.6004533754041788 0.3636624875592318 1.5996074609186453
Ni 2.3919580570460077 1.2651275854290105 6.04843489659516 0.057341514033946404 1.459040880215771 -0.776739006775217
Ni 8.199984161226913 2.0156088371078797 11.489094164522601 0.47907648025587823 0.3899643586785542 0.8667623273129008
Ni 7.595994381406234 5.399656991358847 8.032313922941603 -0.11318484625581153 0.3912105723808295 -1.0565953583510708
Ni 1.9420166655229438 6.997972533150186 2.7665113545442526 -0.09070543420637282 0.4118267059692842 -0.1300937061960082
Ni 6.575487322138097 4.3139368842350665 2.0141390260986953 0.138503013305626 0.05427907305853878 -1.446724010521631
Ni 8.491294975511096 1.3521522221764493 2.554864112192185 1.974749409872386 0.3384165685082494 -1.6479051195827685
Ni 6.055695264113187 8.059266616966086 12.530331933436306 1.6278705695293967 -1.8585656288892507 -2.6113866913962895
Ni 8.088293305783544 2.260358699246935 9.175420403584251 -0.14201282623109737 -1.7057690817790883 -0.5945272397277309
Ni 8.437675974270954 4.059181960355303 6.2363933307149795 -0.3115994483154053 0.24824206710468216 -0.6649554117423064
Ni 8.131953436703757 0.5318156848536564 0.006232146491488568 -0.7026151310766092 0.1619890122427081 -0.2889133195717992
Ni 5.2065491376505975 9.140182816328862 0.5915707544300667 -0.15897413667578428 2.5514079968498122 2.5090902099182073
Ni 0.06847785747629687 2.1936675259263656 4.817427989867104 0.4573730271405155 -0.22989107540132023 -0.15721370234125184
Ni 0.8122899918231093 3.609637815050937 9.451279263789477 -0.3612855026866229 4.343488497532636 0.2439046160715929
P 3.8359480620150572 3.558476197396232 11.659041639852314 -0.5773437859699089 0.04195063340017292 0.66316335283889
P 3.888763332533646 7.755243923683553 12.044705821704715 -0.24274581987680127 -1.0228555428964643 -0.22470387477342593
P 6.598841704483906 8.700126388852482 6.0397407473761575 2.4747711249213635 2.139999352254553 0.9980791072827326
P 8.559667516548016 4.103119239800188 11.851961956392202 0.037962595286702365 -3.2245323175561564 0.42928115400030586
P 8.54501559787695 7.94352015477833 11.15271438098445 -0.3684951330611847 0.44746630954976485 -0.3407526728405938
P 7.510789686637483 5.087005740674816 0.02170904393766526 -1.1604874664510465 0.5334933644438619 1.5348097477169698
P 0.1466716183992266 5.578251500658369 4.044828438262469 0.19228200679929466 1.9125238282732606 0.2262779041287651
P 4.035051562140408 5.209643962842783 6.432814956949907 -0.030795902334934056 1.4512740917861586 -0.1414160731873629
Ni 2.954024503367763 3.613693421795324 7.624366999705462 0.3146791156819935 -0.16852938446438717 0.7868300724626319
Ni 2.7522880922580155 0.5302876726542906 1.3871764050678388 -1.9849834288955683 -1.9034216088616767 0.765553936692675
Ni 8.743296890712438 6.128585326102285 1.7545469366349653 1.0460404656533597 -2.099795012121526 -0.11038722890601635
Ni 8.533421551261448 7.779041743668841 3.259762746018025 0.385803028212013 0.06092228940666928 0.8751793477320026
Ni 3.856706486513093 2.256395475344106 1.947533768820775 0.0731694822051385 0.6103325821911036 -1.650243280797642
Ni 7.291519012200066 4.307959714386278 9.99610060507764 0.2571640521846603 -0.893015861692791 -0.03969269060393164
Ni 6.289322232128685 1.8740136558522538 1.8257491641088015 0.27373121251472216 -0.5199685904845497 -1.3163415694406104
Ni 7.166626648698089 5.604340415114289 3.8733132261115215 0.28508726095748965 -1.7976651938594523 -1.679556170829146
Ni 2.351346559897203 5.357881470406414 4.675266501792729 -1.5629910952471922 0.10090217223371656 1.3796786389363596
Ni 5.912261664310561 7.410535826978967 4.643113577616956 -1.1967737024765905 -0.30422886688294704 -1.3212320647636924
Ni 4.885888294603505 0.25431148624028654 3.115208542347303 -0.6584952579392594 -0.42191211522974437 -0.29540458372309775
Ni 5.3531052774978765 5.962989082609944 13.616892724418262 -0.05725666762962396 -1.0717334995440897 -0.3146035252490517
Ni 1.8471579638114042 3.9364790701982453 0.7259471404463669 0.6174727927803108 -0.07495717023318058 2.0238189137055276
Ni 4.983897251212166 3.880846123012143 9.03642302783323 0.0033740586785554797 1.1195308215330269 -1.6134196842113888
Ni 9.175001909311993 3.7989579722553177 2.887768453230931 -0.08466334177735096 0.025356219376601496 -0.5042887178554476
Ni 0.21379976256036412 5.728539907304583 11.127281384703592 5.735953489600385 1.4523159027871118 -2.160901906735175
Ni 5.811056261384001 2.6256496930505957 10.688411152912815 -0.46750214515471744 -1.6094676415421763 1.4888394516344423
Ni 2.9002299747286613 0.3682611021597436 8.785821636509905 -0.4668100041836992 0.11410041609154543 -0.5104773631646627
Ni 0.5081730680421866 2.5036766273418443 7.24700526382386 -0.25381750430993055 -1.976107209451861 1.587672400043956
Ni 8.695904492993291 6.943956285691346 13.142746104578642 -0.5342664951644605 0.8938059616942542 -0.24027344707690876
Ni 2.561942485512343 3.5217170647403875 3.506889618670362 -0.6692550675589247 -0.574428669205643 -1.4969209430909962
Ni 3.28760970594879 7.35701844686454 4.970149760559951 1.324092931251255 1.5343536340161574 0.4339150532278914
Ni 2.2145368098342706 0.5057332371966453 11.107162249469138 -1.6138822256701046 -0.7024639502107257 -0.815876339096311
Ni 4.557559675707116 9.027170886251216 6.53031580793 -1.1905714303206203 0.8821084707516679 0.1582675975270629
P 4.073224152272087 4.4207314490758725 1.75437048540759 0.770842438785124 -0.03954562350310609 -0.1856238780528287
P 4.233665433205503 7.405076001042904 2.912850394713871 -0.12951855041882854 -0.0013683411024363532 0.6449002928636441
P 6.220940452807607 1.1891704131001948 12.651319274225637 0.19725966251954416 1.5356610399736716 -0.6486186222554958
P 4.143730736948993 1.2953552511867197 4.823242565914752 1.1581158808950764 -1.3744364167008136 -0.27004605035365103
P 5.073600990364781 6.299900067487052 9.129962502567324 -0.049088015775902556 -1.8775588821623017 0.29317672283384344
P 1.374832209778887 2.1427461036597117 2.4174621881148672 -0.1194177145394008 -1.1111770502516927 -0.5647242974336855
P 1.8192121542401725 6.239333876561764 0.6959541271062145 -1.9552787027422844 -0.028685283749834468 1.3855168428846913
P 1.6575606580823499 3.475867460475256 5.839979481418914 -0.12855155851986894 -0.2394316679019038 -1.7579141392137594
