# total energy = -340871.71641744755 ev
CRYSTAL
PRIMVEC
9.26721600474650 0.00000000000000 0.00000000000000

0.00000000000000 9.26721600474650 0.00000000000000

0.00000000000000 0.00000000000000 13.56350736749060

PRIMCOORD
 96 1
Ni 1.1082292759883925 1.9933781317637786 9.406848709559814 0.8483791968200227 -0.3834694949828299 1.493819164237221
Ni 5.727574961423561 1.7088838720379942 0.19046167382443294 -1.054140983273307 -0.21610224914734397 -0.021744076545310936
Ni 7.23212599093594 0.2720780439148262 12.646600650713085 1.056362416404658 -0.414881433635208 1.0552375587715956
Ni 4.8708115878313105 8.639389788336484 6.981258750684439 -1.1543247892837605 1.05223939537522 -0.5962539926108505
Ni 8.788925583474283 5.884478193171086 4.805320173339564 0.787363833478915 -0.7791098210002388 1.5306491885813767
Ni 7.8995045411868405 8.634858119780313 1.3523314486611524 -1.6421509907078107 0.41964568779307077 -1.4474305496703523
Ni 1.4871564653407363 4.328466313980955 4.239382421349532 -1.8392612721336838 0.8659066641808248 0.25905844099389574
Ni 3.076780536459771 9.061854357805176 1.0282077937477274 -0.15339021483010357 -0.09742269832554835 -2.4760980712629035
Ni 8.855343719552158 8.210901528557955 5.508234789532172 1.2339834787576685 0.7922041922903518 -1.0176452023401183
Ni 2.5909930810108763 2.132219559797646 0.9372954794268726 0.6335213616027412 1.359105699881014 -1.0426406959431913
Ni 4.739689750609899 8.672455214529572 12.705899711566316 0.5014592188264525 1.374941124251374 0.6402532810099361
Ni 6.376799035802191 4.398721077425405 7.74095081829442 -0.008046781563876464 -0.9072039802677151 -0.18729689487987744
Ni 1.5377925328068323 2.750046306838221 7.195562190755216 0.5693137165765809 1.0803659784081072 -0.335504537067777
Ni 3.6785286639810053 0.8186287803230364 8.974810179384823 0.23686287873346304 -0.819007428526125 0.2844632542202456
Ni 0.3443447199227626 2.4639673532001556 3.3692974249566756 -0.30933739175410596 -1.5198279295961568 -0.27651288902491733
Ni 4.286559963856194 7.739450456046477 10.332923444021834 0.8356290962432061 0.8480444391884234 -0.232793850870412
Ni 1.311468587042374 2.394268622707383 12.227081202445111 0.029789058336974504 0.24940214885105438 -0.6398429329453948
Ni 2.7255530553168277 7.039117686192825 8.59834158240048 1.8763581769859812 -0.11858107757071837 -0.9079246604838235
Ni 7.183982804536533 8.176612829871177 10.72740472847577 -1.166634459889049 -0.7829975860904193 -0.49790544003692316
Ni 4.823882406709731 5.6798024636586035 6.124479622825223 -0.16136706238799306 -1.8378448514021317 0.28017773947101426
Ni 4.682529563177454 1.1268656470854495 2.501259556547578 0.16524788549963798 -0.5881079664649483 0.6451640880479921
Ni 5.688041018559292 3.7844714757072886 12.047391740337844 -0.3181002255484005 -0.20911861874065923 -0.9839812344287697
Ni 9.192633308039719 6.678270834985861 0.752044761081244 -1.2509309052452842 -1.9856040931987031 0.5633528710074556
Ni 3.3907630770561847 5.424815019235171 10.604071986185774 -0.31198562801023044 -0.34676108381820275 -1.5454862535942093
P 4.710785304338531 6.240960185707381 11.98194758864699 3.206852640888206 -0.7383987164341218 1.1976347649253054
P 4.667461070186993 0.5414926899911173 4.755759102913378 0.19929057690664387 0.09796931485763773 -0.5026645519884634
P 2.470537809245811 8.302313345813733 6.170541392542186 0.5636449483265776 -0.4147040275170793 -0.2073784961211009
P -0.30701359426872254 1.073486483724411 11.616329974714633 1.4356217299608824 -1.6205164431571704 -0.12701815259447802
P 6.672701238253225 2.4909534857882356 6.074538596548725 0.3715017810979924 1.5917856508813812 1.066111525371622
P 1.4334992855038589 7.88385221359712 0.08625461162896964 1.5306165355712285 0.8052108889626648 0.6574573035930483
P 3.3829137452216713 4.092643471958673 1.4340562451771226 0.10202651564614687 0.8143123370433007 1.1612834799897804
P 9.115733950822724 1.0652386616078615 7.903197526707565 -0.03736172847790985 -0.5177384156024503 -1.0063714291985122
Ni 1.1224173834720295 5.310976539595067 8.53221907050858 0.626872745937972 -1.8236148238456786 0.9176038354448004
Ni 7.897910580058699 7.18275026482698 3.149487405221119 0.8649856950284522 -0.7407602746877631 0.6994727287928857
Ni 5.3883114559575445 3.445013358708185 2.107768937469215 -0.192502607450533 -0.21369801058122548 0.34166901400727606
Ni 9.307342905970783 7.987858177208393 12.142105466604999 -2.024844012535932 0.7621215139723584 -0.6187609154641149
Ni 1.3440521180106744 7.082840410626399 10.47441807595679 0.14565247986621369 -1.373021281520842 -0.00276702122217588
Ni 6.824164614290171 4.575826839750544 5.107243285935679 -0.5356584904159807 0.3881640722450218 0.39743367047240585
Ni 2.2858514643461345 5.711440738609053 6.28713316201468 0.34119387414307045 0.11218982933239388 0.27544228166855794
Ni 7.832206019602143 1.3051390786091117 9.86071060636656 -0.8603052588336474 0.6943274371465203 -1.0511914137266798
Ni 3.496891233099694 5.3833442282558925 3.8749037482465285 2.0854204885674084 -0.8821390668792872 -1.1974601870206536
Ni 6.894400843302899 2.108152600205872 3.9754641610005734 0.3715480609548956 1.1315772111745994 -2.1522912822480285
Ni 2.5634601826869794 0.5111851872383499 11.349508295636332 0.32660723457814717 -0.674367963305458 0.7007485101815157
Ni 2.67009803560286 4.2524936783500875 12.894365227094225 0.9710658119186826 0.729799404800885 -0.055583907912891375
Ni 4.081596950652013 2.9109715102695453 8.111221501310732 -0.9513007134766133 2.251657220342877 -0.38254801160982504
Ni 7.600386614831939 4.073506671205106 2.933298086722569 1.8518738186913721 -0.12157461298140351 0.22051091973800088
Ni 3.7064507853710764 7.707487828540883 2.60196917147699 0.9583913017748075 -0.9411543690712307 0.889984531065635
Ni 9.085096535185293 8.551907270605893 9.394600230355946 0.6844775409356341 0.5055896960550583 -0.7233917015023283
Ni 3.0053859054643826 7.31220400319336 12.316261474121491 -2.742486213148993 -0.23679217339652764 0.34139596285154755
Ni 7.79537810376937 5.448798573884193 12.922875816691489 0.4324873196424293 -1.8876250081490524 -1.573704110789322
Ni 0.7414486264654433 3.9491035654831297 1.3143608851126831 0.23404726366153886 0.1294416744343061 -0.1727789037693605
Ni 0.37158106733909807 1.2804326811229092 5.651832152746055 -0.7447359715060594 -0.8447043190715967 0.7647674362356377
Ni 1.8501718450592426 6.938725936767456 4.195613360836654 -1.1621082898839212 0.6775016238384332 0.285006014097593
Ni 6.906513094433607 5.715749993984553 1.6367765921428719 0.343926185472569 0.6880392901449635 0.11232995445468397
Ni 3.776529471714162 2.8369913260488566 10.611125264177803 -0.03716092532101342 -0.3628726446680847 0.4896421715868664
Ni 5.681331554275717 0.9194829638198845 11.097933040093027 -1.3327390369620273 0.8108490610850486 -1.002966517282021
P 1.8008239205978658 0.8131120067208097 2.331349787338731 -1.0587702545152025 0.9186703290361017 1.3705766766350913
P 3.059867867512914 3.862102942977326 5.669193354940598 0.3195410717599852 -1.4492241512356654 0.25279523369300333
P 1.9892449534896426 8.911855201874312 9.549306205222758 -0.40093088499238694 -0.5300820247694678 -1.0516058755562792
P 3.8622141495676616 1.6642251588024306 12.623868170205336 0.08847397377269278 0.318121051484007 0.04568490363162454
P 1.855787777871185 3.9823636032093046 10.34896962828566 -1.3588940980908402 -0.8429456845092773 -0.24185776084489316
P 0.27074819843873094 5.616377638303926 2.706950046196871 0.034967517214120426 0.23968080779823236 0.5868057027137571
P 0.516617629176239 4.445344440423561 12.697396114291994 -0.5983689820713243 -0.4211302427583973 -0.05489819469977642
P 8.066027142998387 0.519903783920653 3.118928760918511 0.5752815041242415 -0.7613854071372822 1.5010542485330793
Ni 6.750175162853621 7.465233538710865 5.746315125338264 -0.874902697031848 -2.45272905751966 -0.28400354097500763
Ni 4.254143242773397 7.452991546558098 4.883784763315532 -1.247749422193509 2.215029027596882 0.24842410120850117
Ni 2.0261470070493046 9.568493048941976 4.393477686691086 0.7123652684848377 -0.527355112756608 -0.18707963666274877
Ni 6.101340311541166 8.461477778231412 3.4837058383722486 -1.3068878802268782 1.5060529872992514 -0.2430921474726265
Ni 8.110444908621554 2.556037142782085 12.850785217784917 1.2270561555102157 1.1664789081477913 -0.6161491888728807
Ni 5.864553679069308 1.5743795010272108 7.944390301211006 1.2123939255123506 0.03305975866844629 0.33718475298367734
Ni 0.4436244034447773 0.7107852626236023 0.3363776944468104 0.4607802530498516 -0.28163401230156654 0.16613697297281066
Ni 4.915183017375173 3.0846020666467013 4.748393519746823 -0.28951110105679817 0.10385611265571791 0.4426629746238505
Ni 3.3339179749630237 1.5311850078977316 6.169727730989566 0.10579986664565005 -0.3743276805825618 -0.06030213932416713
Ni 8.906322674005121 3.4225310930286916 5.6983952788411125 -0.7528226051689357 0.5405487286287465 -0.40018449374466564
Ni 2.9583177161048835 2.7141914486708845 3.5143321333506443 -0.22740764685783416 -0.704864075011786 -1.0707629081007044
Ni 6.051612431229476 5.420561367154839 10.066713401190377 -0.12587478301865418 -0.18046238845654727 0.8270956048508982
Ni 0.9054514722843031 7.320192343265793 7.198004102134666 -1.9357375473855631 0.5623583683046702 0.3196259181643076
Ni 8.612672405008382 3.7450116705699092 10.584675703388092 0.32671213558712764 0.9121222435049389 0.4741355913108351
Ni 7.361171971804424 8.869541094251657 7.5406047320323335 1.0464456715115786 -0.15308759598802021 1.5442750068949276
Ni 0.73865548760485 8.111436500718714 2.364526420122154 1.3936677541265996 0.9877810677908343 0.4658422409537913
Ni 5.7592503052374555 6.75748699616818 8.00691806007031 0.5878963646747746 0.84774182034634 1.0762717537340756
Ni 6.548464942416753 7.272336440558085 13.237847169220302 -0.7181152835947374 0.22028851931454965 0.2630228249582825
Ni 6.885142894657469 0.4449375679323223 5.43142532430903 -0.04452713587809751 -0.7079640540933485 0.578147769928443
Ni 7.7017699563544655 1.8767965562287328 1.4924332180521556 0.22812447041920064 0.6795425655278619 0.7859080748689949
Ni 8.491725970802667 3.2136387802993225 8.17003310660966 -0.26521854705802067 -1.6540073758257643 1.0361388902689317
Ni 8.272565582898986 6.26376680394202 8.791010707043073 -1.3667341629605496 1.5380549941271446 0.011131848247103409
Ni 2.4355355349377135 6.1342852639280565 1.2567067550748308 -0.2125854942433371 -0.46386120596802055 0.2997975705844708
Ni 5.103863532311067 5.205849242864579 0.4170534421272826 -1.7303634832890005 0.48720862244470936 -1.193219923687061
P 6.776355047661769 3.689593719719387 0.337092196789716 -1.209818965696323 1.1761290296430456 2.595257647044911
P 5.467397876117806 8.450394188061308 1.3730205080714852 -0.28235109297324923 0.4813969008589387 -1.2619262279145234
P 8.651363031229272 5.001247651078987 7.2245342877023715 0.4120781598584581 1.061264738802282 -3.1036891834241382
P 5.751252697949161 8.911604987046058 9.113116889063495 -0.21040237054908928 -0.25139912467642506 -0.31142769862423136
P 6.084121824470886 2.851920810801397 10.051494779302967 0.2590766958263409 0.7202660113891531 -1.0428543546158942
P 4.248286362349061 5.178316344540682 8.22127617671467 -0.3202401547095388 0.36635597523099483 0.6452111392358437
P 8.122835176228103 6.1793610018773775 10.847184420204549 0.36446467174555297 0.2271885888684926 1.3462676675760816
P 5.852330221348265 6.319981735356613 3.998331942859896 0.7515877043205701 -1.3854062854487559 -0.38113441909175005
