# total energy = -340894.486515568 ev
CRYSTAL
PRIMVEC
9.06792246967615 0.00000000000000 0.00000000000000

0.00000000000000 9.06792246967615 0.00000000000000

0.00000000000000 0.00000000000000 13.27182113402382

PRIMCOORD
 96 1
Ni 6.233271744498537 1.8707940091995447 11.31651057399615 0.30635851163144007 -0.09592503073409932 0.042046535548088876
Ni 4.5839980124111674 0.24068986513522686 6.27270088482107 -0.017359574324370103 1.222973757910726 -1.7197710524851348
Ni 2.4889814852144574 1.5676170905795255 4.739712376428125 1.0680941030192896 0.5073827833997391 1.2087136484472862
Ni 3.4749820309507675 4.504200295002057 4.805793047573058 0.44814302390181526 -0.042709365943068386 0.021254281393085973
Ni 4.910805936891203 4.8318152645786165 2.6889772348477683 0.7181566783556342 0.03734244520420021 -0.29637620360774763
Ni 7.104417984700327 6.174357452452289 2.698081428970353 0.72782196935954 0.024060126272997272 -0.9323966774832587
Ni 4.918631553950755 4.448251213591353 11.469786573670914 0.903316986508483 -0.5265819820360093 -0.5962259675863926
Ni 5.8249250615022845 8.012760842721683 12.405264282780339 -0.4722386313984383 0.001280666484636504 -0.11051269874028709
Ni 1.826814585400206 6.569183863101157 0.3671529249682865 -0.6629034143092842 -0.4593751451722089 -0.6150387294175215
Ni 2.718835183042424 1.478905605418921 0.5028625453061266 0.9199921331713189 -0.07677725416105487 -0.9280566553470081
Ni 0.6548382049040191 9.129765663845426 4.591426454468161 -1.0905737721790445 -0.5933041659539072 -0.01109148192747122
Ni 8.502483061630361 2.500153165651733 1.3137551613183358 0.03615665242621515 0.08323715085378568 0.6331722057934386
Ni 7.2989611925747635 0.4524340150725425 4.825952852725777 -0.5359040307678835 0.5172272802939866 0.14621709412043205
Ni 0.7978239262019808 7.511758128306534 2.567393624075827 -0.028917711475614713 -0.1323411074692882 0.039150187836900316
Ni 7.802330634744886 3.8125263755913017 3.621919552844967 -0.31559571395899194 0.2437354374835802 -0.049620491240604865
Ni 7.642200192503129 3.7219468984095294 12.510390521128894 0.6394924915845116 0.21039748545308282 0.28931492588559204
Ni 7.986799380796422 8.6484766127993 7.2510326885559175 -0.11156942213957557 0.14708252744452088 -1.1268841765743045
Ni 6.690358510571377 0.8432079711861687 0.4922956952951226 -0.14693186079926954 0.1517195119959 -0.5030273346445208
Ni 1.792610381983483 6.402905369449925 9.296897448997589 1.2459535066353509 0.19674724165949986 0.11834222208703489
Ni 0.06528904151654423 5.018124798884022 1.464665340030368 -0.10644727042166183 -0.3957652816310474 -0.5195890956579438
Ni 6.4214220670578115 1.935656858361745 6.692342571999685 0.46265227326158387 -0.11816944395459648 0.9879875273746855
Ni 3.3501620786625415 4.162593521111606 0.4966881969215968 0.4591977390540801 0.38747193127400364 -0.34737917701817594
Ni 6.144523987648201 5.841138506812227 4.929127674166782 -0.7134003946175714 -1.3987958193817847 0.22003552276347912
Ni 5.472581867451334 3.019772324821529 9.186568943549306 0.0733620578319188 -0.7087099311204376 -0.35474693023715675
P 0.1776115831078123 5.6453167218747575 12.225099172715435 0.8060220720100505 -0.2649303263936405 2.348774985833497
P 3.896404658095195 5.918451613474734 12.585283399294072 -0.4669115627585701 1.6410785835792383 1.1329321825405974
P 2.4170819282443627 8.590423773384172 1.514155340292152 0.06095005732081117 -1.1430381606263476 -1.1884407571308628
P 6.2462116698102195 7.866585933104085 5.919112665020089 1.0486897303507485 -0.4249254481347714 0.06647124424935648
P 4.648081020244142 0.9920579179214567 12.61882111041198 0.37726105217927286 -0.5950147208871107 0.0629478044771303
P 4.0562358588966685 6.088457023245869 8.359959804376475 -1.4786383427317245 -0.22168102878670207 -0.41391624150846135
P 4.586682117451292 1.2048185819634953 3.9302642804594696 0.39457460375705594 -0.34161502084088907 0.37892147060083126
P 0.2806385974131624 5.665365898373797 3.5893901947015925 -0.07632345445308791 -0.2018503672140201 0.20205836945976816
Ni 1.524045723289665 1.1561329064215056 2.5394961607111535 -1.2424568063360022 0.9552442715053936 0.648642790625212
Ni 2.0333455867308743 6.5914274768289465 4.913533567959004 -1.7903198092379748 -0.7852359885026347 -1.1749938875973378
Ni 6.041938581165331 5.627108333629588 9.19746495914462 0.2665125832790958 0.015333802143592947 1.2175682706244384
Ni 8.619976132592841 2.131451439531915 10.347375457192703 -0.03412393826690253 0.7699263547287578 -0.3538390737109068
Ni 2.490359809424251 5.086723632088558 7.047987396608438 -0.13873286992824493 0.5514262947731986 0.5686249180396723
Ni 0.5724896809145479 -0.11482982214395203 9.272742317220954 0.6976932682949597 0.4745595662221311 -0.4761901598470185
Ni 1.5850728412627684 0.9623060644192647 11.508035977284932 -0.8804475381094772 -0.43383869146400117 -0.3598150887886835
Ni 4.054204644271709 7.084368808201288 1.3531280805217851 0.295595102467349 -0.16974371648746253 0.8760352679743946
Ni 5.491932813923043 7.681817945612265 7.9503381714861625 0.44674460089239193 0.5064219621483667 0.9974792689152047
Ni 5.520043373464889 3.1198640526353643 4.645376058982421 -0.6376322984473213 0.15529745915514542 0.5025696782818119
Ni 1.0157251954712039 7.335713482195118 7.122866672889967 -0.9394132180104079 -0.3353451286717773 0.15293641512213663
Ni 5.278954519742617 4.693121390968125 7.141726137965816 -0.03642430426530501 -0.17586936976922615 -1.037927092517606
Ni 8.290683597366204 7.07073972078471 9.138829959109305 -0.09209845789915751 0.12372559788613531 1.2228372323328618
Ni 4.689775327590401 -0.012608946142882604 10.357793593275808 -0.781315570402306 0.8996729619979925 0.1567683872737171
Ni 8.156777586800258 7.090734489749152 4.817909605527836 0.8833444000412981 0.8366989322686171 0.15656886966840133
Ni 7.3489163772573525 6.269806403980503 7.20071932093723 0.12690759515854272 -1.0608955283883212 -1.7822671141368274
Ni 2.436006682361728 5.371102747505272 2.5287334435755997 -0.4187069780288853 -0.07854025959874861 0.3922955779148921
Ni 2.3388166897264053 4.85657976074274 11.30099535871354 -0.7019666988593329 0.717894425833183 0.9895592427371795
Ni 1.2080648981944568 3.598913326840575 3.9071972993747774 0.01433981366143982 -0.43283159035572555 -0.5830403221340539
Ni 3.5783926183750276 2.7927750225599106 2.800447391730348 0.12167025801900336 0.2149848477134491 -0.2518284989043598
Ni 1.0266429740803593 3.3306569775094736 8.281868669969228 -0.2813416778721284 -0.12745318324936758 -0.14901676835275626
Ni 4.017316335814862 2.726706139714141 7.085148649530514 -1.2742909201274635 -0.13680120012317085 -0.6379187193394885
Ni 4.057695794408358 6.8772302560676195 5.989121560162934 0.9063951112131744 0.1469470303079211 1.0516141030863955
Ni 0.7354910273985469 7.5765393661668385 11.44480898132962 0.3123198714211976 -0.6386663961387904 0.43530859114130843
P 0.2205590773342924 5.419661472133202 8.044210211303303 0.4370877945289182 0.28270821920235184 -0.7317930381921461
P 8.55723517727993 1.4671717137908087 8.084503524633687 -0.2178889087341215 1.1378985254069371 -0.13867296322458697
P 1.6683617088085265 2.965074616706558 10.415924416823858 -0.1742346623792806 0.5684385130604792 0.0024942271767634462
P 3.986131750568279 6.558075658120912 3.800466038755607 0.14777004042984876 -2.122220173894261 -0.7501221755186372
P 6.927276119974537 3.968685067807469 10.450072399121497 0.11507872084441471 -0.19240619108198476 0.1861725514674471
P 6.458763771636303 7.599127560947075 10.215506102005175 -1.4208417434382303 0.5415450311037447 -0.44826669396387314
P 2.2636073410683197 8.508594841350103 5.855965466782185 1.0642842423548962 0.9725493384427445 0.6106177175316903
P 6.902928748242325 4.207026341032588 1.377375705107235 -0.07959544033614033 -0.537610471936029 1.1344707306723105
Ni 5.398406261950594 2.909587999339928 0.15685873582798407 -0.2560944732695654 0.5409770744154168 0.8265132499848669
Ni 1.4931694474057995 1.1669418699614666 7.118858651174646 0.205111297353479 -0.32719087499575905 -0.5352139466793944
Ni 6.646524173530964 0.6147208092688325 9.028315561251148 0.4186570986275564 0.5050952729171431 0.2180452318063277
Ni 2.628953935887982 1.4224215165846774 9.224247068050053 0.2450060766658877 -0.06495815003893973 0.5309988801567822
Ni 6.128092912199872 2.101318733287543 2.6004271587064682 1.1149460303758219 0.3594258237700649 -0.40829992376294844
Ni 4.1980218940567635 6.759338196518092 10.551748292984351 -0.5390456617206587 -0.4021130782259462 -0.17890584260270478
Ni 8.151046659822695 7.399869033407556 0.1889165620048506 -0.23202971901087782 -0.7596236872511692 0.2837220051788468
Ni 7.559110819250893 3.901972362468967 8.243221184560408 0.7543012465969913 -0.6207530061934793 -0.49510782268712794
Ni 3.1673799661835162 8.319437979400783 12.600081341912245 0.5553847652003144 -0.038441848915966054 -0.7377453991208391
Ni 0.009256535219456716 4.929304498654224 10.202778366078423 -0.23599256031336777 -1.6826142409291798 0.008119286673024726
Ni 8.797380967069186 2.363327284062408 5.85587297397337 0.02437920017531285 0.29658214897096663 -0.17124446940270507
Ni 3.44950116891445 2.492146190143523 11.581787204015816 0.9450727302890305 0.5159594693251565 -0.23906554281173664
Ni 1.1464483652632182 3.0255485914112565 12.802582558513754 -0.9533766221690355 0.6226929035286696 -1.0414677586810126
Ni 3.1829677248455908 8.425986067986809 7.935872114829031 -1.0281476445333388 -0.6002859965883791 1.3271988238700885
Ni 5.684109294042504 7.94906775555332 3.7586329921961243 -0.6110519768556315 1.0566439522008189 -0.8168096495438578
Ni 3.0423695875242 8.53292407723745 3.674994102844458 0.6522310221971025 -0.1226174524236211 -0.1808395692903079
Ni 3.466113602811437 4.105048485352718 9.294973235857336 -0.7957582281901973 0.5557300643548752 -0.3590026201897172
Ni 7.218111596163443 6.009747456528702 11.5092964185031 -0.386062966741619 -0.166751466628358 -0.1128007234435154
Ni 0.5110517860552365 0.16729863492492816 0.35605378791047393 0.6540073973712349 -0.4079471684092201 0.4692412393330112
Ni 4.520341196932537 0.4653204396418704 1.7562072073767934 0.4049729162722445 -0.4698282221847328 0.025954515082232718
Ni 5.902247236087225 5.875515000755174 0.4255512522281054 0.17757375405484258 -0.41920114405648445 -0.38115781613051775
Ni 7.960067145464371 8.853729037066936 11.038452707307377 -0.3664230810235044 0.9527371888128237 0.992115176389814
Ni 0.09556592772759834 4.964624056530187 5.7675749860757035 -0.09168888116556467 -0.3946059712156237 0.47034218570667385
Ni 7.998306574363714 9.038333801954964 2.371408616534567 0.353193726817424 -0.24865730026522978 0.5093825874385872
P 8.580421854940736 1.7261787822403993 3.4630033054169687 -0.11964422872791007 0.4821746595652277 1.172868870834535
P 1.797552399709388 3.1356966452031267 1.5690879075981343 -0.9666437715915869 1.341486187027038 1.0863563916635872
P 4.584841329197423 1.1332091985112522 8.408189363420092 1.143966843088204 -0.6068004006681291 -0.7700775355946415
P 8.351801394563637 1.489923131174838 12.534160266202132 0.08043284863577115 0.8061907363774309 -1.1831265440068013
P 6.357148632853747 7.995395771262768 1.4662975660682818 -0.9741233677980835 -1.4554973858388869 -0.11150128790580151
P 1.9663608437193867 3.2694394331652807 6.059196651139539 -0.36583969771620867 -0.7316143465224367 -0.09582938569649949
P 7.068499943943795 3.9175963928207738 5.943559783899062 0.06833323715875973 0.7086610801603731 -0.26576156404568424
P 2.423248115498703 8.307876378298895 10.34870209424463 0.9579614133262404 0.5011026068179821 -0.44903982468447184
