# total energy = -381162.1216520669 ev
CRYSTAL
PRIMVEC
9.34870612849994 0.00000000000000 0.00000000000000
0.00000000000000 9.34870612849994 0.00000000000000
0.00000000000000 0.00000000000000 13.68277640076492
PRIMCOORD
 96 1
Ni 4.633742209396183 4.071548426804529 7.119079800399256 1.9663511585063618 -1.3887870289955309 1.2789541299310876
Ni 2.8825613033248874 0.24315890757334477 3.1426329548799825 -1.8884960979000962 -0.8005692764255954 0.42026018144861815
Ni 7.069519505407019 5.336166581632556 1.360311509201583 -0.06715052970456822 0.07860685117062592 1.5131510317966135
Ni 0.5825805057142033 6.8541814119485895 12.822800106196597 -1.8550193062988891 -0.4924940392133647 2.5779505232250317
Ni 7.682373925684322 6.5975968277226595 11.136370207458452 -0.9640449005161592 -0.691229514947487 3.8302479698005385
Ni 3.9380021619328756 1.8993672445018583 11.987343647917267 0.48840829917976525 0.5552909199349275 1.6163913652452033
Ni 2.416116967342647 6.428001952606337 11.753792405475782 0.2217584189918568 0.2684815340800086 -0.6729613127659184
Ni 6.998833939520106 2.2619848519111487 8.180917978506837 -1.0234880342741406 0.12433700621788911 1.4245862980823272
Ni 1.142869956898482 3.2380738941921785 1.640660504019305 -0.48184350147805405 0.14709384029843053 -0.0016586186493455306
Ni 0.16925925657177324 1.9654158522245209 13.683186758702965 -1.6597568767150317 -2.1207271342885026 -0.19383700999124034
Ni 0.6208587823342233 0.8074832602570009 2.091275611042449 -0.08803302958053225 0.1821066089281896 0.5587140866838636
Ni 1.5625707629991492 0.38938295261947886 7.5772748382279955 -2.1740803530986623 -0.21697282467775533 0.7349806918915084
Ni 4.557774624632651 1.405512502597064 4.350301597512094 -0.47420166866208013 -1.248863224082978 -0.2974884628353199
Ni 2.361483129617065 4.079822031593567 6.7816214305134235 0.17891972655977573 -1.8727753447307296 -0.29239510747281255
Ni 4.532598559438435 7.29023310480183 11.626651873939098 1.8093338884466323 0.9062323603830651 -0.6911246139385065
Ni 3.673957310337846 7.392461204652831 9.478770783080662 -0.3605427109833274 -1.127324863656149 -1.0987485946803528
Ni 4.268432174665714 8.204461759637587 5.711204879801977 0.44200040133918717 0.43261484635922914 -0.8664306550050949
Ni 1.46013699161667 2.4834556964900414 3.810352125920483 -1.0706454086862336 -0.12243387565790527 1.0681843487402507
Ni 3.048220373225182 8.995016383112677 12.49200549393068 -1.3220095663596652 -0.19692053401257054 -2.6838588904240877
Ni 7.987599827105018 4.187706098560238 9.501032856622059 -0.2513672429972252 0.34781575033496226 -0.7453409520799099
Ni 4.476768087347884 4.872096816968299 3.9097849626845647 0.5456181727318539 -0.5500163017995496 -0.5259564326368684
Ni 7.1329691728682665 0.5753156263000092 1.0111279922802567 -0.04346038517647999 -0.3744775758968648 -0.6980074571012689
Ni 6.274449456945369 2.813558504513709 13.38409454327333 -1.0102075151151504 0.4804512491162177 1.105863094237947
Ni 5.030454547501092 6.592211973080302 7.6195412728175125 0.7471402100721778 0.5207136961806903 0.9394142464516724
P 7.111607379712388 5.73963803415834 8.006229928374617 -1.1002508902574923 -0.3518187008467683 -0.11666046350923778
Ni 7.846069767329591 7.198129653523179 3.6414378365992355 -0.5968954828495914 -1.5766318259590781 2.100673815182053
P 7.1113082211211465 0.5715172470618326 10.306756690414318 0.23070817198597685 -0.4364020813158032 -1.0341529701871544
Ni 2.36984087275989 9.212598166005423 9.873833074580752 -1.9574754532832868 -0.11739682745463006 0.5499980469671044
P 6.827014072381419 4.619859381021356 3.4885191832034628 -0.5014193667274526 -0.4880717417759529 -0.3351677225536486
P 4.322664018034315 2.358108246759615 0.668399756835576 0.3922667815594857 -0.09886251609586844 -0.5835357737132336
P 1.3778403329071727 5.515530854494128 5.2603298787526915 0.3037323868625027 0.7960850154019967 0.3820163074760711
Ni 2.5535803400183767 4.967070320981679 9.25084278728393 1.1491856682849821 1.008698277559476 -2.8313026578627687
Ni 6.555686578830841 8.739123603128995 11.982157920712206 -0.5250290357265925 -0.10465675418014235 0.32858826956391796
Ni 9.09754364155492 8.588095258081632 0.6435490266093365 1.7017792438934047 1.2698953621629292 0.5149084023528229
Ni 0.3543823323147547 7.49052913034437 2.810360312199212 3.293466935744341 2.4877392550462574 -1.264242534752526
Ni 8.451351735766078 6.926961087974199 9.229935341238498 -0.1857210657523253 1.525883134651301 -3.613998396442053
Ni 2.2161855413331835 4.7666714596733994 3.268664729887875 -0.7481341985543309 0.0024949985077118322 -0.1749499432787503
Ni 8.829759307569365 8.644711021474194 6.611722722452871 2.4442942964887453 0.9577387557924731 -0.45429053156044985
Ni 4.608416564906347 0.2274091426150476 10.320603058835838 1.1433657191690954 0.6903733375947787 0.31236460861620396
Ni 6.159600604026345 7.537235265402038 2.164930325947441 -1.0151381196475484 0.2745331395907272 -1.1559271007738736
Ni 7.032900624097795 0.19059954770390655 3.470868826320181 0.05697564605409543 0.35421265500024157 0.28942111244615315
Ni 1.3046773599365347 7.266739806683352 8.469173173968727 0.6368653383743096 0.33469001158628164 0.015516093357728116
Ni 8.755820392002692 4.787575166236439 4.6033645241967465 0.18825283103524354 0.09431294905197306 -0.4431432566943787
Ni 6.012695038314537 7.712074764571073 9.70891442219378 0.7353884688528883 1.7275303847155796 -0.4740098643662482
Ni 7.827895882911635 2.7589620616120323 1.5805389758856256 1.5908353711529701 0.8549691913327145 -0.5097592540517156
Ni 5.866425184609119 3.109800299491166 5.0418160298741075 -0.1837076348667223 1.5426037898400917 0.9477587617616258
Ni 0.6968151486505841 4.9055932304814345 7.716155474729736 -2.9884541395075175 1.702533605560926 1.114626956473506
Ni 8.143330571258465 4.796690154563347 13.136969914624832 -0.8824859086957447 -0.21436855428568888 -1.2105267903966248
Ni 9.19454581476516 0.3008488372825845 9.35435352959488 0.5586258978454315 0.03295074389440777 0.548283635379159
Ni 7.309323162405466 9.047387833991992 8.145178810429982 0.7830148124816 0.37538954618817283 1.9072201566721607
Ni 7.595645980342052 7.279874738580074 0.04558802982290046 -2.0552357374539123 -1.183090291452227 -0.9481557400897285
Ni 3.6354125955975007 5.726905096618601 6.022638321990945 -1.2195415923007256 2.1481374079806552 -1.6589431225644848
Ni 7.689291968106795 1.7121313612082298 12.050955047991904 0.8056130094970899 0.7738958808994671 -0.681813878060542
Ni 6.4121185011525785 0.9362822522338823 5.860921601400863 0.5321270802239546 0.010055841574105263 -0.32296243873670827
Ni 5.292919467786124 0.36466684375929836 7.87490304630174 -2.5735837616159034 -0.31812876479349084 0.058372526401622056
Ni 4.849145743796447 4.632854082328433 1.084480743982214 0.9928029464854577 -1.0509826401499833 1.4045795159430974
P 3.114166145182105 8.381619737888748 7.450339978222792 0.4218871755290799 -0.6864297795659985 1.383142943335876
Ni 2.8418476887980373 2.1330568477917944 10.018186443561026 1.9515338909878712 0.07755526997765999 -2.6420712649643403
P 5.911934685301819 7.588279200032717 4.387396327955512 -0.9537581738781703 0.7254267296544862 -0.6616248047071767
Ni 8.903866499843609 9.048070289528262 11.791063826462153 0.444699288327589 -0.08860458581328612 0.7230386890382838
P 5.04573033306639 2.5972294482217895 9.387369419620832 -0.8458024372317821 -0.44479853290961463 -0.22307790913422867
P 8.301033892372917 1.4963071350390313 6.769389583614013 1.5118510820382671 -0.44733878283296513 -1.0091857587188555
P 0.6927942702101711 7.551501390721895 10.864766927081572 0.9601962161940302 1.2995946889995746 -2.0160138158388117
Ni 4.008285733462809 5.052227683719929 11.054725153555502 0.9728732974410664 -0.9491160471204687 0.8535208889219622
Ni 4.076353661676355 6.511429804738968 0.03213524192298376 -1.0113136036951358 -0.5156491371735894 0.9468537334488532
Ni 4.935770853372978 0.4161109030057623 2.1114024401388565 0.4595643783648795 0.6251691329833039 -0.7717304978170322
Ni 6.02978447283924 5.7070390964189315 5.629067149094078 -0.09162228959368736 -0.40518708916557955 -1.014713373405304
Ni 7.5043932613072455 4.1021560901709835 6.597766039300831 -0.16396593346342084 -1.0535753405778243 0.8982922796003819
Ni 0.14885944526085718 0.5257375687664176 4.436599502379454 -0.2886407826367029 -0.21432613108352766 0.3567760448520436
Ni 2.7530817255529305 7.009351233743459 3.8818313969447864 0.7682836769190123 0.26899832581542704 -0.9705389928809348
Ni 5.769348221751069 2.5710811176060377 2.592489654291798 -0.24361151031120623 0.6433961975142919 -0.27691475244902636
Ni 1.688095838143125 7.841414111753386 5.724175274473516 -0.5449933946636614 -0.10617241949372037 0.8848158423805019
Ni 6.059382475960252 3.757338418940596 11.084663449574052 0.38482575190040824 -2.258424363863382 1.2403140489613864
Ni 2.282196754231941 1.207563002254579 5.616437982190675 -0.3265835804290633 -1.1902312733723825 -1.2179302819495477
Ni 2.0533684780496886 3.931504811279337 11.041151767348492 -0.11540370828400126 -0.9586065031094073 1.8174176938960311
Ni 0.5381021672906913 5.51927968559063 10.311230981094582 -0.10919577970107645 -0.6017630953545378 0.1899610719756019
Ni 8.272024857728413 6.337684104169162 6.288384638073664 2.7482398278033187 -0.46663851160284153 0.4096911476835202
Ni 0.26176376733680845 3.1202988963025673 6.013470980910571 0.10535146625432179 -1.5593735530992627 0.1776622000035908
Ni 2.357322955457605 1.1476284482404262 0.3781813331186587 0.48540885023180924 1.4215171722387003 0.4210579947595652
Ni 1.2318883352049494 1.6537673897980978 11.458120881562879 -1.0851582575904277 -0.4900918575297753 0.8668160633689717
Ni 0.8426297203749555 2.6791989022221157 8.662168795014363 -0.2734028826410259 -0.1937267096656212 0.1744552630305189
Ni 3.269111598033543 4.1112149862620315 13.274277163910757 -0.6758280927907523 -0.33103621688377827 -0.4662942408895453
Ni 9.313863349140862 5.342271286635089 2.4518299590427666 -0.7546596583776745 -0.6295322950480061 -1.1603655961612016
Ni 7.877668393529534 2.569389001824325 3.9205126027923862 0.9084309106962805 -0.5908425917872921 0.5109648443240427
Ni 3.2693546643889273 2.6778807346794555 2.5085728648366055 1.431108158361245 0.0830332623730957 -0.4396480990569267
Ni 0.9405452621590817 3.8998687902554883 13.046458547973947 -0.04332128849545443 1.414540740920867 -0.12328671057650381
Ni 3.378444714426542 1.718881126923129 7.62779150584161 0.8371439902258356 1.5864259292313645 0.7105829797734343
Ni 5.807846192961532 5.519148803706962 9.86069814268403 0.5084523623148339 0.5611687188719432 -2.2780663064640247
P 3.5170860240552875 2.860573146868595 5.502405271303382 1.398238661326734 0.8350048323956459 -0.4556935825555635
Ni 4.865823835258192 8.616954713430514 13.6195071130747 1.5745093802994368 0.8966339180613526 1.5237704591836723
P 1.6088468575819062 5.344673904071002 1.0476356239883629 0.6341538529804176 0.021085102805073364 -0.852622802587725
Ni 2.308896658500295 8.203246427860666 0.8440058498946691 -1.1487380392246023 -0.8993690576043285 0.5988250957721365
P 5.784586612492461 5.576222653692361 12.48345329770355 0.8030820155451202 -0.28959800434364963 0.3773577256581372
P 9.302308348554137 3.438145550791287 11.004632917193215 -0.724640743418081 -1.068836894722585 0.6121380108309588
P 3.973265480875534 7.840030503268892 2.132255663689624 -0.46736664801811767 -0.6141524701578261 0.09542957915491952
Ni 6.767444117900342 7.898142059617663 6.273757652703122 -2.1132393105518896 0.7294044833553116 -0.1547809245300431
