# total energy = -381166.6460383851 ev
CRYSTAL
PRIMVEC
9.32375195128919 0.00000000000000 0.00000000000000

0.00000000000000 9.32375195128919 0.00000000000000

0.00000000000000 0.00000000000000 13.64625344000091

PRIMCOORD
 96 1
Ni 3.8079975072461787 8.947967591405222 12.492517821306334 -0.28814430261625856 -0.5995203220669482 -0.09828633187742426
Ni 4.866103513846833 3.6883271490955916 1.6934861464271584 -0.6172329088553629 -1.1824410879040022 0.7708079860027629
Ni 5.747832102049774 0.18077543226133944 5.327101518224141 0.929149888411187 -0.22685485967815766 -0.2779146544684504
Ni 0.7468903501427795 0.29721044843465727 7.960023751701255 1.7933814788824338 3.3852897713846084 0.026781381858902262
Ni 3.504994211634353 3.5668386592863084 3.922738397663676 -0.6962717053570847 0.8973111466340353 -0.9016349708203697
Ni 7.036607735502436 4.561300734080503 2.261757648168375 0.9666535417835997 0.40980273356072006 0.024106149019584293
Ni 6.753743744417705 2.185888412613801 9.034311130064303 0.4446555795738471 -2.0382998809305217 -1.028717658104196
Ni 1.8614404871814567 0.7140017469997814 13.477804391662977 -0.3542211396406738 -1.0584097858519903 1.0896330055323298
Ni 2.2198548414990826 8.5879588754792 5.068968779573726 0.06375075999439987 0.34453656536305827 0.6902005594623403
Ni 6.830189187851806 3.83398280433739 10.450314955116472 -0.10439630142990408 1.268165523956016 1.3510090389158087
Ni 0.43836832566540374 3.160761284254557 6.294061321461125 -1.3637725092290645 -1.4729950284030178 0.203193768615792
Ni 4.887529496163159 8.6248249912663 10.40434046590691 -1.6097697461636276 0.7228425138670777 0.37950176858433354
Ni 0.7760158869398815 4.831586983587895 3.201165763962042 1.8781353234910623 -1.5285030887726514 -0.3997345506914406
Ni 1.3177165599582665 6.489657790054072 9.496564111473717 1.6700490026696593 -1.1025911083548945 1.0842771405370553
Ni 6.198309184562094 5.52533940578585 6.875500758287351 0.796101727572545 0.9511163653799489 -2.0364944522906665
Ni 4.65344737604406 7.040337236340788 8.543087386142581 0.4070637373630022 0.2605661358876738 -0.03779624491216717
Ni 2.1736742973682013 7.035237143944343 7.215975281197299 -0.3946368244535591 -0.6665538665776779 -1.8773040858390186
Ni 9.009569621502683 8.047526232745856 8.95289799151352 -1.3907891470272242 -0.871669277696215 2.0940249424069677
Ni 1.8177307373559832 5.26825558924622 11.603409483319506 0.03297542648475611 3.8293925637787787 1.9842599204659825
Ni 8.795878547217267 4.293653106416245 12.303721165116912 0.4729343719138822 -0.7563838401576329 -0.1599691535992019
Ni 7.041334877815046 7.759226494189228 7.629865960485396 -0.6831811907217138 -0.3525851466991476 -0.1105065280927
Ni 2.0391325546246897 3.7445773454900206 10.316185322215599 1.339052380774565 -2.9459607462299973 -2.0273153568945603
Ni 9.16136030562357 5.9552016724141845 7.8324310013948 0.4062913779733519 0.09192259444292557 -3.210621363902019
Ni 5.907324205401854 8.213955207657268 0.039854378333828225 -0.33907374247627414 -1.7065998052104996 -0.6386414564381259
P 0.7864174647780425 0.9017597372057233 5.712758011415501 -0.30794873893669544 -0.20938601346943292 0.5136452193696832
Ni 9.305897110613861 2.976029783978937 9.769325817162564 -1.6212119265622982 -1.1409540244038092 0.185564485569803
P 6.504501203390709 6.099803743669148 9.109992958201751 0.9994726451961496 -0.9524888202474435 0.5263405554491645
Ni 2.839585995807866 5.900583132636534 4.295226955770029 2.033234807702789 -0.4749776275961562 1.8226838273909771
P 7.126302230664778 8.92851824453322 3.3370137643741864 0.13490629709330312 0.045849454233946846 1.8722981479839946
P 8.955762248157376 3.875790508735304 1.2130126886719816 -0.07328441051644798 -0.3121913162631333 0.1303474740780271
P 1.4184410538500307 3.7251932648826913 8.268851595247375 -0.11171468946818824 0.14535114657571097 -1.4614795715642508
Ni 5.041688413316398 5.854672977316434 0.9641337739767245 -0.26360877936873955 0.2699732881341867 -1.5565579380273387
Ni 6.774144114003486 2.063933735199724 1.7821457051068572 0.20391187772873912 -0.12142626032899731 -0.4897249611086598
Ni 2.1985966867204816 1.0888277697565705 9.672587227291789 0.2979980554818868 1.5580967432693682 -1.4339481989132015
Ni 9.275082109936987 8.22412742119387 6.592968692777233 -0.3728989185558352 -1.3535233206972301 -2.2047932088014868
Ni 1.8676874010856948 7.293579667016916 2.8385846248327686 -0.623867383452745 -0.4757394454628452 0.37493240404609623
Ni 4.266325189023227 7.7996542832769515 3.7401243214890294 0.4928478230083576 -0.004816961772669124 -0.4024342090107908
Ni 1.58238991070394 2.394013206897978 4.321631821705554 -0.15279500444826588 -0.31046610604191044 0.00587111406879634
Ni 2.5732250459328387 8.310260243055586 8.958520214027336 1.469519925370224 0.9618761749996144 -0.06143419604608129
Ni 6.199940841178872 1.095718022555424 13.307321449340275 -0.07100589889491642 1.119327447272969 -0.2510216867323483
Ni 2.474803518808756 1.8053860895810414 7.141194127512313 -0.2511255593000643 0.6489114709055663 0.419650058668445
Ni 2.835315717347954 0.1605531463405908 2.9603229911982214 0.5434198795289544 1.753222647275361 -0.88933866995152
Ni 1.5847767912404849 7.368999497720468 13.23143449865672 0.7571266318609284 0.09599265074724114 0.037872092455425097
Ni 4.197907496143679 4.546130989420511 10.2008607649169 -0.2622013574982517 0.45642300452242035 3.3208566406112037
Ni 1.8320986393357306 3.35928261387998 13.03507907664317 0.0022985662261895898 0.166717528066629 1.7406489243754086
Ni 3.5255997037662423 1.695309872337112 11.389668060772774 1.7634168141995434 1.1402991644286298 1.3477208550828401
Ni 3.0812762976372015 5.422116146332391 2.1324185590943627 0.1709621622755959 -0.7693928508227911 -1.3529936734460053
Ni 1.3475339191608826 8.592919111594208 10.958528440107305 0.5319193350885226 -0.4763048310480119 2.0718340081322255
Ni 6.858346919181355 2.968645372319002 6.344088845706767 0.6231742140404622 0.2705111629155276 -1.5491225647952158
Ni 5.087253589808951 2.0926975104155057 7.145410328210069 -0.3606350135868176 -1.7157750439518644 -2.4271380964244327
Ni 3.2905106184207877 5.178915396663522 8.168633381094416 -2.198580652232872 -0.8298582551976998 -0.44389530436905483
Ni 1.994052213241122 4.6794606443915585 6.048647113044697 -1.0560027190723942 0.7970484077565305 0.46648398830284826
Ni 5.55324539580881 4.771486077577869 4.284431915593421 -0.19229511942541722 1.454510082224953 0.03836882958618553
Ni 5.434041225263018 0.05676113800928284 2.0214603149021633 -0.6842929357286538 0.25812178811223935 0.7044861228470771
Ni 9.187830437823765 6.838692449763245 11.596094999800291 -0.25152536584164426 -0.6920908345065176 0.19244835717382985
Ni 6.512454363928493 7.146077908860133 4.6580122850702015 0.41593352904880626 0.16190930804470824 0.2625137465323479
P 2.196843821326457 5.39226149212139 0.10829258346798802 0.545032475431713 -0.15847559977281095 0.8244741080676511
Ni 4.3493904964454 2.2360035801291422 9.066489263297596 -2.378904715339342 -0.12398296531258002 3.4879598341520253
P 8.171121890528806 6.456502527601132 5.8544342892627785 -0.07716369096619613 1.2092648929650658 0.9289346870765872
Ni 5.342109029597666 4.2523675321356995 8.465276013026434 2.10645725463305 -1.143131234560786 -1.469532009555082
P 3.118086470911726 7.192426280528741 10.761394484793747 0.5233925285644341 -0.6914403454067124 0.6951895280364996
P 4.563752880881719 1.8838734347241382 3.32085663436724 0.8899012273232094 -0.8331186711165265 -2.0288955568974867
P 5.512612484174976 2.8313251514509186 11.98205171780914 0.28612161575927497 -0.45242082534156275 -0.4597685239558856
Ni 7.808903445356063 1.7752517228071654 11.650776008716985 0.5133323161149547 0.27181882598335766 -0.31845889443939995
Ni 1.2341291224187252 1.8109430458301845 11.634331707145487 -2.4316735224009407 -0.7499686806599083 -0.8133790265957541
Ni 8.148987303053193 4.670332691089694 4.884444266594635 -0.44962423643303207 -2.020516331694856 -0.07695800271329327
Ni 5.213469221930844 6.721875159753997 11.570235573362375 0.03475437276204982 -1.231407490500376 0.6568145278027269
Ni 7.311080349700878 5.964674604543596 13.104811418568238 -0.2932101471749402 -0.3549055673022082 1.2343943410428417
Ni 8.849014610411674 1.8014980849570605 0.4747085818342957 -0.034136793782708945 0.42099628828369434 -0.763260255562492
Ni 7.776904328163011 0.6606820058890869 7.1189234132561 -0.7981241573192126 0.7982051470687931 0.9327203793712645
Ni 1.503874594304556 2.133032061982272 1.7975932975793072 0.18063748058183085 0.3767486313192286 0.2829200781028418
Ni 7.064662905558932 9.077232090462466 10.369092021108445 1.5834483346602795 0.30276873739765275 -0.4245958327094945
Ni 8.812456178443737 2.814700901463969 3.2692739082720075 0.28498673082388337 -0.2331792592342887 -0.9758236383186419
Ni 9.091982266278144 8.801127819647247 13.040878450446804 -0.7426006703306114 0.7076935740407813 -0.6932943678963156
Ni 6.440213932689635 6.864071702968223 2.295272807452216 0.5436942162362637 1.3563451064167416 0.12258814184758243
Ni 3.4202786000912107 8.07983303375807 0.9992563481218949 0.4598083760548855 -0.22556570855308897 0.7096021039174037
Ni 3.8361832098320163 1.4436151845088998 0.7449137146984535 0.49627484641203556 0.4141545827715125 0.40380846365049816
Ni 6.593598978418915 2.8005847407908107 3.899484959936557 -1.3165236035444294 -0.28715288523726673 1.089493137520356
Ni 7.928657717275513 1.1831654934626588 4.880719427632331 0.649062908881766 -0.36588032114615693 -0.24412958759820536
Ni 3.885002375806031 8.799319011740646 6.94104393839574 0.41093787560642775 0.26248109352219956 -0.6410017291401864
Ni 9.21369452613773 6.074247339174348 0.9969608403558898 0.4394100149041917 -0.20777624578015183 -0.09832438420421132
Ni 0.8790135115926206 6.676170126980005 5.025765309487058 -0.49499726525119275 -0.6811669885051624 0.7152618733063423
Ni 3.74722529108525 1.3366531004649935 5.173636288226837 -0.6410063571258767 0.07511992106328999 0.004761683054701477
Ni 8.123719934873366 3.8577304009255893 7.892420022379676 0.020562654642700073 0.5570045601919247 0.9723899300467447
Ni 7.874691840144575 8.954960405477129 1.3617526411070957 0.3169406580226606 -0.039318337983648415 0.454268677183579
Ni 4.094190077829138 4.130189084671321 6.085970092684494 1.9027227830224394 -0.3617531863516608 0.8548239240041019
Ni 0.3964878960011413 0.13048684295701474 3.524390413119407 -0.7437252708533579 0.1326252143686103 -0.27078447118157234
Ni 8.637906215456816 6.38650912061738 3.393427126430293 -1.9535599202789644 2.2843786218352977 -0.5992650115230325
P 0.9154759089139687 8.57472847125515 1.5982766519001057 -0.7063756265603061 1.4975997143255757 -2.606055251881047
Ni 6.624078324020338 3.8954170068971266 -0.007996982172634103 -0.49723283944993074 -1.4836306537399933 -0.48115547427209393
P 0.010729773911935789 0.592694137981158 10.066227649402848 -1.7510122698876038 1.7289997701722548 0.07171398070553456
Ni 8.634810729760984 5.419458876985066 9.858476737577716 -1.5736094941929866 -0.8486185665243385 1.461963710289521
P 7.279519448856332 7.642185434129678 12.038056699523446 -0.6225041845566311 2.612725464812371 -0.9751332971198367
P 4.5859713821261945 6.710425592180259 5.583500971359934 -0.6975965948160954 -0.42555716818149936 0.9361471456646263
P 5.123830669281078 0.22676204234862626 8.604167286122674 0.9971933622436695 0.7006963167873416 -1.4601395125965886
Ni 4.0818361063021005 4.265793735153763 12.827492262854925 0.0750561577048901 0.09301222796267852 0.15618089020136328
