# total energy = -340885.3018626141 ev
CRYSTAL
PRIMVEC
9.14364784579862 0.00000000000000 0.00000000000000
0.00000000000000 9.14364784579862 0.00000000000000
0.00000000000000 0.00000000000000 13.38265287641313
PRIMCOORD
 96 1
Ni 1.4703808416013187 6.6717082562456715 10.953045729693416 0.041474979315335024 -0.8525276717707576 -0.44496308351193686
Ni 4.6575089682001956 5.552617215299049 12.151073881159626 -0.4090175186552633 0.6266012374441402 -0.9876797663262797
Ni 2.0955686088509657 2.8796455420335283 8.468595955799 0.8958301912131346 -0.18891051922390048 1.1608093685668395
Ni 3.4426382176864854 0.7523667629888954 12.852699800014808 -0.20146418751919495 0.5366180261157726 -0.6705609308545419
Ni 4.943814864712334 5.845104217650552 6.884371214251526 -0.5907837135248987 -0.36521003455200973 0.293301678447482
Ni 8.217286456460807 5.287762316270861 6.072967575578539 -1.2209117331753747 -0.4270823465767742 -0.5759595040278725
Ni 4.497897454099662 3.3762644790948393 7.267810994553843 -0.07459001670174895 -0.12863537648292683 0.4113291975075755
Ni 2.9838191201812925 7.297106327392219 12.864422870719912 -1.448955470955311 -1.3864295845069476 -2.1185506954624738
Ni 3.9699798109907958 8.003005072813579 10.402938282367137 -1.022119178951072 -0.15881755649326196 1.2893892092214827
Ni 4.860443085062433 0.9545602443881328 1.759738887712836 1.9192799160501723 1.3111695383213677 -0.6268881725569396
Ni 3.0506591848051983 1.4229253100831147 6.355394736739998 -0.99972564174722 0.04069927749157507 -0.35381439112055835
Ni 3.0698425576616897 5.1117562418597045 1.0177583941365662 -0.8170096813698058 -0.4185115741886276 -0.819507250980679
Ni 0.6026614767971913 1.198659063156913 7.511321876776068 -0.3838019386215841 -0.050834309043047934 0.05512522310891796
Ni 7.9474757003838965 5.484945078735228 1.7618528990590803 0.5285023389871737 -0.14124098106207933 1.3414267945440124
Ni 5.004583547269171 8.85760696063967 3.721046745687589 -0.4882188088767785 -1.5898884338586685 1.5749516100431777
Ni 1.0149540373896235 8.792824216746322 0.34087335720468903 0.9582879434277239 -0.4938492676896785 0.3419952869984433
Ni 6.208619075268609 2.1064678368990775 3.9452060119358014 -0.4593090678209638 -0.32924158687720073 -0.8040402656933313
Ni 5.625876120602294 1.2981510936866965 6.268032669237584 -1.3797881679310302 0.33739558344290277 0.10873529512489016
Ni 2.955784696359556 0.9484614313779899 3.8584465108162487 1.1822621391239767 0.9658511004869623 2.0035401088518334
Ni 6.707770802740429 6.2063423069934585 13.34520775307408 0.17299847597933432 1.0075896178763293 -2.232953730396103
Ni 5.728632433357897 4.204870976534368 0.7133197298876743 -0.8149743961073319 -0.5798722088187175 0.8608025101850401
Ni 0.7813576123591492 5.325004393317806 0.07717970143330541 2.324594274822235 2.0773045443284937 -0.9847885608214135
Ni 5.249011537354841 0.8139611169322628 10.834528511412202 -0.902810993406342 -0.526449570223203 0.0773755498666861
Ni 6.288836296464987 2.0017913581282882 13.075520436241003 -0.5995545177389933 -0.08864058125754412 0.40556761243344996
P 5.093596957544645 6.419307005373128 9.459634782651847 0.024106149019584293 0.27165453249135146 -1.094076128905348
P 2.4222071353297316 4.730091243574281 11.796353383891127 0.09385117892420611 0.8895726403391969 1.1669388785033452
P 9.311159317074631 1.7217305729893542 0.7065195990996034 0.10528616023402512 1.712436980717567 1.3492074669306957
P 6.6591631716131126 4.2958411274157955 7.0922172986535665 -1.0121582110836183 -0.5131597950928324 1.9421719901569972
P 4.10955759299954 2.6162444829882685 0.4924613204560459 -0.18858244646052036 -0.05873890860210529 0.40095376781052233
P 2.0246139027659447 8.736883380170527 11.475062976947044 -0.1788546776497952 0.6628476213706842 0.7524621365057234
P 2.2536074155485837 4.813920205608749 3.3267269389973113 -0.40086197942766444 2.099270249966307 -0.7583499627450682
P 6.884362070603834 0.1155409609576739 12.033306441989103 2.261145105228654 1.1245447298078504 -2.150156752403529
Ni 8.421317811046007 3.8837186386704228 13.35751967469051 -2.3868198564213605 -2.689736432250787 -0.6999468402158268
Ni 1.309096039973265 6.735768651971401 1.9828411482879262 0.6441377036660068 -0.17935964231067172 -0.5336126636305455
Ni 3.6184522754961237 3.37506666124727 2.539906911507338 0.37123824302396063 -2.215802672538113 0.7728049618281336
Ni 0.7916332436347094 3.8990433922011567 6.72387276632493 0.16827613080300052 -1.3725890790794297 -0.5784979541790102
Ni 0.48549386091522295 3.8569186072870214 2.220824695480719 1.017964276242434 -0.45240694138449183 -0.15160226969174537
Ni 7.472179749738857 2.5345459908658885 1.8273881651574277 0.09596822526720891 -0.8563645290183446 0.3416600151462116
Ni 1.1209106268372047 8.659665275416918 4.983713171413621 -0.5578345122923877 0.5134097063201094 0.6705046236953098
Ni 2.561309447658525 1.1679455505616056 1.659408384689754 -1.8131720312457997 3.119988949025427 -1.6023875947669435
Ni 1.5146818146660002 8.588820293104192 9.274780400369753 -0.879475404004195 0.41556406152452946 1.3837260695328555
Ni 2.373873813633157 1.8397842083326164 10.930790091212627 -0.1955506502482374 -1.2137031312420774 -1.3757057703315405
Ni 6.58546537122068 7.5417080467840245 6.593900386215968 0.7212589714300417 1.3932196108455877 -2.014556771677311
Ni 6.233882973839861 2.0344890422726225 8.685662494533018 -0.18899845095201645 -0.13843256507900675 -1.2223230117006048
Ni 0.6945021029388374 3.5663243400076308 11.17969389684322 -0.6257116357503353 -0.1346746406984713 -1.0120116582034246
Ni 3.081372697400506 4.552384450692529 5.504901089821641 1.3012998446161395 1.3671918193232584 0.09704706015368449
Ni 5.91643381329092 4.369392629445166 9.493653723887585 -0.24121884170931363 -0.20467832358111845 0.36429883559165
Ni 7.153605920523878 0.10416443450007287 4.94828976589249 1.668450547834288 -0.5375780760361968 -0.5391816730778908
Ni 0.10915778050432937 1.1591859360732741 12.055508132948518 -0.3909303221362493 0.24554035190280293 -1.585405201276334
Ni 6.211855926551354 7.542988157460817 1.856896544987013 -0.0007366210557084087 -0.22926552600217934 0.44261463788441835
Ni 6.97418926552384 6.320573897601728 4.032608311488056 -0.7051630943094436 -0.5261466942708035 -0.8919367696959993
Ni 7.709832296885223 0.02297250045979487 0.6244827920126428 0.022335173162090566 0.7148795502662592 0.9013812029383509
Ni 4.292567701542286 8.344410590313906 6.397189435972475 -0.824353780439703 -0.5409104828435394 -0.7056711442941137
Ni 2.8477159242952683 7.065259996529874 4.070909222937662 0.5545324445023482 -0.6552636383758392 0.004886381558023843
Ni 1.83900699827885 3.014605781958131 4.498030036991187 -0.5573130925712789 -0.7709594239789626 -0.9627968870416709
Ni 1.8501256738715544 2.9052934738078178 13.144227633723489 0.7603541376592905 -0.03572702108796427 0.7916832867898752
P 6.492757927277893 4.262750266420732 2.944103686433832 0.9086072883731449 -0.7991623687757398 -0.5126394038129882
P 4.299352288129281 2.351599887856983 9.696079453938182 -1.0442995717028531 0.9895602711784441 -1.5101893780651283
P 8.460434335869683 7.2661550799569365 5.227758957025792 0.5633006776132815 1.1686136951026067 0.39207703414618283
P 4.604859844793294 6.570414927120688 0.7480034143105743 1.2576923923388341 -0.3698997267181952 -0.0017635196583259951
P 8.59193827696695 7.1862944610205215 0.5504512484794758 0.8510803978012698 -1.178403427499519 1.2335739020240757
P 1.9163622577478296 8.542425424718187 7.1756850866042265 2.2626456010335807 0.16363786070004077 -1.4009912843712067
P 1.8629267806394707 8.689912461979965 2.797469751501659 -1.2114742419115587 -2.3410069118523036 0.13282421775329384
P 5.016662305869469 6.62641062558263 4.774368443154965 -1.575483571287248 1.2122118914085316 1.1365695221828682
Ni 7.183688521428482 6.197354101312842 8.203084542866572 0.09144796879935217 -1.1384443706080782 2.2061800618466845
Ni 6.662829774337352 6.997706727386041 10.768070651261796 -0.14190561122927173 0.6893109577685355 -0.24240823403172446
Ni 8.6620151928736 7.961511199590148 2.9816017856161356 -0.6879667850358152 0.8610066557760463 -0.028530503339525056
Ni 0.3047952665088553 5.719214476235787 3.937657930766576 0.37152337836454724 -0.46715530333826 0.15663186169585283
Ni 3.488155295894119 8.320207354874853 1.3185834888178292 0.42967350434271806 -1.1141474457339264 2.3921991184554026
Ni 1.127887230025719 6.237586151154865 6.297033576620299 2.0038082749115556 1.067427158859252 -0.21155268210344857
Ni 4.6567226144987375 5.500635578173617 2.795181096484509 0.5326891233750116 0.9334659992880375 0.9559644375008699
Ni 7.7770198201214 0.3944971934554902 9.948703809814395 0.21951101771857676 -1.775090650993046 -0.9077084307079593
Ni 5.8198311754316085 4.192408184731032 4.997149761696088 -0.5823756919668615 0.8458530879640594 0.6915010234413188
Ni 4.262896564783794 3.226902994056331 11.73991879034 0.42657943879842664 -0.14430136515495792 -0.034762600292165935
Ni 5.640432807726954 8.554010426343151 8.720657977342192 1.2069879240054309 -0.7801544602146693 -0.3787571771088251
Ni 3.635020565112884 0.4843463331299562 8.418076387939418 -0.37743640141487256 1.005773647713513 0.6487515482889343
Ni 8.350088795530246 3.4034668309766616 4.349294891819537 -0.0980950418022246 0.6036353726765862 -0.5354489455083359
Ni 9.03191231658023 7.875323176451306 7.501432107433084 -1.4243852378151147 0.5691874754113616 -0.4604694066776522
Ni 7.877316491648024 2.53021190186018 6.618644925598351 -0.7040557201778778 -0.2232128920501962 0.15561704727809328
Ni 7.0003675288642295 2.377348399755877 10.841848915753912 1.1277925473211867 2.2476403858740004 0.9845569044265817
Ni 0.4673464633421634 1.3004095746664648 2.9274018995607785 -0.5950363181536655 0.14608005432193552 0.50182200148251
Ni 3.1294865715524884 6.958105589234723 8.302397357901604 -0.08623608558110954 -0.16812700681964593 -0.5047839123243113
Ni 5.264382009124031 8.463451739607835 12.845740569756908 -1.0832183602552377 -1.7245162804796044 0.999521239045898
Ni 8.385630154106597 3.7524707197085156 9.00426375469107 -0.676691469232312 -0.5427002277541105 -0.30669121238051056
Ni 8.591115348674727 7.847837371491051 11.914816654650963 0.7054734264610109 0.3390254057368419 -0.7548488915703452
Ni 3.392192713373204 5.08674836542381 9.847611640938624 -0.22027643512969158 -0.8035149893174808 -0.22415571557943975
Ni 0.8277460801917703 5.439821177378324 8.730454481478725 -0.16784649946474964 -0.03311555160704619 0.8146378387035197
Ni 8.365102665039473 5.352234176142702 11.309773257630171 -0.0002864208921672487 0.5667490411731982 -0.6071014768483157
P 7.2797608277216925 0.5023282306798019 7.389071307142468 0.4828881406924845 -1.1745390594481062 0.5786347368671906
P 2.510443335551441 4.887572287762724 7.621180060693557 1.9833160684954745 -0.2016757893093688 -0.7487016410220267
P 6.826427918831322 0.2759598591493548 2.7032289178410287 0.6977860851190821 1.430584167536975 0.5290001045591987
P 0.31132931714910744 1.7615420150375738 5.276017300811298 -0.18781240106371525 -0.5467929097662453 0.17280718590413463
P 8.808304412287809 7.031949687990217 9.506461231208885 -0.9072466605801924 0.5916949124852584 2.0760925262982632
P 0.16190839840060486 1.8989070343050067 9.732574494968743 0.9991481719771955 0.8164067576784843 0.13058684378234287
P 4.244590982105674 2.5716143386066976 4.925927146733709 -0.254214225527717 0.005233223374481309 0.2718499363316092
P 6.561198130247788 4.380218708311746 12.008281192622597 0.03172689878963568 -1.1088481450082 -0.598660288059498
