# total energy = -340863.6235442631 ev
CRYSTAL
PRIMVEC
9.29141526081008 0.00000000000000 0.00000000000000

0.00000000000000 9.29141526081008 0.00000000000000

0.00000000000000 0.00000000000000 13.59892542484707

PRIMCOORD
 96 1
Ni 7.352064510970386 7.40189437033955 10.235067980690227 -1.4698379708312752 -1.884417556955348 0.033803064592374046
Ni 4.072622373401221 5.321100533679986 1.06701124784256 0.07935529930087623 0.9631162180543026 -0.7722496035452958
Ni 4.800028681492402 2.053690778710683 6.223493921292204 -0.08398277077055859 0.6199567355444291 1.4490354322636272
Ni 5.208024011486678 0.030172012367980963 2.542550223766633 -0.1744616907884221 -0.2417888552801707 -1.3132863275540545
Ni 4.100171419276583 7.306183503033611 12.775823103052772 -2.0410000534705044 0.006195844398066748 2.92713924264812
Ni 1.9011071593632303 5.267405445614652 6.3896996843691225 0.407991134273278 -0.7656673223420877 0.6025483102599946
Ni 6.242883246395983 2.827767865025117 12.853459380496538 0.9484897263903794 -0.2471933141251936 0.7006497798201224
Ni 7.81119049845273 6.862248979297043 3.980799963329293 -1.6382609116247848 0.04867689638041294 -1.105701114738786
Ni 8.858258652849463 8.84648642987338 9.359310292845597 1.3014083451695457 0.35043339046346744 -1.0820276823812462
Ni 6.526670938865185 5.700617676285397 13.409600749969776 0.10084535085385214 -0.7466473295961592 0.15418417148630864
Ni 6.9686263911779935 3.006683354865243 10.681316995936934 0.5988677760846137 0.504067602983577 -0.6589603705011361
Ni 9.185335048432767 3.7298341948245812 5.36128125843142 0.8557734324015649 -0.7175293291842804 -1.7585939388896035
Ni 4.096724304261487 -0.008445896357741723 10.503129953043391 1.79024241903282 -0.519819466501195 -0.271225672484049
Ni 1.4277745981394274 3.117622851577494 8.142736993857497 0.11970953474820674 0.4724612889322057 -0.0803459453489197
Ni 6.53613889088778 5.4150553235254035 7.134132510695246 1.3607121251361858 0.4136812426795198 0.422581373382627
Ni 8.398946837064418 5.1864679283734105 2.4252191625829953 -0.6069397544594709 -0.1277174926543478 -2.435872390973637
Ni 4.0258215153660775 3.1006288532955253 13.578907987418768 -2.0782445396442593 1.1794966605636976 -0.4297241550749954
Ni 4.680290214647279 2.4064486457272087 10.062647190029487 -0.11204481911409735 0.26435157107203505 -0.15781919713573464
Ni 2.3862862748841955 1.4326990481609931 9.947246884910907 -0.6793577032105655 1.399834545058944 -1.7126601524719667
Ni 6.745400142558912 0.4070141565560168 10.13106359623476 0.036311175726208435 0.08961502935567146 -2.852092598024927
Ni 4.419331529164843 6.460534645934047 7.828724327954044 -0.4110551179105824 2.8295759049796496 -0.22753980156032425
Ni 4.186172757766415 1.391965484209024 4.187652880197425 -0.7001306740918588 0.10092196972805845 -0.31821078298433586
Ni 8.260114512116811 2.126089485442832 8.729897752759031 -0.10611919765828176 1.0811241967303702 1.03983022307759
Ni 0.9831989667585408 7.08463900055397 1.7736400934087888 1.6575763241239454 -1.8573608099478722 1.0122962793233792
P 0.1990174664847622 3.434553021833347 0.9784612741811893 -0.20109034911954402 -0.4985119632726705 -0.041068230795219596
P 1.0050802494015352 4.931808822352525 3.132485399227487 1.7803099904104565 0.3177317864653883 0.7435342378884743
P 5.731270054815859 1.0510634629047955 11.70916399984383 -1.2379483769426873 1.924209235030989 1.4038902031855565
P 2.573508289855037 6.530647664542978 10.772701780356002 -0.7483504283301949 -1.1425637920930902 0.13623658586895246
P 6.04457657316905 2.729455401481371 8.097589078574876 -1.0057888172221647 0.2791313004843709 1.8593284751972046
P 5.650239623423268 3.72940678972837 1.110961499714276 0.8364829596030691 1.3954981224671195 1.2646248577926091
P 5.119365328268227 7.9948074443511805 9.086163128989032 1.318398194859323 0.33475248939310087 -0.19859072262614186
P 5.478367026255494 7.765969180990541 4.012567311675959 0.604880557937597 -1.3992233938375063 -0.6213117069104268
Ni 0.3718127011754444 1.144405019351301 7.241264385485161 0.981786026549664 -1.8765618083563553 -0.03844339157786283
Ni 9.240981333676459 6.267830696033537 13.543346025130957 -0.3890079083025558 -0.18782679924141846 0.10749139541546002
Ni 4.6546830745351375 8.716388035152699 5.664020650351542 -1.1742559809900488 0.07140390566428348 1.4930028389835126
Ni 4.112705538293738 3.71832213147228 2.8237892810642977 -0.07842250307396172 -0.47502005079831733 0.749626209718825
Ni 2.909197827268515 0.6496613210903365 12.193013513858972 -1.5915755917531043 -0.21961103363155082 0.9277229261566732
Ni 7.359934339589757 8.414249797791813 2.2926018652192073 0.63535044439168 0.042792412575177914 0.37571864739281746
Ni 8.32512654381661 0.0812264802519405 11.88951315503929 0.8700481971530242 -0.6810014094615756 -1.3502101971635971
Ni 1.8886752459125609 1.933348369881782 0.6663700729276599 0.042661286313952336 -0.42587907029729233 1.0907151828529151
Ni 6.691054655434126 0.3855556333016664 4.504399080433604 0.3394532373028799 1.3763796564701134 -0.4932841392148279
Ni 7.102078986762421 3.161441165354293 6.3307345056391995 0.3048096790870815 0.5463473375883945 -0.30882934176943583
Ni 0.9032779303330719 4.5177554896902095 10.876366099017524 -0.02952037805662013 -1.1046058247920783 0.9321547366757816
Ni 8.822653950052029 6.129156325143223 5.762164010139832 -0.25453689897445836 -2.4426616459813286 2.9182419401584903
Ni 8.45121104719896 2.6951422053877074 2.979266247084799 -0.0391473596234229 0.015009843145270926 -0.11150180212643376
Ni 8.035996287644766 5.107723185104036 9.215094521968753 0.49854255940028974 -0.2785900832689202 0.048904953230819004
Ni 3.0272731308044682 6.156482377055345 3.1774028874147597 2.055485134460557 -1.5566001041191837 -1.5787833250844423
Ni 0.18889818626120167 7.02265597018819 11.448786027807333 0.35123865997358217 0.35631967404091536 -1.8937799720068547
Ni 1.4241137805762258 2.4809565036950096 12.09115823372424 -2.0584205629397974 -1.9517989717238 -1.222155889995121
Ni 3.1121966651386366 8.734413380514656 1.2080344884790093 -0.2720872491533959 0.4380619855167295 -1.917596100589846
Ni 1.9404470110449445 2.2331544620437755 5.668957179212784 0.5679587452105832 1.0610495374676823 -0.32916008290698795
Ni 1.9829924009482442 9.042080009880884 5.418206042397691 1.6523238174757542 0.09671615917682698 1.4858361460317442
Ni 2.0340487271152305 4.267054526516846 13.203549682227797 -0.6634338328914574 2.499374782402657 1.8030580827402498
Ni 6.842579053456185 0.34109899930509124 0.44901599867391717 -1.2111176299030884 -1.6715818943744178 -2.042783884843804
Ni 2.6661251159210106 7.893763304757736 9.124987307130752 0.3864923409695537 0.4644587303427033 -0.08954201002589095
Ni 0.7983509083546985 0.9200684466235836 3.9075287927159645 -1.0667980099156855 0.5537677984221818 0.4132626670848624
P 8.474755493151124 1.358757966516429 5.526834764165861 -0.5764552127173684 0.7589024928144285 -1.2474558022124904
P 3.1148818841126604 1.3386141785036854 2.4222542720134075 -0.4202570961248246 -0.8374234691394675 -1.3567084032934311
P 2.648378513013104 1.131220501274694 7.393055447121596 0.10948451458608886 0.045658164158747176 0.5736894770467733
P 2.9410209241059904 7.207248514675818 5.946184203455143 0.6165461672009833 -0.802200127160799 0.5541313524091876
P 0.026668219720561378 8.196979346274286 3.2378500468587204 -0.3329709720126459 -0.6191049290670951 4.412848376183697
P 8.532418015479116 8.453942723248657 0.24453053438219022 1.8629501311101917 -1.2835052396368798 -0.7466231612264431
P 9.180698632280388 4.538958499028346 7.294735550445742 -0.16293980619175163 0.1573527990222774 1.8885534335005925
P 2.4322416141420504 6.43792863291052 0.2460069402471464 -0.73214476510461 -0.4715418624417298 0.17932827485210406
Ni 3.0101490527106094 4.538401014120245 9.430677652497758 0.190901067291368 0.5130975743963293 1.285235077843793
Ni 5.006883456643562 5.738712478339017 5.443146988044652 -0.8754416002544535 0.4358534079011848 -1.3481720836876459
Ni 4.5916036571834224 1.041772047769766 13.546950165061833 0.7969342507761694 -2.179120229515415 1.3211791000385698
Ni 9.032927965972881 8.374371044032268 5.524114237814324 1.103289677083816 2.783741620254354 -1.1411869663502217
Ni 1.4579066574223278 8.284309357128427 13.08976794162574 -0.7118944994960063 0.4012515015565993 0.02366674748932053
Ni 4.777013846202935 0.5810098420821448 8.127262141950105 -0.9756930262780487 0.24101752433178492 0.2652961943734915
Ni 0.9808761129747835 6.017975251637461 9.276588823898432 0.06982499121293781 1.1402428572693974 -2.07078371249084
Ni 8.37096109467771 4.2250852043519185 12.829022029549895 0.11674530991356023 -0.6895737245116188 -1.1905092096241174
Ni 8.404633183127057 1.7477337697292998 13.420684479084352 2.0885083834641125 1.8724853242941364 0.8105024763789074
Ni 3.345912921445166 8.447141407369816 3.3631234096997815 -1.3714233409061027 -0.634148710774095 2.8737245744724054
Ni 4.995863838293417 4.686552628448288 11.720913923423588 -1.2669758745232889 -0.8816528712714882 0.8633764415598034
Ni 1.3282635420432627 6.600156741168133 4.415815657677748 -1.1495787899583427 1.871598293703493 0.713671388890771
Ni 4.769896622209502 6.851666057458244 10.826729501083168 0.7134371613927778 -1.0021224241141709 -2.6607387594668563
Ni 6.930893954314639 7.862293281695391 5.909616910049721 -2.8357262408517614 -0.9194483448527067 1.1965844692839198
Ni 1.1029374336036648 7.602115075084298 7.391450819727777 0.3271970456433462 -0.14468368819504115 -0.19990789877566859
Ni 1.7373459676083371 2.9313485609504246 2.9856308664522935 -0.24810219909270817 0.28658904231399673 0.035149808428255595
Ni 6.012261031329418 2.9122454114328042 4.2433409768092245 0.5162649163807173 0.6674738072887859 -0.63107547116541
Ni 4.191933435150133 4.447373020042361 7.3691895182057605 -0.24942914543424788 -3.826423710958442 -1.6058411005331827
Ni 6.965634555504515 0.9191049268740811 7.217316692116137 0.419737990396561 -1.724197977908237 -0.9213483900888971
Ni 5.85006079731721 6.065826039582863 2.575690843270256 -0.0785798545874324 -0.3531129941781596 0.53414565331588
Ni 0.5424718395265834 0.0468389528371967 1.7607891371355298 0.5617901545060261 3.2346053855214416 -3.3601515815560843
Ni 5.541632271909909 4.780693246596406 9.362030819197136 0.37950716790097216 -0.649730881483068 -0.712615951043063
Ni 6.265545007910319 1.806873627063762 1.773544391832898 0.4479468487306092 3.620764511521293 2.141702965209221
Ni 5.974900251071464 8.348745321089856 12.29049067918208 1.3530255551252053 -0.7472937049309065 -0.3953539051252417
P 7.396588972297447 4.694022926216852 4.2531183329558155 -0.5883319095502964 -0.9192719671758426 0.9049632638626544
P 8.251408456135287 7.630128691716411 7.509408122291515 -0.14371669629608153 -0.04218306112595316 1.5582448388114583
P 3.608990049578389 3.6286228097587063 5.142623598634233 0.7658678683886682 0.49232897439041023 -0.30665238872277517
P 6.919381890962338 5.286499303717136 11.179390737382292 1.30386400579889 0.84023188512254 -0.20106978029425374
P 1.3531366603597363 9.014261512966605 10.62609161179886 0.007358754357916359 -0.9567697070109846 1.1849453423830947
P 9.051185596713214 2.2605548452769777 10.729361974458657 -0.3288433229975175 0.19982125259913328 0.48638715498467844
P 3.1431835346139603 3.4865570723441066 11.450675901645798 0.4541403791358307 -0.041598906487709 -1.460296349889427
P 6.0421515138188076 7.418460963525307 0.8983562677360469 -1.5173856387032512 1.0857580959579558 -0.9329029276957159
