# total energy = -340897.3224949742 ev
CRYSTAL
PRIMVEC
9.01521004727994 0.00000000000000 0.00000000000000
0.00000000000000 9.01521004727994 0.00000000000000
0.00000000000000 0.00000000000000 13.19467117559705
PRIMCOORD
 96 1
Ni 6.367406785308747 2.0624636904580993 11.222345306233905 0.699635222512679 -0.9919655381858272 0.4186753534600015
Ni 4.5678716954565255 0.524421078253536 6.043950966063821 -0.10950534052169528 -0.8890666472370561 0.4857937443750537
Ni 2.756427513151009 1.6363868338890943 4.780099656359082 -0.05667559831517336 0.571425620713261 0.29768283823431313
Ni 3.5078452693827926 4.360684138483293 4.76963570207404 -0.670991076413425 -0.6097481704425434 0.45385601512619256
Ni 4.9206458792490375 4.657122274780996 2.604219214562655 0.1807801768072822 -0.49591797729324916 -0.32763156207760347
Ni 6.983785710459595 5.998107721526157 2.858176779664919 1.0690672655658362 -0.2901407642209971 -1.2563577326878106
Ni 5.225450130457156 4.665921119772985 11.224270955096905 -0.18568532741838345 -0.40319088467115716 0.25241522464576527
Ni 5.421386705309485 7.763060465692654 12.495683321456132 -0.3524511922244446 0.1804014533116248 -0.8993736855900188
Ni 1.8471263836152392 6.5142284959025165 0.4626777077810676 -0.15617163422998265 -0.038022759100676456 -0.120981716592411
Ni 2.8888699637425046 1.8604508640436803 0.24626668942330404 -0.21482518220713326 0.07474813954616805 0.9637970461714109
Ni 0.6125086954837791 8.993735802476781 4.651676186400197 0.16377721449138247 -0.20433225309560937 0.536848911179656
Ni 8.655539213307264 2.3903649097701862 1.2895049913740033 -0.21530006496102275 -0.15965650745478957 0.2446659197176496
Ni 6.723579703283615 0.6009511962217617 4.73163569026489 0.08701461561834692 -0.006788997897375404 -0.30632123063560146
Ni 1.0438441240649017 7.377146369819661 2.7812256513881626 -1.0479909045115112 0.2851278843874379 -0.9028624154695678
Ni 7.434005299496372 3.7454591602166394 3.6980048976461193 0.5361040625938315 -0.5278575063143232 0.3027042027083045
Ni 7.574182800295988 3.720577180526181 12.559453311143969 0.493774191477369 0.37538208998900513 0.48969796452546627
Ni 7.734247854427905 8.800134167022941 6.889082732107302 0.2796632617284409 -0.23451828976068645 -0.02837469448795113
Ni 6.845880042588239 0.39076878647564234 0.2290476382607041 0.4377652802119171 0.8306486123094791 0.21665246522385914
Ni 1.8242638109721223 6.675131964567483 9.114944399846436 -0.3975424281361283 -0.7637112270569815 0.327492722506894
Ni -0.12258702298366587 4.952090931843357 1.498096216549338 0.16973446051608188 -0.9681663788837003 0.03576995851075775
Ni 6.447921626111458 1.9947865087420584 6.993360765035405 0.24392981288257345 0.4480620341522347 -0.45307902775085196
Ni 3.344435572328716 4.471454024155999 0.6300865520056834 0.18847497434837862 -0.6914082066171963 -0.0354709392131002
Ni 5.705780521003399 5.548843744752856 4.8276395634249125 0.831482421064684 0.3629490064319749 0.3380167619666695
Ni 5.501261466199869 3.100574140942156 9.161799150949777 -0.0025924433175245672 0.17628948802578026 -0.1732393883455468
P 0.2009580468405842 5.511944490088707 12.491658931697502 0.11770895937841017 -0.024623969196267272 0.1657093985170888
P 4.076236231529182 5.9612715733322394 12.495485888356415 -0.43101896262701894 0.9187508045650499 0.49405418461163303
P 2.4310325222280333 8.55376650724727 1.4345507055913178 0.34777589823596233 -0.619394692393372 0.2447008867206431
P 6.264155584803376 7.607349758006566 5.723518848263888 -0.978328921238999 0.20374629868515232 0.6114615535892243
P 4.801825411017066 1.0588274031393734 12.381760816834968 0.3183059138013034 -1.0458718012859796 1.1068964205984677
P 4.0415907793732275 6.134363605961516 8.247091599957352 -0.25437080571023934 0.6539917136419511 -0.44267223059523114
P 4.751745919285002 1.0511103833513182 3.7530788157363406 -0.05032060263142301 -0.6217747625897744 -0.48543173304994464
P 0.05815892296343712 5.3730020730635815 3.7541218755371326 0.31918574530309546 0.7292898121543182 -0.11198439818980714
Ni 1.3918402465400437 1.0915886763984772 2.536438357931237 0.32653292969678605 0.37594798979480415 -0.36657606166160095
Ni 1.808739619295684 6.542987015907069 4.907837068834471 -0.2870541548758734 -0.3890842700664461 -0.15083685228063057
Ni 6.142468279780981 5.578350527190127 9.088661456516883 -0.33876263899375847 0.7760736052770763 0.5908618750610017
Ni 8.681169455430444 2.2006758754705706 10.013911394121637 -0.25618240499768136 0.10396975541544676 0.8638125006559575
Ni 2.3062710305844623 5.149073271059487 7.148398036532045 0.35282734461694076 0.3269815871984304 -0.3602647747315924
Ni 0.5097461193621852 9.033510909141384 9.00849009521642 0.5377994480183834 -0.04151483141433495 0.23377112718201673
Ni 1.4155322185061758 1.1041829248142638 11.433605033578942 0.1049683718832902 1.3292307666984526 -0.6170004811295826
Ni 4.008108289311502 6.83058123116262 1.485139556690234 0.29713647881253985 -0.024537580130048066 0.24948699525537682
Ni 5.465993964551654 7.862696566974882 7.929284711318963 0.8457633564637305 -0.18408918657585716 0.03532130100911336
Ni 5.261249529497305 2.810392560407199 4.917205675100531 0.06100507892846268 0.13444529829648458 -0.24441112339436616
Ni 0.7168263953360268 7.502529910955492 6.906631739957102 0.026398544598186795 -0.326676911473818 0.24307620663302654
Ni 5.1913816517433 4.623558647828976 7.061814156335268 -0.46249466463779704 -0.30120010735895225 0.13547091134752154
Ni 8.020805320529686 7.1888817387052235 9.050885021916548 0.2536141300498729 0.18263574195878224 -0.1311216332398903
Ni 4.3652909108100415 0.11140545798001522 10.198293174274957 0.8951421640071745 0.8884416120585473 0.7591277214513571
Ni 8.10018424486827 7.129471504589237 4.7027392375468375 0.5706892567678687 -0.02574625572616856 0.42346223332568367
Ni 7.370006323473703 6.018761567711244 6.97676196032306 -0.317167429321486 0.114391464969403 -0.7714787868175423
Ni 2.0961354999305133 5.225152628526074 2.7568945010307067 0.39792526539684375 -0.6147785337775993 -0.3573959378242296
Ni 2.40278786919535 5.244589421356737 11.203251992905491 -0.6886704959710591 -0.4915126491367019 1.6522698243093674
Ni 0.960345248741341 3.1260150636546467 3.8501915597303946 0.28552049184016637 1.1415227524230858 -0.4869096031470517
Ni 3.6464360932166406 2.6280869831244265 2.6393695184804438 -0.11471028176140245 -0.006091200499402413 -0.2886667507786319
Ni 1.129921349457836 3.3354383927160067 8.293418059752772 0.46116617563436063 0.1331137239692546 -0.14733218156148173
Ni 3.693792991518807 2.7887470411185067 7.141470749142861 0.3247596398464472 -0.16065486681231686 0.10807117917833002
Ni 3.8896844903209717 6.737958963285891 6.061420640065331 1.0018804833066939 1.0621872506165513 0.3796637480834945
Ni 0.9929712938499532 7.2727772832702255 11.456880502841559 -1.4600793487826145 0.04943331493046325 0.5654717171226712
P 0.24634151566657608 5.5858241363072985 8.0602811222212 0.11264002949593505 -0.5586696065991734 0.07808748833204616
P 8.496213406398036 1.6289042095618913 7.864578041308721 0.230832356268667 0.309787334807331 0.07206313651483719
P 1.960132041376072 3.162364390506795 10.51204952904562 -1.1642898709162721 0.1217525333201645 -0.6054999366891508
P 3.799649587723649 6.231529539694763 3.8183795880877422 -0.8712224199667834 0.3005203076831082 -0.8230983107660471
P 7.119680986493644 4.003023710853017 10.446181699983159 -0.6229412720940498 0.18224390583700223 -1.2290896410004768
P 6.219512264721075 7.837435948463047 10.27066637889707 -0.10940301061587611 -0.7463951043760372 -0.232705919142296
P 2.439831367220022 8.537854661539422 5.9207653331339785 -0.0014598723749781309 -0.29668370754583745 -0.11186998409912993
P 6.784324188484453 3.869616632788015 1.5116866456737459 0.22053611654898148 0.5821779741337586 0.34757612352033046
Ni 5.254064407101183 2.9073331138896275 0.3245376444488586 -0.2700236817561479 0.0884192092753574 -0.23482656502972463
Ni 1.557278365851495 1.1683802354576533 7.0024778469415505 -0.1048624424330452 0.35296309886385663 -0.0873041218343077
Ni 6.805545992901604 0.6613810505924549 9.107964824239062 -0.044913572683238784 0.10669589609735819 0.29169756718515566
Ni 2.7191856805056163 1.6124334208320115 9.12115948564303 0.05113152856849258 -0.17887781757824678 0.8017571260861095
Ni 6.3677583785000245 1.8478115395777301 2.373404595135527 0.2421452101783249 -0.114293505938958 0.5020605998558773
Ni 3.9994176268399073 6.7955030489250925 10.407626351235988 0.8011986824794781 0.1464736902159284 -0.1606504959369427
Ni 8.274547422112168 7.122403579923542 0.6119533585457602 -0.29199684359312933 0.19740004475215037 -0.37198360583041745
Ni 7.79858940843182 3.8233866357399453 8.218340292120827 -0.5889500027502697 0.10691418275575136 -0.5042997735990411
Ni 3.0813537131522803 8.65857733908831 12.517111574183035 0.2629140672945601 -1.0115426889868062 -0.5107355019220559
Ni 0.10496228736959104 4.686854437469088 10.332746918224766 0.895718862446251 0.44912312842689744 -0.1634195740416476
Ni 8.746601849848323 2.021606758589564 5.612116094846882 -0.889872688078119 0.8972175584789644 0.7069852351198469
Ni 3.8939847455066054 2.632738831501338 11.287579366031064 -0.21204067748346064 0.4632611104901764 -0.6276847003163061
Ni 1.0687080733352947 3.433641075603023 12.608326567773648 0.020403246246700348 0.03287361079956919 -0.08229278466264536
Ni 3.1099048833260783 8.368621138804173 8.061006846628839 0.0392723152370614 0.36341437610416766 -0.35213648919750323
Ni 5.360759417839073 7.657095686967418 3.5102315954784684 0.2750733283649134 1.4076195883210016 0.7335640140496399
Ni 2.998215446230031 8.585229590261655 3.747906789740538 0.8174429122524824 -1.1257847728625388 -0.7584540924231002
Ni 3.4574592605096144 4.37694757738242 9.302269646075457 0.11764673868190706 -0.7158946217943348 -0.5173149549117865
Ni 7.414568506665709 6.287550054838427 11.329089900626975 -0.1805192098364117 -0.5985237624816337 0.48959640595059556
Ni 0.7071936434160068 9.017103226881733 0.20738589159395268 -0.5822540787873327 -0.3631729495173229 0.7466100486003207
Ni 4.642941349399441 0.24224320118567663 1.5010126369949406 -0.5581276180527743 0.21211035437913148 0.05010051620081694
Ni 6.099294438934023 5.6807633131624495 0.3029669514034382 0.031043499569365893 -0.9256385328238188 0.6113689938754181
Ni 8.044839870477064 8.730320380529133 11.06741351269465 0.28565624608708223 0.6390281503535833 0.747380608217758
Ni 0.21283648757976836 4.66369436289489 5.897239241032449 -0.6537929673675837 -0.3185823073911417 -0.10176014935863764
Ni 7.845288196401593 8.630008138494448 2.636928199603569 0.28574392070488214 -0.2421056151896411 -0.2979677164645836
P 8.439426598401587 1.5134103538320125 3.4553145420428173 -0.8116828698402536 0.3420899035947786 0.2053306124531367
P 1.7540894160770026 3.3185709347446846 1.6484365636189011 -0.35182050061898124 -0.7441127360997636 -0.30006367976166387
P 4.841221878860291 1.2484533309687595 8.32168074320552 -1.080097555238069 -1.0738950259717828 -0.8614044054350971
P 8.460972950379919 1.482398031319267 12.373157601900688 -0.4389631571747601 0.9123230466618354 -0.1578842460457152
P 6.26527347084744 7.564130841109444 1.4878314984060206 -0.06697929423402658 0.4329388053575511 -0.9039651616154432
P 2.0079937914400734 3.2854670835043356 5.958858201606465 -1.6161471104448812 -0.24295767877729124 0.13795793943543339
P 6.8720151364732525 3.966340821229656 5.878608407978716 1.2336926869901268 -0.15385301339913504 0.5688910272168655
P 2.2393691569312404 8.480409743210581 10.35681392292826 1.4108522363256863 0.4864917988833428 -1.8556003756133397
