# total energy = -340887.92999779683 ev
CRYSTAL
PRIMVEC
9.07308895350736 0.00000000000000 0.00000000000000
0.00000000000000 9.07308895350736 0.00000000000000
0.00000000000000 0.00000000000000 13.27938280534845
PRIMCOORD
 96 1
Ni 6.745034010416986 2.029767912463516 11.441848167698355 -0.0839118083233071 0.25645956991846797 0.19541823843543119
Ni 4.785210539435105 0.6749624993344695 5.962641603265248 -0.5708255252354169 0.6697929423402658 0.6917617333018731
Ni 2.9649130278648994 1.9351265232956674 4.786885431625728 -0.2275940518370274 -0.7496156681958638 -0.1081223441312396
Ni 3.9281302799823528 4.644477859214369 4.587428998829872 -1.6413490636318055 0.8749127243341771 0.34642246953186145
Ni 3.7489912149138065 2.7165916607730725 2.323480128153648 0.5698893865743927 1.0623530867704543 0.3381502022207402
Ni 5.598186514279966 4.4927304492026465 2.6419464519893694 0.31476601896884504 -1.5889494669841668 0.6925495193104912
Ni 5.366396314963406 2.889143663380123 0.27912178160703166 0.4863203063024851 0.45184644089533155 0.3625643693990465
Ni 5.868210709757326 8.245659384651287 12.34341196687042 0.059975352112367666 -0.4994241906742947 -0.08289802234681207
Ni 2.220774577669302 6.712942495366973 0.25855127470248307 -0.873163088632922 -1.3209579851666993 -0.7135482330493453
Ni 0.7634677585536827 8.907631942765201 12.932152903434103 0.6803442354935508 0.7901174849646522 1.732142172455978
Ni 8.217387639981839 9.005548716986217 6.951013086743928 -0.5908690741498532 0.8750801031499768 0.6653210226118412
Ni -0.20921272517167636 2.446694488538771 1.3400226295635997 1.0468773597323584 -0.3422359422543396 -2.1666889457305976
Ni 6.764677247647202 1.0450746591802784 4.501537696491041 1.2647456996411897 -0.7542976470525655 -0.26707436931983686
Ni 1.1009921053926697 7.6980349645569675 2.3480736426276554 -0.24623172154287268 -0.46826627701425155 0.2642623537923384
Ni 8.05776478890045 4.076956155403715 3.5620220742195436 -0.4966972786614349 -0.6177622989962717 -0.334204844419747
Ni 7.864816482693617 3.988720366921562 12.12770200281627 1.0276406229899335 0.01969696420829511 1.5963573294124636
Ni 8.345027853078694 7.6184549027804165 9.181179218619695 0.5796104705168985 -1.1429939376519733 -1.038047163035238
Ni 7.1159872455936215 0.9299825278799084 0.44091037898257834 1.0416554492117867 -0.2071779500745206 -1.3685277645258624
Ni 2.142246994192384 6.542822080555625 8.997910083533968 -0.7355900433407331 0.5188067089659646 0.22980211523193975
Ni 0.09116185961690727 4.746323280881428 1.3288409549388795 1.6823478746416705 1.5468468813871619 -0.40696834943571847
Ni 6.7280673343798005 1.901120586510978 6.697510078644166 0.6132186454896471 1.1016215453527738 1.6302236431426054
Ni 4.136076401958953 4.874371782973831 0.9693207189464449 -1.1708803796495963 0.5199917304130012 -1.1784980440958543
Ni 6.360198949391743 5.855453946918673 4.557165711171032 1.0516130746451307 0.36509407779943576 1.2863190549365913
Ni 6.081482734853622 3.122349264547913 9.07430639845413 -0.12701301038815543 0.6377091744318436 0.7559251553536593
P 0.42022192192376057 5.832136108728531 12.372174565643403 0.5939122318515514 0.6100448757473559 1.5382647961451055
P 4.469358172479765 6.0418242637528 12.37473771322656 -1.1968752610514615 0.7875445820311533 -0.028540016421221812
P 2.6200449229593366 8.620994921713464 1.1557382158422795 -0.27718651805317424 1.032090688341487 0.24926459483192553
P 6.585728717443245 8.100834741386288 5.885475890415701 -1.165418842314393 0.7382200247644125 -0.5966939083617466
P 4.404812218828143 1.3956860292898727 12.517464658363325 1.6392430730323961 -0.1417480026054849 -2.3162839551843266
P 4.04662481957895 6.579368482201498 7.792395087972329 0.8986524911532782 -0.7696093377089714 0.041211441241303215
P 4.740507430967079 1.350937555377896 3.478866308150878 1.234252930368971 -2.1009422383520913 1.3177230231691694
P 0.2257792779932251 6.013080718466275 3.357213426346503 -0.16554047703939231 -0.6945351822819523 0.16474883437603238
Ni 0.5469031095355191 0.44414765706282844 5.023856364641342 0.1845512138139402 0.5979954007819894 -1.7457607916806772
Ni 1.8580234147587698 6.775283688442641 4.8451954513520255 -0.05850416688347989 -0.4780997181649056 -1.5181896226617853
Ni 6.0450361371844386 5.979219951102224 9.088661839537572 0.09365628930458064 -1.068138840214296 -0.42376382372650245
Ni 9.10257632850582 2.517083511371114 10.312808422929349 -0.32646479546301194 1.1917423107002703 -1.7491163384164714
Ni 2.2805027211734674 5.5295576706728715 6.824938888772216 0.4868612664076196 -0.6426135537119965 -0.973560296205762
Ni 0.9413692543112813 0.3814616866131432 9.073523390891559 -0.8013130965701554 -0.33451903322605614 -0.14238075109347736
Ni 1.7660313675175834 1.2102230213347396 11.283610777275191 1.1753628409009822 0.7049908303976374 -0.11656507558195409
Ni 4.392300429386817 7.319578284951052 1.1436891539292413 0.6957775393294855 -1.3157756696348113 0.14860282074378925
Ni 5.630395979484248 8.235769717870253 8.082854601331267 0.2369258707609145 0.5363678577781795 -0.5216536914964565
Ni 5.227305863813649 2.892346463722971 4.958136353300302 0.7501509718740436 -0.1902742323406465 -0.053950486074526446
Ni 1.0444758353201427 7.798918638812294 6.882637382314072 -0.09254248741511159 -1.1205240386842317 1.1045839704152074
Ni 5.22579065798573 4.819615692126551 6.7216517532964355 0.6069184143032322 0.5365655756112824 0.5929367553121595
Ni 0.8427465937824075 7.590555154751356 10.993124044649884 0.8668219769062427 -0.39489830564506184 0.10349410133060886
Ni 5.211074107968449 0.5988728548154081 10.472453049423834 -1.206418424655206 0.19150424809300567 -0.8956854381051542
Ni 8.363809146873866 7.553772852796945 4.875976812380771 0.10923537468976026 -0.22289201837566777 -1.108992383895548
Ni 7.360153138019657 6.377065821452239 7.008977421787329 -0.6570415562118684 0.9481657673920574 -0.3720640813593657
Ni 2.414802581442137 5.48241390132035 2.727372304873277 0.052678818450954436 0.290344652701687 -0.18344383968237438
Ni 2.516648003109197 5.500505640367488 11.178066257308474 0.9921406303111105 0.9240089676401958 0.8810142092462246
Ni 1.325850464873716 3.1642487885798487 3.2604997436990324 -0.24850251985492042 0.3639064852492378 0.4108450587823053
Ni 1.9442086851743958 0.8539473218935866 2.8800188579840817 -1.5836784483932145 0.8314189148166004 -1.0510122078363382
Ni 1.3289897535950346 3.6674513659586294 8.063533458753094 -0.5223345196135649 -0.23299799646141806 0.4617251334616241
Ni 3.549374188446369 3.114092753749069 6.881788141203334 -0.04272736366519738 -0.17830471868359613 0.07459181647396186
Ni 4.497384943751886 7.522860839289624 5.564698650865182 -0.573351119870748 -2.4634862960361636 0.2715038658461001
Ni 8.356423652598856 7.3192062883106646 0.4457345402921887 1.002660556005828 -0.09788189735015401 -0.6728006188183381
P 0.22261639924105253 5.8336785338228205 7.764826507684099 1.239295377888885 0.48105982923449414 0.5925991694670826
P 8.826373359562512 2.071377097654174 7.8325779836052085 -0.09688070977914928 -1.2606404192235643 0.10502545037347073
P 2.1408497385187335 3.5476956670202306 10.212920973823158 -0.15085562133370795 -0.33367134051378017 -0.6990418119030543
P 4.687965173784543 6.217633505235439 3.334918125262987 -1.852709941439422 2.220631461385324 -0.7648589675081795
P 7.431821466371382 4.578035630005649 10.127123124298864 -1.25890800991349 -1.0215885032585825 -0.9255053496800643
P 6.481823704620869 7.803219282898725 10.180266927268171 -0.4015430646550891 1.5559763544922556 -0.2698452471967546
P 2.531827280654764 8.615097414000003 5.573037726772014 1.241692931586784 1.7286218180075454 -0.6162728589349387
P 7.103049020979169 4.035174581526047 1.096218753380283 0.28813504664487793 0.1908064506950327 -0.10951408227244365
Ni 2.701494041026615 1.699988354215621 0.39496062811481375 -1.8193928153445311 -0.43345868241676316 0.23036698659647423
Ni 1.8435972035827677 1.1225769836239334 6.926565648999438 -0.9743275133890897 1.3525265040015997 -0.6480753481575161
Ni 7.354718357834484 0.7783439949336659 9.131607490706985 -0.20872035486097604 1.1148634979643444 -0.1656795737204179
Ni 2.965484632458666 1.7736890544562913 8.856963278417789 0.32938916819865854 0.983423562153087 1.7953177766731985
Ni 6.639686376477009 2.309209974104833 2.2906400832784657 -0.843696703742689 -0.59268170187856 1.2514978334923479
Ni 4.361914655029313 7.228275792457901 10.333391632158204 -0.3857482637146776 -0.8272547561365818 -0.08780908649518425
Ni 7.523877025234098 6.394114155288533 11.4275063362481 0.697725921305108 0.29970063999529034 -1.089279478847653
Ni 7.806567252662212 4.171488667506083 7.767309812085906 0.4753879756606974 -0.7362629010380417 0.11408884612731963
Ni 3.502901827664304 8.536506318901557 12.315564842756341 -1.23544643645644 -0.09311352942723318 -0.034347624241934396
Ni 0.35991854459031314 5.243437815682159 10.341690786474361 0.15364269716054185 -1.0454593963389092 -2.270041893497652
Ni 8.990287781641541 2.7568217364676597 5.607086307074018 0.3274960649410037 -0.16300459799141606 0.06726340113334868
Ni 3.3823023314684413 3.4235667392850817 11.945189563335623 1.3378164514849347 -0.8136343371396698 0.6569986187890751
Ni 1.0823922733732956 3.673503116181518 12.53779563572382 0.8917128266106514 -0.38300849618601135 0.36607083989040823
Ni 3.1571354869685373 8.59197918376324 8.005913901083709 0.7377759952484584 -0.25388435299212403 0.06450280766907601
Ni 5.822781754186105 8.201400857533967 3.3259412112142224 0.30709384713556787 -0.5798374989260401 0.11463469132846063
Ni 3.4725432725731697 8.34090867076806 3.305915996945949 0.014737820430806877 -1.0725133151329078 0.9726655523056343
Ni 3.817547473810582 4.67825696877931 8.898234944705463 -0.2514281781421476 -0.8489870056073509 0.32788815817309985
Ni 5.6733116894606574 4.409747979129869 11.593126499019638 -1.2146541823014372 -0.2328136483647539 -1.5849298043018123
Ni 8.089248407001538 8.7070803881524 2.518315636828788 -0.06287324248545302 0.8737546994703339 0.42991158849545313
Ni 4.830721152805436 0.5696983378113607 1.386978585978169 -0.3337721277577026 0.5984646271089242 -0.28307048763777704
Ni 6.482721940411073 5.863066268413432 0.036642576387045704 -2.0518218266763566 0.01677130592106789 0.7714332782915875
Ni 8.004415026815611 -0.09713376665844482 11.31699520747777 0.3715436900795214 0.41466777496250523 0.3296483353973161
Ni 8.944214636766233 5.268316225144171 5.452714052475366 0.7289131455411898 -0.459019561605003 0.8396356462994378
Ni 7.338804160096932 6.030700656896336 2.147874123859904 0.1707212499093834 1.4685213089023808 2.288656937495678
P 8.575166750235484 1.705296111157735 3.22763338686636 0.539756057524122 -0.8987854171867166 2.4356775013540117
P 2.248474717744984 3.773298019782052 1.3172246793611215 -1.6512730076137367 0.43424466865316824 -1.417561530025062
P 5.011021573239095 1.572293702586026 8.208464257156933 -0.3197925256491589 -1.5600353550529777 -0.9567349971183071
P 8.895691757917643 1.8076224065306614 12.301409009626278 -0.9355447361939372 -0.7679075245265162 1.392710789529969
P 6.450521548295581 8.083623091951775 1.1562163676215096 0.6360032474843305 -0.8518805251050621 0.7866866049062323
P 1.984030471873436 3.792932183923479 5.345243315758544 -0.4736864195885584 0.5422970787784209 0.6326842104134266
P 7.0041704993464196 3.910102052556745 5.6115221401834185 0.43374818863272396 0.6434661315202789 0.0681450324073536
P 2.6700648614582674 8.54316596607337 10.225960817032059 -0.756294108657304 0.4733264651459784 -0.7242357946701785
