# total energy = -381171.29787493404 ev
CRYSTAL
PRIMVEC
9.17547937850852 0.00000000000000 0.00000000000000

0.00000000000000 9.17547937850852 0.00000000000000

0.00000000000000 0.00000000000000 13.42924154211219

PRIMCOORD
 96 1
Ni 3.232117632067686 6.941479468341224 2.3938293284548546 0.2655946994505168 -0.08543544405668513 0.32846202839869887
Ni 4.128249992207818 1.770179341634091 9.4273278434794 0.16464856135274225 2.9260205556626446 0.03543725776168735
Ni 0.8919318257220942 7.231754931095849 8.24525910473993 0.7583808159830036 1.8225948672215966 -0.060706573851437386
Ni 2.3214421372561 8.405344609425295 4.457487292663006 -0.8722608885336267 -0.5336090640861197 0.36767623670431515
Ni 4.577490633626747 0.6191732704761569 0.4685366743615561 0.9524340557501082 0.34001065246824663 0.26761378676307457
Ni 4.800968607164857 5.209846315195949 12.292791488103434 0.8285104829205537 -0.09728180187230988 -1.090323346731135
Ni 4.28081068632911 8.606397711583575 5.553917613016017 -0.01861941487340019 0.7380655014644192 0.21785188484859905
Ni 4.141077312252419 8.86261379522121 9.206375879389272 -0.11998438567614819 -3.797307253208461 -1.0086162593686308
Ni 4.602897535775171 4.063572038706828 5.951275506801046 1.8438136673910568 -0.2571486255656926 2.095484300561314
Ni 4.005206814955969 6.496120054661112 9.840612534212509 0.31183907513003717 -0.22452595443466491 -0.4151141184713044
Ni 8.887873889701025 0.23825141273969141 2.33433827339536 0.7668243187646665 0.8807396154285992 0.7534412125895411
Ni 3.4035522870843575 2.5370383740858333 1.9267735764503788 -0.7361271467911258 -0.6075213379945537 1.0761257150745143
Ni 8.589955252699509 1.0935611479796596 9.319813247374533 1.3701987244703822 0.04390492891306632 -0.4412660942763239
Ni 8.112013712067771 6.476365247754085 7.005659193316878 -0.24965360274022808 0.5127257928792073 0.555131768649244
Ni 5.578618003259267 1.8610165865851211 2.6239393384223186 0.19127824812512864 0.16647610147978423 -0.4324384686823649
Ni 3.457880299948504 7.358037052536357 11.862331217691148 -0.6446799493227219 -1.6738604059959494 0.8913932384877036
Ni 2.2399547056995246 4.4661278415084995 12.056464173370433 1.890659424100002 -0.4560810478019694 -2.3481558641922593
Ni 5.544448518390819 1.6023965273740364 4.946688063929028 -0.29553648131527166 -0.5590182481878436 -0.06606500994987331
Ni 5.7343534132142 7.792404242029465 11.20988490667298 -0.520927097743077 1.6841049665420933 0.5586251265144832
Ni 8.51717535098723 7.814930043681463 0.620523901027348 -2.845277889095939 0.8082000534979757 -0.9428453836204084
Ni 3.4409790671000393 4.124772485557673 9.841458513402863 0.7369301023083953 -0.42853656252479744 0.049602493518475864
Ni 5.6365886814007435 0.8945046301144446 7.2686036559163885 -0.6155251821356367 -0.6484029067002639 -0.3719080153974756
Ni 7.607857827110266 4.293160881450734 7.932062377175995 1.587518133854279 1.2402286883364317 -0.5123822934968595
Ni 8.331518703074186 5.999442185323312 9.429341861183113 -0.3157769767318626 -1.1403001928698941 0.6761782770413193
P 1.9178586807741749 7.452131592634621 10.261874386638592 0.36396407796005065 2.686965040153237 -0.11180390674788487
Ni 2.9684694102067866 1.5980289992329568 4.71382449262724 -0.12577836665010594 -1.0473422151839187 0.46351256437935007
P 9.351097961554839 3.6570707798113236 9.409036525518806 -1.60487565129612 0.9166077900801182 -0.5366061990412306
Ni 7.597489535514845 2.5007585289811494 11.058349113588157 2.3992326282634164 2.1460890100920587 -1.5829405417859255
P 1.3317657657749824 1.9281994459317315 1.6290072524050445 -1.0661094684890928 -0.8937717660222091 -1.534210937790706
P 6.380628296863272 8.66496479587877 13.196096320402985 0.9763471149222798 0.3618524309336865 -0.15318401235656845
P 8.79760552446585 5.610365161595688 0.6291635323249126 -0.07898557466628332 -0.4510409142749007 -1.3723746490757784
Ni 5.474109294169143 6.811187662451867 3.545373082699064 0.31017917092911096 -0.579695316921221 0.5491269572160608
Ni 4.413203676975415 4.771579547005449 1.7081998965916956 1.7384750566525413 0.9848240420450395 -0.22411560637012373
Ni 5.499204230021776 7.409511491341941 7.078955674513071 -0.41109625556116297 1.281636047638625 0.5125874675291301
Ni 8.75949058350357 6.834520906281208 3.3615267568495386 -1.4747896584095956 2.488144718014792 -0.25714194069747326
Ni 7.028444661032725 1.456157738482166 0.6190934438063515 0.38234926533545766 -0.14789782425696463 -0.5140974764157532
Ni 2.558554873016153 3.008639658529576 7.701374312013387 1.3680138010039216 -1.6370488935945549 1.7236513613761475
Ni 6.981613014746861 2.9927110264856376 6.073226802017627 0.32140306466938845 1.5483252657049011 -0.11103643245424104
Ni 5.782643960706854 1.6142604220933985 11.581163335677775 -1.9805673021057442 -1.3141823570057625 1.6374805818153348
Ni 7.894986100469113 0.9476435008628684 6.331632155013372 0.55839089901649 -1.0422473171595146 1.1837510649646774
Ni 3.7963545554029032 6.014563375189908 4.965757462533243 0.4261312955174145 0.19721929619991194 0.362489293186737
Ni 7.6448441841201245 6.482769732297098 12.15189191060924 -0.035566584250700035 0.7021176226149004 0.9166862087265373
Ni 8.198575183670602 0.43978806265644826 11.724574241853091 -1.5474901713981153 -0.8712311617175318 0.441975975859155
Ni 7.78783485334405 2.8837613854201294 3.3888559219087955 1.157768781968303 -1.263850955741062 0.023268740719953475
Ni 1.104076247243688 6.962757404810056 1.519707108030735 2.017606614247229 -0.6827399894192371 0.7726275557100047
Ni 1.58350421552008 6.205844591906487 4.334072508499992 -1.0176881397629118 -0.026972157713469676 0.9326838697063744
Ni 0.2063739625973814 2.5490490764738025 7.423644482089221 -0.16772411495427245 0.13637156878491996 0.23528293584085289
Ni 8.476390345552145 5.008628054410485 4.823326497545884 -0.7377680248286584 1.415518531453104 0.128815610814533
Ni 2.4847748440614827 0.29067092591193744 2.4599817814774245 -0.7386134035480894 0.10429242886218815 -0.38943753964080674
Ni 1.0093210726366892 7.025765421080634 12.4279169364817 0.2560782753196493 -0.7063789689944158 -0.37152157859233437
Ni 1.784098543713961 0.3270517012887894 9.030372753235113 0.5524488225004421 -0.6411799065892635 1.0727722252212493
Ni 6.819941069692603 3.934564799917789 12.91459261584767 0.3623627949112017 0.3549405343052016 -0.5286586620593798
Ni 1.121234393512216 0.24436228194548798 6.878417316742847 0.851810848209391 0.16657611739275827 -0.8043310574608729
Ni 8.86310927110276 3.2483307039695513 0.7668608675476001 -0.9079863669596943 0.36383989367736047 1.7587062960977518
Ni 6.119549209203009 4.303327312501819 3.9061501756587633 -0.3695166323471636 0.6685374726666099 -1.078527896758104
Ni 2.6200214087663505 8.737258397188786 0.17916316122093948 -0.9624377039300391 -0.9472661383959234 0.7448110477183689
P 7.116832053013864 0.5426158239410144 3.7377067268899746 0.7360430717177517 1.2178819452101155 0.9721148220084871
Ni 7.991851635312348 8.164433225240018 9.998822570931413 1.0112148733337423 -1.565240296292685 0.21650128435797555
P 3.8056860178387817 2.5611882355718043 11.607175819459208 0.26065535316737043 0.9627009848937551 -2.709309212176392
Ni 2.326736388805266 3.869024351363727 5.744774005041562 -1.9194431811009138 1.0508836526782739 -2.2788327523164043
P 2.400433838446345 6.953921418255729 6.451044595110967 -0.9272884097224159 0.4655540202894111 -0.9137883183534522
P 6.54975990657866 3.5617467254884696 1.5752637175715425 -0.4232758283464904 0.21296421773899454 0.5986613165007626
P 3.4389696371359713 0.6706513794734559 7.349836926696686 -1.0507286151576485 0.464985806490767 -0.2908282772063249
Ni 3.440758855597128 5.55558755024643 7.696379181089009 -0.41302226893928223 -0.4120257093539679 -0.40459804943132904
Ni 4.520171414514718 3.1003852759301163 13.502430707007438 1.9207307895640857 -0.11620383558779343 -0.5030214211072498
Ni 3.6334530961240556 0.2675055933535671 11.416224919996996 1.3835296372513335 2.791878904649508 -0.02522920688043397
Ni 1.4459087281174892 0.04377712923089497 11.563342719804655 -1.2985145685615187 0.49156458542055986 -1.5248888890588317
Ni 5.81891463033225 3.6812940451315983 10.148960938520675 -0.9454769077059845 2.18729993711273 1.3125792741847007
Ni 0.35545347987681153 2.5603716179151736 12.27166769968664 -0.20452842826681547 -0.2692778047290588 -2.3845405734688807
Ni 6.4229731337773135 5.563194022576169 5.76764388716686 -0.8368907365644491 0.7929390135738472 0.20438033272472544
Ni 6.894501014386751 6.102400238413768 1.7953953938133251 0.4867795053270907 -2.158664532764224 -0.8865168842320087
Ni 9.228972332231788 4.83329382069642 11.782118260207675 -1.5697525823407417 -0.5430434700261422 0.25567872588838547
Ni 4.933554282876209 7.197218427055882 0.5296802332408163 0.15845914471257871 0.29554393751443936 0.7936586653486912
Ni 0.36510975427948467 0.6077039213661785 0.04132727626100354 0.9596665689428053 0.2454907296117901 2.0690536171736107
Ni 6.776944773749116 8.333216166742462 2.2468601714116607 -0.2295249503111531 0.11659721437147015 -1.465723177331953
Ni 0.36623191539640493 0.7971408667458723 4.6595974100352615 0.28699064862778967 1.6033949529855354 -0.9818968410959156
Ni 2.5769517089885587 4.669750077867414 3.051244161507466 -1.4919366025025274 2.543417522445168 -1.1075196560047635
Ni 1.5605379908622588 5.4881202510418925 10.018013085862227 -0.6678926399937595 -1.098782790352398 -0.6756733123804427
Ni 4.632791247295419 8.80674430183668 2.9121980308294453 -0.6941646863164109 0.9596925370847345 0.6678360757242112
Ni -0.042075995370902945 7.860981774227849 5.442468571392462 0.9533491113652097 -0.7753619239220324 0.14646340580328324
Ni 1.321379123220986 2.907516701296717 3.418547772884708 -0.723049230561245 -0.6869198318285396 2.054901751153261
Ni 1.9899504215398558 4.216967701443325 0.7394298546682465 -0.7386699678176375 0.2524856728723845 2.567289443966759
Ni 0.14025087110853302 4.826834283277681 2.60440015527856 0.19417151051252365 -0.6619459354920212 -0.4580366288664434
Ni 6.289818578350106 0.4170493898849692 9.568844930729675 -0.24990942750477607 -0.05700932750550827 0.3198976837684555
Ni 6.84106302301354 8.30906630525649 5.456247388639227 -0.7050965027375663 -0.6212672268257364 -1.3242903919740419
Ni 6.803012310406275 2.4308780787238717 8.622808056290133 -0.22638589046153915 -1.161200433357671 -0.9774197791611683
Ni 2.3809359449593814 2.1192053982696706 13.04438619321169 0.2435266639068838 -1.873564673401244 0.7148335275196721
Ni 1.1306576107409745 5.082509013637323 7.641211611870013 -1.3265352221441606 -1.5530285847178413 -0.7466195616820174
P 3.16168665305313 5.93449814292297 0.04959530064740489 -0.7783865696809691 0.5009439697529309 1.4023573114807977
Ni 3.995480806910707 3.5499103572069717 3.9944880200517474 1.3004148709080248 -2.13070712831935 -0.8052653963496841
P 7.370332194782254 8.349906363567303 7.9245146279137 -0.18163943948378394 0.7856874742177566 -0.7123747815665344
Ni 5.659233764283485 5.634964621566771 8.232151932577047 1.5752431731416678 -1.8235310058826208 2.0353960770201653
P 4.87723519100657 3.5362939459436054 7.99078819726287 -0.0003920932320960989 -0.4240322468965407 1.1309766014761231
P 6.366910955327738 5.928323045362158 10.610578383951164 -0.7227224433494457 -2.1808798925189987 -1.7636484705943754
P 9.294577009140864 3.286647505476168 5.373992887014175 0.8222202790364678 -2.5619865436966074 0.2902058131309776
Ni 1.6525588726414386 2.4085449621369217 10.107572186548442 0.7824013472673171 -0.1922897201087785 1.1137910908357722
