# total energy = -340862.27563951997 ev
CRYSTAL
PRIMVEC
9.35321817453726 0.00000000000000 0.00000000000000
0.00000000000000 9.35321817453726 0.00000000000000
0.00000000000000 0.00000000000000 13.68938023621765
PRIMCOORD
 96 1
Ni 5.397115598206539 5.175481738071845 1.836594198282588 -2.4438075866603137 -0.9091292223148859 1.373042107456448
Ni 7.518388089053422 0.5677702793099374 9.086216625015094 1.5412321063035457 -0.6300393165914117 0.4241402332293147
Ni 2.228161069240675 1.6845987894581096 10.971271717800127 0.17852737621736353 -0.2704206600842504 -1.195739347674805
Ni 4.415186684528262 0.41846111477270953 11.029766744863021 0.1320433737232113 -0.9672346110980502 1.0197432225197278
Ni 3.3931698773431784 8.553228158487183 3.701622180107101 -0.11938480441893633 -0.9694850976951239 -1.1098367341737145
Ni 3.6771148775950775 3.618619850532182 8.719300160808569 0.9616558314586922 0.4154712447004071 -0.39747172279919285
Ni 9.117900651905973 3.7179977946548655 4.718797761515441 0.002363358025853994 0.5541562921098521 -2.7270271982814456
Ni 7.775068458047192 6.6078429372146115 11.853675841828872 -0.4011923661838897 1.751570456383919 3.5029987307630184
Ni 5.273437993017433 6.2357064418913914 7.77141976759992 -0.28059785772756834 -0.32735876803219105 0.7937797643075878
Ni 7.775957013782877 0.8043197166203895 5.669949910475065 -0.057999459332919466 1.7702526061744543 0.23730202315341067
Ni 1.714566500796376 5.031919190839933 12.95973599178237 -0.8198638629891493 1.4755591895857685 -0.3015641755665903
Ni 6.921942713170185 4.662298711231443 10.835596739535617 1.1025607693375914 -1.9516542186158194 0.5366249680943082
Ni 2.198053059628353 5.4899556427582334 8.002346050086226 -1.5884295899249545 -1.4017456460387279 1.2056314099775365
Ni 2.56151912161494 1.5085525151732015 0.9674136542444891 -0.03997705461356985 0.5175227000472183 0.029492095921845984
Ni 2.502986681678963 6.750021208142509 10.362299576687379 -0.7707714763378726 0.2389914950406916 -0.23929462810340726
Ni 0.23842195160818022 4.078592418632448 1.5724031950177109 -0.7562514283448266 0.04762814340092442 0.3637285649104768
Ni 1.8488693619406218 8.799030734632513 0.38705207249897927 0.6736807074304463 -1.1503472926932512 -0.16520160564273487
Ni 1.5420089769263159 7.961291033810263 5.072051979794438 1.1308796708869426 -1.9973306376070117 -0.769610623260552
Ni 6.2394944952908915 3.89773859015657 5.2990630051127665 0.04080546405213618 0.13294711648440327 0.28228784383548156
Ni 9.076456541749964 1.691856886835917 2.97514088125456 -4.7353935248773285 1.353806656265604 -0.9237120052250672
Ni 1.1061115926539822 1.7573013550736973 4.878156023762355 1.2042813237075454 0.35371360387663603 -1.1432767589997148
Ni 0.08319500587128902 1.9462550705717165 6.862021320321057 -0.4133891653603977 -0.000886773480327505 2.275940518370274
Ni 1.6543411283534621 3.637831360859522 6.310462038917326 0.6291322313961101 0.9818685589611412 0.5573166921157048
Ni 0.4460381435210691 3.5717508737793566 11.624870869246289 -2.0072607522365304 -1.3171841199465637 -1.0081298066505153
P 1.5662057525917634 2.637514020061698 2.9987549514217635 1.3258934747951037 1.734300870670194 -1.8466945884832777
P 1.840507584806911 8.91065204147111 10.772091193445283 -0.38677773342045646 -1.1472478278323208 -0.285645704564121
P 8.906461799685985 5.097840673209502 12.812562166976265 -0.5641398856851252 -0.05438217429530634 1.5266133279491063
P 6.893125447679174 5.939471312832226 6.427642898695831 0.3987642163583713 -0.929834316072721 -1.0407789601441042
P 2.196023411263683 5.8672364081301565 5.742188556464442 -0.00030236173176722116 -0.7099697716694676 -0.19013539276993704
P 7.9020009831943865 2.4005782948366794 10.7842204468983 0.7680985574913997 0.07274216485973278 0.8348171418648719
P 6.563125200663971 8.847452345618219 11.445143168250164 -0.2405416131366309 -1.1760835211170906 -1.8536807899931236
P 7.2504090323890455 7.9526299536919005 0.30504960195716246 -0.044629722894232816 -0.49019598720780744 0.011735800379689465
Ni 3.4049175194907635 7.67948792054228 12.59087592881926 -0.42795497898971463 -0.4781128307910282 -0.7558248823303693
Ni 4.497364060251734 3.15345624629186 11.238515611508452 -0.3830372925414178 0.5766920113185229 -0.0789377521474834
Ni 6.312524423545941 3.9071011616452105 0.13340588751211746 -0.8742892318175651 -0.004683007297966129 -0.8262684809639125
Ni 6.984861812474964 7.110980607632637 9.772807383266334 -0.5870108767460277 -0.5095396818417418 -0.6427145980662351
Ni 5.318978812775866 8.982400578823121 13.13736950720776 0.20226842858804522 1.2091623059489303 0.2812002671982577
Ni 0.9952198368404728 7.265327415530287 12.18565710047374 -0.4294619025525442 0.3950733977703454 0.2901819018715776
Ni 4.319811917825297 7.730154303912875 9.457417798511278 0.8312926736513813 0.4465947055780889 -0.41316547938536585
Ni 3.305623754332513 0.6095295929216594 5.377312029162684 -0.9839321263583894 0.28828391351791643 2.097098696236285
Ni 2.351268128115288 2.975969576393315 12.843568085542543 1.1520385643527449 -1.5528365233116934 -0.044008801480782275
Ni 4.936675369192753 7.188761970769035 5.150026954549033 -0.5851601966905341 -0.4194675103439937 0.8338995151466091
Ni 8.471995457809019 3.99348748559035 6.751793643004745 -1.2808955699281745 2.0042782725694384 0.26346891135676564
Ni 6.374021833673626 8.318724270012462 7.998937737348504 -0.23919126975632357 0.6097407142433757 -1.4758576946627935
Ni 8.536485897783221 3.4138872558120483 8.931088823391871 -0.9100813018155102 -0.8482383003667844 2.0233867112641155
Ni 8.965012946058502 8.139469841860816 10.391621915964992 1.6094437302827764 -1.1507203597619537 -2.298161277441687
Ni 6.3707388540607255 1.7434772984700901 12.19766195612376 -0.06130178423327507 0.019816520505294904 -0.12736833684504517
Ni 1.1825180327046365 5.663298836963005 3.4672464307226836 -0.16363503248656336 0.6795019420979136 0.06405954948407033
Ni 8.517414685729936 0.3532037109003365 11.735741112657776 -0.25776774720693024 2.3983491972171986 1.286900638471674
Ni 5.406740059806749 6.577426271399368 11.525158079909525 -1.2733342126411489 -0.18183021533835136 -0.17573438685325862
Ni 3.3827316857534453 5.087308949437066 3.8939168651712968 1.3331470710337234 -0.5482905773576945 0.31258212394364876
Ni 0.5878394797526708 0.8302393550912395 8.985572255138603 -1.2771864965077036 1.3851987974236402 2.4582057643635147
Ni 8.633572303429663 8.69383508874566 7.277575454855336 0.1882572019106177 -0.06162600034191322 1.50979342817829
Ni 1.290182928214868 0.2836718862784043 2.751784158314465 2.0976044322281098 -1.3424686055449655 -0.07640418709235229
Ni 6.1846191636986285 2.2382251320995934 9.434542632587434 -1.2590535343524187 1.5802241712960268 0.5155995148825765
Ni 7.7704573214399 7.861903736469309 5.462514235674794 -3.293426055204076 -0.9438794813118776 -1.1606368475447173
P 1.1843980295769807 3.3954520626011484 8.564925293256108 2.321781230853472 -0.3257446294675358 -0.9013426363909316
P 0.49584590145444457 1.1443943150346074 13.234989046295613 1.5403512463604891 1.4720974562894131 0.3992336997956221
P 1.8429768344302886 7.603801678298444 2.403472180569532 0.17208624857771007 -0.4180752579821574 0.34019577189585926
P 4.169608585621422 1.641330801739377 9.408875531009883 -1.7815731733935962 0.009525422991931981 -1.2237882833922213
P 9.09479820277816 6.7344106868492615 8.502816182653541 0.0653875242668745 0.5594010854485592 -0.5691851614185165
P 4.62078912854754 8.71278470896143 6.912343505259304 0.12353636469346467 1.1274163949286906 -0.9883374545149366
P 8.402379454222652 5.575575002805202 3.391215054724671 1.0637075439158197 -0.6093087689122797 -0.23481782327897624
P 4.790961581758655 7.381877868397369 2.7383828671766786 1.2051403292737308 -1.9370647508374188 -0.6024948313142399
Ni 2.6923987048722307 4.014578992790035 1.386309693666771 -0.04454230538674909 -1.4666024946131129 1.586132823470978
Ni 4.767279233098078 2.4275249166736166 1.5256810637917304 0.6307515121670879 0.9987301106031701 -0.5171815146577158
Ni 1.310367173242327 8.300036539908263 8.193586627451351 1.5420592301905311 -1.4376619003193627 0.6941276624308884
Ni 5.654029797657067 0.143550388048161 4.799743318392706 -0.9845697599423883 -1.0970020443028912 0.7452298804233423
Ni 6.431553479254673 6.104639794268693 3.683825811704068 -0.17850140807543452 0.5518651820828302 0.7442040102619893
Ni 4.6662177096867286 1.9356672274896574 6.72463470311307 1.2712837578700233 0.7103214985819315 0.6919442816263245
Ni 6.390389965646774 1.900265296336306 3.5223181798986234 -0.7617379053806945 -0.44380994374410015 1.373509276900854
Ni 5.379419309238998 6.830337293430178 0.27854725798806845 -0.3017423530156675 0.08076374961262865 0.46233731312432635
Ni 0.5701170017739733 6.670135370895277 0.9666083421514103 -1.125237642109817 -0.6320116098264341 -0.3225634035260767
Ni 8.978500286804376 9.115618466648005 0.9168024548616888 -1.2710024791841787 -0.24947953905620904 0.6687447035814096
Ni 4.674401775673302 9.328628659537415 1.6439581207515241 0.12519446912217794 -0.6705077090191034 0.4594905877041506
Ni 3.1355261268675605 7.287999616617664 7.256713101503275 0.6725229396769192 0.9641747412258039 -1.585735073811927
Ni 8.263250332450895 2.8063957291515025 13.434292097809797 2.0848029095880674 0.07019548717847911 -0.7473132453149323
Ni 9.09504138645319 7.842009441208232 3.579567358287905 -0.05752997589566866 -0.8430485286357287 -1.6802328851811967
Ni 7.535102290102574 5.801819999547187 1.3184184235294616 1.3033058193025748 0.3867576788157984 -0.6931843246810127
Ni 6.949787243961076 1.4554542950523097 0.9975618826953734 -0.3847761296093954 -1.9406157014134706 0.15924873049340962
Ni 2.1464513544307207 4.335572090610871 10.364366637925132 0.22623290982344263 -0.0315381798175973 0.05520055643154364
Ni 9.271368257286209 6.349422869622553 6.068666381479023 0.9423082801700159 -1.5866377881318545 0.836187282739521
Ni 3.5074007320792098 1.4804554474890095 3.182342725598071 -0.25795543773770413 1.2580811431368204 0.923909465947854
Ni 6.414923457169955 4.076843366815889 8.005207199555132 -1.3339975919594769 1.3477041429122918 -0.7119587770750384
Ni 9.09909132996426 5.623585072187012 10.358480657667588 1.6508950554490278 -0.7898236078733172 -1.2116981849969068
Ni 2.904501635589416 6.148758924850029 0.8626996990985594 0.9823992346536307 2.2180174208012446 1.7989381470346049
Ni 2.4584840691485415 1.4071262162493068 7.899689802959778 1.0859329309729233 0.7235853055703731 -0.6038063510368117
Ni 4.000988766643187 4.697204921816465 6.376061770578393 0.12793192265799905 -0.5375536505561646 -0.7508827078337456
P 4.36032070615427 1.8458108595662108 13.149909366942845 -0.24608619710394392 -0.31979458253168797 0.16119608402776753
P 5.167409910704516 4.976061771329283 9.903144479863943 -1.5529442525341515 0.7004078390126454 -1.8362368834850635
P 6.989968669650587 3.2068911822704846 2.170793104979359 0.8960520774159536 2.7240087231700953 -2.310316938967615
P 3.8440698237211857 5.282304843937744 12.834930388469857 1.6355933920949508 0.5133881090535545 -0.5277153243095041
P 4.25496605555682 2.894446925948768 4.715963736379519 0.5763197155807688 0.3641890494866631 0.5275715996427882
P 7.567417659226703 9.385019212489478 3.7378303586753585 0.2400356200344898 -0.41464797746816334 -1.2630981367354377
P 7.09791416170893 2.114042453123888 7.281737636985651 -0.08107382465387973 0.31846917885204507 0.44089662675204716
P 0.9925354631968766 0.16179664624999923 6.164068272514972 0.3311169495230426 0.10060443848763964 2.5749019662066943
