# total energy = -340871.94652221573 ev
CRYSTAL
PRIMVEC
9.21161642474770 0.00000000000000 0.00000000000000
0.00000000000000 9.21161642474770 0.00000000000000
0.00000000000000 0.00000000000000 13.48213176207486
PRIMCOORD
 96 1
Ni 0.6286845199977066 8.426952373221948 4.422584481756374 1.2592967607114762 0.5257373746475268 0.8330322820503072
Ni 7.815715575601937 4.569081421112109 3.98592439336905 -0.12726112184321953 -1.949044291796798 -0.44257247179257325
Ni 1.2506979874924156 5.811415261031034 7.355311625116124 -1.075294991643103 -1.4028908153867645 0.95726875813459
Ni 4.580688057612768 3.6806394550680324 2.619511003449948 1.0837544352643658 0.8701852369515206 0.5996277941790898
Ni 6.9712130191674975 6.008341193658878 0.027159529411541518 0.4547052505003653 1.137820106760518 2.1937310374500543
Ni 2.436877814627201 9.078351817780744 9.553451980864297 -1.0290462450882083 -0.4523999994059563 -1.6699489867566852
Ni 4.538710722268719 3.1073913629470042 12.019333490480365 0.7399184955127579 -0.5713029790924677 -0.11570915533956203
Ni 0.3147305296246492 8.440124984488568 10.946331265489784 -0.31714557494461515 0.35791864309691906 0.10409856768382716
Ni 5.742963740525958 5.731283411095137 3.8201217486338854 -1.2991599154550013 1.0211437024116803 -2.49694586124619
Ni 2.1034909985701833 5.630250403841783 10.550104645559594 0.3865900428896826 -0.2746282704076948 0.7961832315427578
Ni 6.444336203351481 7.51422858668919 2.0654221520096496 -0.1822783586193635 -0.5047288907166598 0.624405258234086
Ni 3.0000299753159103 1.7722965471855125 3.048848778063959 0.16435519848203953 0.25303126096320944 0.3846861409987504
Ni 3.151662390742374 5.387321659559742 4.746667565380323 -1.00732325158882 -2.012341252083231 -1.4974647314096081
Ni 4.976649382994369 8.774147402068241 8.51833437010884 -0.6923934533486011 -0.0845548412239447 0.20599652817190975
Ni 5.432780985853989 0.5247470901343073 6.004240182095312 1.467210560510757 0.7444138122799503 0.28681272828902865
Ni 5.794539580023727 5.10949010122929 8.126246529368927 1.3553976549018076 -0.125232521448965 -0.992699073917742
Ni 2.576535128902191 5.208192569566241 13.22834430854125 -1.655572406320039 0.9884138162788269 -1.567913472249474
Ni 2.180389571195183 3.2703817012348266 11.524660485145544 -0.72840175312241 0.07328415340613186 -1.0050565670418303
Ni 4.902855125052483 6.9121573472581925 12.799166816050343 0.5149577675335195 0.7209041591937843 -0.4327493150545644
Ni 5.919467519882405 0.7353485882771337 1.7324940744428963 0.6785953711232442 -1.2987207710350537 -0.7988782618764176
Ni 0.08143529363815384 6.657925949812413 9.54385255554895 0.6838674181554609 0.07075033124068461 -1.0785572073341425
Ni 1.191762066594626 0.39001430591745384 2.3060111457590193 0.02799982764703565 -0.9511521037138909 -0.8195481315209433
Ni 1.1068125413493284 0.3374426907008589 12.825874976264636 -0.10023651362525964 1.5025190060040639 1.050473818834365
Ni 8.11988314484936 6.997825378572578 4.413604998216023 -0.9070193750607347 0.5231246196150281 -0.7493397888266579
P 6.573814681647718 2.5804500658170957 11.246901698583628 0.6180484627781226 0.6420363410522878 1.0990242169392426
P 4.409020376798263 1.9156108731198371 7.719005579864265 1.0989069746350881 -0.6216595771681487 0.8267994137667181
P 7.427270929096953 5.768203569106756 9.577328490237083 -0.5132238155615484 -1.4252262456591713 0.2612829594490403
P 1.9893222265152908 3.5027078751896794 4.126476155583893 0.7575714327078308 0.34532949357799875 0.18439026275604373
P 7.362577748030186 2.2144172816979077 4.605940782456344 1.577961086293463 0.014916769210832372 -0.15477655365466894
P 2.62584491079745 4.359747441368085 8.673500361536615 -0.45662920699595555 1.343147376779545 -0.012538241676326793
P 5.202389251315912 8.64888784402383 10.74725442046281 0.20353675377750752 -0.6563519863440115 -0.050968006407434804
P 5.281747325485099 7.168691648771563 7.248358312085806 0.47943489203656137 -1.4227132494293304 0.5166382405597361
Ni 3.2239090971508393 7.668053366788 11.307800614908633 0.8634301776158744 -0.7331287262844342 -2.358053068701313
Ni 6.124241749572599 3.0518361052204384 6.476668055298833 0.007753418693173743 -0.19960785103674658 -0.1542001123259086
Ni 3.7080808599374473 5.12796860346764 6.845067303637878 -0.774411387083305 0.4455652358723101 3.192229748768709
Ni 8.830771207282169 7.635739016911564 0.2418611179563069 0.2899409895053651 0.5000996194747646 0.18568095654300926
Ni 5.381149876658597 2.0369002245517214 4.029728392219512 -0.05210391978409091 -0.716776767288972 -0.3764400989398743
Ni 1.164136429399804 1.3619651004221436 6.715476443623141 -0.10268266117290703 -0.9755004506512682 0.8383740059781949
Ni 8.30686974352148 4.217160833119119 7.333713148447001 -0.3369530965888455 0.14848172178489266 0.3038925665894508
Ni 1.3510032770604101 3.648223777412621 6.248441971745918 0.5331745476518625 0.3812298070190338 -0.44777844147354495
Ni 7.314207550994504 0.44316348947420064 11.11658404204516 -1.0138967910412795 1.3267360253010572 -1.4333748429082345
Ni 0.5857095666115769 2.93956492611724 2.5892167610216013 -0.9961996308718328 1.250910336419994 -1.2865836214518873
Ni 5.308718937924724 6.44050417098301 9.940901772812083 -0.8611490948911814 0.8119944875434016 1.4843713885607597
Ni 8.580445535135024 0.4571596192353919 9.279252562829251 2.642662875801752 1.245249281479475 -1.5970903509237464
Ni 8.946782302591133 2.566033886353976 11.76410355383088 -0.30421344026397934 0.3208523343722409 -0.15066407414819213
Ni 2.778223467141813 7.275795111147087 3.79493718975071 -1.4920363613051855 0.9709495980557924 -1.6993678062384348
Ni 4.609336184213601 3.838121246826177 9.684957014740014 -0.9068766788352833 0.056640117091547613 -0.10066434519129759
Ni 5.334797023586126 2.637405489216757 0.6165795350568212 -1.1958427060218888 0.0890910385314014 0.3220191009868325
Ni 2.0914514161048174 7.0575350752370785 1.2542463020797598 -0.671498612177463 -0.08306745804514082 0.24170760842027406
Ni 7.108797719781655 7.933522936083624 9.044231991115316 -0.4532790595768 -0.38997155776740583 0.18007826564425117
Ni 2.6115024242644935 2.7662667892228807 0.29804829255901977 0.3661412881170275 -2.031545592925824 -0.3016569923907127
Ni 7.7895361621615615 0.32701421992117974 3.18017879123054 0.4411251978230854 -0.13350556009103456 0.8924990699573726
Ni 3.2660890880528366 8.551797408534192 13.303830740392003 -0.983727466546751 0.4912326560024379 1.509877246141348
Ni 5.104239479955182 0.695889708821402 12.655582589759296 1.6314539160052806 -0.618282947386432 0.1382872977503941
Ni 3.2787458488083168 0.13921792017889378 6.974602893954991 -1.2128109584451112 0.9686960261349251 0.3037436997164124
Ni 4.289260153667259 8.777491218774383 2.7948052975900954 -0.3238687526010616 -0.381022318993918 0.7807072473943458
P 7.098683365116795 4.823211490778914 1.8442070296001098 -1.1194747714841107 0.2804027109976267 1.0987714774984882
P 0.6362223855917456 4.24577211325487 13.122711020122477 -0.0981948006048825 -1.6672403295762708 -0.21638249939192414
P 6.573934432659234 8.22741034157332 13.490490326686526 0.16441896184043944 0.2720949624628798 0.4317895222444564
P 2.6912842327821167 0.13230920797612072 4.7437419560528555 -0.05126059794718914 0.16218184497980456 -0.1744002414228674
P 4.978989133527041 4.5128537153978066 5.354752147912615 1.2153584074573134 -1.9470897391735889 -0.8644647895279757
P 1.4009762953271356 7.299192616473811 12.319809965088256 -0.19905043587137977 -0.7165973042883141 1.7423042005906446
P 8.991928433932188 1.5290177614851965 1.2212060768412178 0.06769817467792212 -0.4440428856905127 -0.4166056154151664
P 6.220954508795152 8.230523867872703 4.3114647546869715 1.7247026854587975 0.34175257486001787 -1.2777356841429541
Ni 6.65378072249075 5.870231430917309 5.938582544805038 0.32753488859873914 -0.36277134320353005 1.2826819724046359
Ni 7.4408949095608214 3.7282911460346257 -0.025848716416268708 0.7728314441906948 -0.742703771567379 -1.4813398008232874
Ni 3.3319060863045884 1.0834242476388738 11.241198786950646 -1.0526417730199613 0.2514495182983863 0.8752847629616153
Ni 2.6212206794297273 7.269264075211398 6.314842065307585 -1.3047564357061723 -0.3504806987616351 -0.8848024726440633
Ni 0.7982068153828442 5.576122946637124 3.585747832382131 1.0816769839100466 0.042649716349726544 1.003500278298304
Ni 6.523417929032558 5.100121887482329 11.56929997759173 -0.7522417929648012 -2.449772545994497 -1.9663123348486264
Ni 8.103458833039301 7.525733895410875 7.022976775637181 1.3632202362700199 -0.7581411891683717 -0.29564395342741345
Ni 4.628017342009899 4.8895351279255355 0.48334087499902073 1.5945961237469826 -0.3679127781951535 0.9332790800882121
Ni 7.678001912359993 0.8674984352917772 13.212272801634347 -0.04862470298623884 0.7806403987121524 1.6596033818563032
Ni 8.890729617585968 5.7504435729374945 11.902740221023116 0.9462559519638543 -0.04518071030169638 -0.3904065884222954
Ni 2.4777773908676175 4.212637929530371 1.9011689011311603 -0.4167596244945274 2.2144150481619667 1.9631671043514254
Ni 9.168625657230313 5.3462378509939175 1.4267061818935165 0.2739659542333475 -0.18836467402275944 -0.7979390378915999
Ni 7.198113551139106 2.596902012475966 1.9714784046379683 1.2780892108276312 0.26067155111728657 2.4039038084868403
Ni 3.251129423229765 6.8366865751551 8.801877130526917 0.10052756250311719 -0.28172554357410834 -1.1431479467313346
Ni 0.5556106104481623 4.116781850620962 9.579849709610281 0.4110486901526792 0.012674510143874945 -0.2948857351051502
Ni 7.209499108849276 7.43958686005043 11.40706959764621 -0.23045491832459022 -0.591520334580607 0.5727201711549685
Ni 5.300925910559997 1.4070375388330352 9.864430619182029 -1.2680511098653386 1.7535358076404057 1.2677785729302422
Ni 6.751746261526072 1.2980917532034388 8.217331912211915 -1.9957992885641498 -1.3475298221179566 -1.5643123851617768
Ni 0.5996679287460597 1.6311745859235345 4.448941679390766 -0.38591127165510314 -0.2245005005133682 0.6680458777421721
Ni 4.512393134584289 7.755480816810026 5.3528241566272285 0.12582027563163495 -0.6905540861470171 -0.9741678478827739
Ni 7.6366141204572475 3.1913920917164544 9.397922130593843 -1.0966045517541567 0.32874459263612416 0.5061000600325736
Ni 2.3534942641478653 2.2687750293093263 8.771056904809534 0.5777104252807083 -0.4511591850203197 0.23675952038637935
Ni 3.6457826991009745 2.251134784151579 5.659084605091277 -1.081345311602241 0.8094683786874382 -0.46885017454217964
Ni 8.068104649793643 0.42364223227404507 6.033254009862078 -0.24481504370100418 0.5202485836188138 -1.110945908077493
P 4.148654042916421 5.13530105001885 11.656232763820036 -0.09870927834745581 0.9906319069760681 -1.1957619733826246
P 1.1423325336878523 1.442050892276689 10.535638723368615 0.2707852425125208 -0.43235670760183603 0.1886644646513654
P 9.04306211584898 5.342396607009176 5.669816138046252 -0.019127464858070285 0.9916672902191179 -0.15716356582960675
P 8.453905562429032 2.003848945373655 7.461038872020854 1.974955355235605 1.4902779838531819 -0.23674049422298585
P 1.417658532392765 7.86662817872824 8.008696172981184 -0.8871532322644269 1.0005257690510123 0.3501703666100679
P 0.2609816698487017 7.492885271790756 2.4529797198677974 -0.3852448417156978 0.05690854026158586 0.3867314535635533
P 3.833193032121532 0.9201243990443673 1.0990959703996444 -0.37613439477399735 1.261179579556486 0.08928412837881398
P 4.079686671900205 6.427377617797741 1.9932390057534495 0.2859046146524624 0.1104759319650807 0.7450884697494717
