# total energy = -340897.6540134407 ev
CRYSTAL
PRIMVEC
8.99935143740328 0.00000000000000 0.00000000000000
0.00000000000000 8.99935143740328 0.00000000000000
0.00000000000000 0.00000000000000 13.17146049702733
PRIMCOORD
 96 1
Ni 6.278568666439834 1.9461997878711517 11.29186718807436 0.09810275511170846 -0.3704278313075233 0.6805111000887183
Ni 4.626746670398209 0.4899076050684757 6.135490674358881 -0.1644973804868586 -0.8458417751101497 -1.2443709926395796
Ni 2.7179841853918676 1.532094621687433 4.758216398785575 -0.11650876842272193 -0.09901832494744238 0.5169197763558968
Ni 3.247866010555344 4.182682662570991 4.777169933296051 0.23103033121208597 -0.04169892240068303 -0.38626994054610253
Ni 5.052416003452428 4.4436458617233425 2.5969375060857556 0.6840365967434735 1.04769677030986 0.8159308464833303
Ni 7.354684138715191 6.147187131698638 2.5209910775745956 -0.4506467641602755 -0.8881878441765285 0.16505865230696734
Ni 4.863447617501635 4.451700281450267 11.330591398225147 0.35317058688897246 0.6164507792736996 0.5242852155820326
Ni 5.714399311489115 7.709663564557129 12.276434055882612 -1.0559885780050071 0.4172625322728749 0.9193416440715135
Ni 1.8160061675477819 6.30467578557705 0.3695610753207491 0.7569204293873932 0.8495143388657304 0.028388064224389824
Ni 2.6572295624014015 1.5337775004460192 0.3707291911649444 0.32103308292447935 -0.4425099939857541 0.5524951023573452
Ni 0.6447783475518448 -0.10868067020357886 4.656558822609808 0.15284308407738192 0.42070266830267544 0.1583727556463595
Ni 8.47292557606511 2.294438699327094 1.3502456228271094 0.5267527032859186 0.06871581730915907 0.6259373786078962
Ni 6.896032181863007 0.6618519175025946 4.648498103336729 -0.8840136581941809 -0.1961000949938042 0.9527767838015074
Ni 0.646309137267543 7.360344730903164 2.3875252929912154 0.10626035122183636 0.21885075842675858 0.4611006125037478
Ni 7.658178273766365 3.7906709046884997 3.7885335586715785 -1.7055999031910756 0.1455087551994978 -0.37192164224423047
Ni 7.624349710913282 3.6911110773823936 12.645234685988921 0.25788010441507847 0.3092486886950416 -0.644301997158013
Ni 8.0037803751888 8.62805639981117 7.007098580189053 -0.6741468484335873 1.077466802483441 -0.9203554300480086
Ni 6.909594204799851 0.5655183577630832 0.30858056860386335 -1.3189088159471543 0.3176420549650594 -0.7090544589440498
Ni 1.8595810282380258 6.399429959101952 9.12549106259987 -0.21916546145369997 0.0818659815378719 -0.022004272185233074
Ni 0.16718905502215606 4.8221045960206395 1.3173961894335677 -0.7678728146338388 -0.7878487435351335 0.5837095802869368
Ni 6.516061556488478 1.9497005356630777 6.852597711058507 -0.2722469146597118 0.5188501606093904 0.729501413944492
Ni 3.4997668625959495 4.372119014807593 0.7068450760129092 -0.04773021619642748 -0.3847519612396793 -0.8088106904987813
Ni 6.006383275779689 5.718566011303155 4.6885659166888916 -0.5696590157311414 -0.26005577191015855 0.19135538121996723
Ni 5.328381121805654 2.9340406198097466 9.265055707796586 -0.12492270351803003 -0.6938057603150954 -0.49714927859718894
P 0.2238669717150836 5.508647134710709 12.34666409622557 -0.6555243482363936 -0.16303185168492568 -0.5738118615572505
P 3.912891099449797 6.119919096198548 12.55697264474447 0.2864422323234873 -0.2379648535483902 -0.24029632989504424
P 2.2260076293790116 8.39068950068563 1.2995675738793666 0.9423869559267513 0.05207126677394258 0.1555859369298417
P 6.2434351975974725 7.766584463744612 5.738476176894046 0.38628588138570247 -0.09512618898188778 0.7284984266012745
P 4.585196663829259 0.93774144130196 12.625464010348608 1.3302679497137153 -0.42722221458874815 -0.8904059348737697
P 3.9715038767475166 6.062611224890107 8.161300526797985 0.083143819809031 0.7081126638560707 -0.13095322598282608
P 4.718909030647854 0.9990810221496886 3.8234510430743347 -0.13015721244409198 0.06245749510427308 0.5635976400284101
P 0.21789410202484924 5.568987787525265 3.585271502494781 0.34453682247337436 0.07928639373615379 -0.17708293046135307
Ni 1.4316258598646567 1.0509262870064615 2.580052022584495 0.06561789511012571 0.7564332053383295 -0.3545276151374991
Ni 1.93042392442836 6.545894407208873 4.718912630388514 -0.3671854131108257 -0.11982266328730332 0.5821813165678683
Ni 5.899524974285274 5.68278458914198 9.290463577310582 -0.041658298970734704 0.22269790008699067 -0.3002644829185603
Ni 8.528676559538068 2.364471653868911 10.130077888089147 0.21154445457333249 0.4095998735212946 0.3886572098313565
Ni 2.4606477249545438 4.963061440917642 6.937974560163906 -0.6414020499023986 1.45057732282945 0.159493499514364
Ni 0.4183033637285348 9.215516076832593 9.052455024412383 1.4293068434864482 -0.07167155750337334 0.8422877392103043
Ni 1.4899506579095698 1.192288102727723 11.394736076982243 -0.7641897093552967 0.010964469431303697 -0.29342380584764305
Ni 3.932896658168181 6.8219675177819035 1.5452759720494733 0.7004057821301164 0.6982828222498426 0.4435358641471071
Ni 5.80789357578299 7.954544922310583 8.0402943445743 -1.7844859761650171 -0.0549987248333827 -0.5018896214956517
Ni 5.223295692586329 2.9235383764339695 4.904011295129723 0.4466551265023792 -0.30993620168036945 -0.05835967088581562
Ni 0.9443739634681537 7.378037456247447 7.0100881648072475 -0.06688442052737513 -0.312312672332346 -0.43981419232114577
Ni 5.2081227857040995 4.392718530734889 7.2355444220237555 -0.2317723515844331 0.18013045903842526 -0.6094704913011245
Ni 8.298950109963542 7.27109816058818 9.086661560034774 -1.0416587916458964 -1.0497449110881405 0.7626997550733317
Ni 4.698345512127159 0.14614047144751519 10.217207810896005 -0.6381606601469654 0.8569677098199822 -0.08558688203288485
Ni 8.146159117646533 7.165157792962086 4.765236793007892 -0.4205964817421144 -0.2114747776776616 0.17629051646704477
Ni 7.10949680300563 6.117093299780387 7.1230993230249 0.43503245466178625 -0.2872289898908408 -1.1436176872789015
Ni 2.2893180682381327 5.16793168123433 2.6375587795644053 -0.5464920906963749 0.013216755800590143 0.005229109609423252
Ni 2.3092246340883644 5.1963246356906945 11.30623735278939 0.038607685069868995 0.41702701922330115 -0.2784062493928882
Ni 0.8868114105080119 3.4068215587527364 3.7325017954271353 1.6616420095528868 -0.816190013681988 -0.23931879647312335
Ni 3.7043491236598305 2.6493551297074807 2.718062479751224 -1.3126525506247975 -0.4753368107077878 -0.43941052912482387
Ni 1.0333505532336307 3.390181757551526 8.254370021693973 -0.027536000636739673 0.2973084856140299 -0.6328122513508586
Ni 3.431785760230377 2.7562314299051955 7.131990682455293 0.6616829116386217 -0.48644011970980094 -0.3986382323034683
Ni 4.114656563447167 6.914291866361253 6.038890733810523 0.03308752658258818 0.004684549959862901 -0.011158587719980783
Ni 0.9068826644934417 7.445550592327209 11.440494180382823 -0.5102480207626762 -0.2361673953283352 -0.2714269898615777
P 0.12303373615047472 5.6033473121257105 7.937886222470907 0.4744017004880281 -0.7819470333387178 0.19102036647805168
P 8.513791631908646 1.7995373540279251 7.870659265773621 -1.2215197990730187 -0.24918103397918376 0.4473369830607522
P 1.8148182531299561 3.2060280247335875 10.361540312596995 -0.7182320116782598 0.28322501093777025 0.6328065949239038
P 3.908562411306053 6.027279770311441 3.8197631087680852 0.8162879727124329 0.9946433421283064 -0.2572149600272538
P 6.8343236275976205 3.9632244732293374 10.463316680214545 0.5406227763997915 0.1368647063712546 0.015733608685172904
P 6.338963315364293 7.720003819603204 10.225532211172435 0.7136171386140677 -0.8127285374959486 -0.7599381331677943
P 2.40598566303126 8.490204331233485 5.864593090919878 0.8473636110713147 0.40778647446163957 -0.3804361074731448
P 6.88599790477304 3.8689472653418955 1.583130844830853 0.3463527926361906 0.8044927798497177 0.05637657901751581
Ni 5.278245733762418 2.7793327655912456 0.37255335974443893 -0.0963916859578727 0.24751881578541243 -0.14912424046489803
Ni 1.4562750840345406 1.1749373527461473 7.106701604383081 0.3786617891815414 -0.2956187566164328 -1.288780629103206
Ni 6.981427029671707 0.7034901177177165 9.076743374581094 -0.7874108846667665 0.6164258395730352 0.06701503256796845
Ni 2.6404817689803886 1.569315940112639 9.258680567087588 0.8544855668280767 -0.5561131587259067 -0.7412408138686073
Ni 6.17448216525368 1.9842760447031262 2.5166839878748126 1.3435173585244538 0.4754381121723425 0.6195371315085072
Ni 3.934606534981717 6.7553363181638595 10.383181053510217 0.47098521860731146 0.6095226846952987 -0.022964579215973353
Ni 8.145646154602472 7.155825465300834 0.3260672087953571 -0.2692153269222396 -0.14354597504617211 -0.42597497244520827
Ni 7.5314944005865705 3.9922833797078163 8.34174922654154 0.13660708183449377 -0.7639505967612972 -0.8229931526467503
Ni 3.0994487031403293 8.304061741700853 12.287497858801364 0.30907488212133866 -0.2699262369463351 0.7112756349650846
Ni 0.16154286179682378 4.817991892316501 10.039063845110064 -0.4730181898769402 0.29585658365885176 1.3044288771634245
Ni 8.621324884776824 2.249108965065062 5.700186635427962 0.260148588734281 0.7234158698720444 -0.46124587983236054
Ni 3.705303054934751 2.4314628275529615 11.327324633576128 -0.0042770301087990854 0.1528649384542529 0.21338253622333572
Ni 1.462925604904035 3.526044969414519 12.634486760313095 -1.4411930534010728 -0.6434712737266014 -0.02148336668475655
Ni 3.0172396258157987 8.308669409745752 8.111854489091154 1.280374150207066 0.07644223941913932 -0.611659014312011
Ni 5.598460664179654 7.828877975867261 3.498076784356043 -0.8719176462615953 0.09728848674052923 0.37212630205586883
Ni 3.0465865115470843 8.392399377499167 3.495732453251167 0.27531681183428713 -0.4279547218793985 0.004063885656728485
Ni 3.367449395283134 4.234635919647566 9.199817607813994 0.0073340717675680145 0.11578603132408445 0.16382015191417593
Ni 7.183417477460332 5.900181926955739 11.436015203066521 0.6307404564234944 0.24745350976511576 -0.04090676551669084
Ni 0.4689886121575976 9.225775337713817 0.23445110919087783 0.31591941584699784 -1.1970310699030353 0.7888262769570543
Ni 4.640902650543964 0.42789937239313763 1.6873298379126351 -0.6552512970806651 -1.1702509735957134 -1.052823292903148
Ni 5.817657872323452 5.465360253273271 0.451695458026583 0.5505068682827229 0.7079409141648969 -0.37493960313494784
Ni 8.003483396584343 8.876042533883941 11.13283514538794 -0.193542361568957 -0.6195340461847136 0.37697514550773786
Ni 0.10127060405480837 4.918469653490926 5.729664911693341 -0.12615169082912467 -0.32012445506728093 0.6404574266009421
Ni 7.692186823652451 8.878652345862498 2.372891447272833 1.2707301993593987 -0.1602766575372917 0.8628591356037526
P 8.525949755988059 1.5034676840881627 3.5641311255333084 0.07023765327032419 0.9018902813642854 -0.17087628743000893
P 1.7919778986417614 3.171308526067136 1.5993053795517485 0.0387912618355848 -0.2232969671235703 0.5913537270957557
P 4.6390847815106255 1.1980656864871482 8.10799556710355 0.7496370083521026 -0.377051507271628 1.310668430315233
P 8.393344309422437 1.6350652032689628 12.268465129996367 0.05803339789464844 1.1407606774460808 0.043184762917590144
P 6.212387434404301 7.654317551908431 1.403195108131361 -0.5632381998064623 -0.7548018403824936 -1.132337743489708
P 1.663602147351731 3.167987765308214 5.908466730084908 0.006269120838163397 -0.23017132564590037 -0.030450860290689497
P 6.926252004704361 4.140124728617218 5.894610428349103 -0.1785176060253506 -0.9463194582119379 0.4398255051750554
P 2.3542483903942895 8.500436594059757 10.178944367549706 -0.13830555258283922 -0.036999460042484666 -0.14650994277050253
