# total energy = -381167.25052539987 ev
CRYSTAL
PRIMVEC
9.30017751779786 0.00000000000000 0.00000000000000
0.00000000000000 9.30017751779786 0.00000000000000
0.00000000000000 0.00000000000000 13.61174987364432
PRIMCOORD
 96 1
Ni 5.118482752704379 4.178578939161773 2.347577712273372 -1.6765150700099771 -0.04734120828812492 -0.5609656017222017
Ni 3.1863895291126663 9.305013343415968 8.753866239152668 -0.09647473258998224 -2.421657018705204 0.18328520261732306
Ni 8.961678699831744 4.433106190173855 3.910791495424866 0.04291968218166157 2.4697096512380563 0.7527035630925683
Ni 7.81223259264133 8.75740030650814 9.062485181093441 -1.7905039002243226 -1.7555880621837443 0.2217512199030052
Ni 1.639407345317771 4.196658483738195 5.875878957850821 -0.9302168962231205 0.763058423964331 -0.48166738091150596
Ni 6.593993074323454 7.499551333277211 11.090839889324169 -2.218593862130005 0.6675267720139084 -0.3445789885652195
Ni 0.9618150311465397 7.95510191557496 13.074983414937927 0.2571401409252604 -2.499510793759889 -0.7572299902080121
Ni 8.743431440276769 8.50564450831693 11.325968830625603 0.8570245311998466 0.034366136184695646 -0.9206907019002403
Ni 0.2207843479091136 0.6448129094314923 13.182312110505922 -0.05582739138226514 1.8229609923117638 0.46300425728436384
Ni 7.005972326199119 3.4947555062322078 3.522870872080447 -1.1017963803677413 -1.1683506712492073 1.4012255118691996
Ni 7.482327405007904 5.583519515798399 5.888701112227113 -0.8105212454319848 -0.48357565367781236 1.382135328006968
Ni 4.231701551620887 7.876673520815208 10.313541304860063 0.4764015045268764 0.08766536182846837 0.5541493501313166
Ni 1.8186310611265197 5.598250996564372 3.9033188030034904 -0.3144551725966455 -1.7077557731918136 -1.4744824115818218
Ni 0.22432864545956324 4.984095191423884 0.6877118370383115 -0.35765844745699693 0.37375098214348534 0.3824968466569154
Ni 8.920702118862756 7.353008440329337 7.848385171670095 1.886344598774732 -1.3007879379767275 -0.839032208387484
Ni 8.127927109434852 6.096675395990362 10.550602822994303 2.4280171565952764 -0.8700785361703275 -1.1294712205751902
Ni 8.27085223343199 3.6349556782947303 10.30534691868399 -1.1545245639993922 0.4700202835908808 -0.05932049213718816
Ni 7.317072555430526 0.11822850330645612 1.2065240850344818 0.7913274461123533 -0.616939288874344 -1.0181522238835239
Ni 6.703800267128908 8.45419592776304 5.906763916484482 -0.25544372705944396 -1.0299936966031424 0.45579565535106664
Ni 6.290342287070294 3.1248223557094224 5.869277692037887 -0.404534028962613 0.9243262417702984 -0.16564769204121796
Ni 6.279377378091076 5.977419223097643 3.605085368999181 -2.2406752674100767 -1.194787268174181 -0.453937004875773
Ni 6.227407987611117 2.60778830160369 0.6436038863888304 0.7263345861807362 1.5696458815595484 -0.042788041699803735
Ni 8.438804134412228 1.4045220686603193 9.487960850196115 1.4336000715451633 2.497553670033518 0.18777871961230239
Ni 1.1504133256245435 5.669146247750614 11.334299929407269 -1.9918531594322082 0.6150263881223472 0.7767351501204752
P 0.3819815301517734 2.8005065746039954 0.16411929793500102 0.91843867264127 -0.3472331383586149 -0.8669932123767843
Ni 1.661086058490424 7.836998964661396 3.810704847882414 -0.4116585558225362 0.9418310834232813 -0.21113436361910734
P 2.1178549640080866 2.5499970001644514 9.486518392704445 -1.888960182020708 1.0604643543881735 -0.8409947314304936
Ni 7.8075267029522 1.3372259860703082 6.093027866472423 1.8684384079182725 0.6201629380179642 1.1188600207182473
P 8.44105477730703 3.6172109400993544 5.808446162655217 0.8371830709938872 -0.7828065531255357 0.7258465908007241
P 3.659629048542284 9.225459627208815 2.4385036852233473 -0.4867805337683553 -0.3387592965596488 -0.6406605437506837
P 4.233710389907156 2.6085881168472973 12.876143765270852 1.311734409685902 -0.45098743532914587 0.46549128537227574
Ni 2.9681887704439487 6.921545317112313 12.412241623801483 -0.061082983354249644 -2.4003451446013044 -1.2693803701997235
Ni 4.0992391270313995 6.188114738724606 8.491621701057502 -1.0166833526474812 0.29974306319745153 1.0115889688437094
Ni 1.1796902836114636 7.5188213005417905 10.045961255075856 0.6179507608579938 0.6690555499536089 -1.3481836536518716
Ni 6.223381010861328 5.01812453998619 12.36815320352423 2.158417706860741 2.1260256636832806 0.5816012756946822
Ni 2.3847421505870736 5.765793689745556 1.3537905317725014 -0.8006296973498856 2.055719619068866 -1.1899528229000151
Ni 5.604454214790952 3.2415023795035465 11.28316011473812 -0.31109525498547713 -1.8942993348454342 -0.31019254066554963
Ni 3.61837346225576 6.727087910966025 2.8243698994129662 2.240498118402264 1.14031973325392 1.1938421306520923
Ni 8.261793860789277 9.270825891840389 3.66176436923917 -0.43195844372215286 0.513580941790651 -0.594227449099125
Ni 8.051237847821083 6.904432990970022 4.230681322176425 3.106768079459778 2.427278221546723 -0.7581170207986557
Ni 3.4742951162794675 1.9489916456572254 3.0390951818428933 1.0857830356586204 0.6453232393336757 0.6942983836807978
Ni 2.840181130757808 4.440062722757786 10.56930547944656 2.0147202938383693 -0.5289903343671858 -0.4113237981909368
Ni 0.9356815330705404 0.4864290308073342 8.069467125251249 -1.0119550939338764 -0.44373615308337133 0.7209586665808035
Ni 3.1878310565866093 1.9005470223554886 7.664381164754206 -0.45301809260592946 0.7509577840460551 -0.8550231844991015
Ni 4.032984664293528 7.902723317295947 6.772403024622718 2.436578673012042 0.8419334411946789 1.963454039464225
Ni 4.882174548927487 3.2404700598286578 8.872846196781024 0.31216303412835916 0.27080478289654647 0.08473430422460244
Ni 4.177834924981673 8.824919593352181 4.458705858075633 -1.170599358074068 0.07079403999442647 1.420994724076327
Ni 5.1349626667935855 7.438765374763071 13.237357999620594 0.8690356967281098 -0.1318158310934375 0.3450225038605413
Ni 4.991442331452368 0.7964160288217673 0.7764615685114954 -2.119378076459776 -1.4774862314051522 0.3885757058611437
Ni 7.904760056113969 3.5316679097424 12.735493464629368 1.0307861105974505 0.4896123467901955 0.30526065058157104
Ni 4.332524773201637 4.803057941051143 13.541976005307884 -1.14667807137178 -0.040112294639853496 0.8706655190220489
Ni 7.785820089247793 1.4020761220432418 11.886963892580248 -1.0149501720064584 0.00886053571442345 -0.8458188922920143
Ni 1.9684941173530868 4.354640594705098 12.943208273447306 0.9743791925626315 0.23337543440549485 -0.813904817192237
Ni 2.396497574632648 3.6647348458532183 1.424333306240922 0.41637267346875395 -2.6416555175831604 1.4303851641522916
Ni 1.58159744352403 3.3082497516357336 3.7587754481646356 1.541666879848119 -1.6359435763455181 -0.29443219250749936
Ni 2.294335127527718 9.170049171145894 6.288791947522512 -0.669681356463066 0.12981448439269255 -1.2922842713810905
P 2.1502939822604303 7.170557563014407 7.756668683653764 -0.797153308765511 0.11567624521909756 0.37892275615241194
Ni 1.0249911352142491 6.686548438327847 5.808256439039291 -0.6637014847305474 -0.15062113672539867 1.4315213346392637
P 4.675533910582066 5.809681226194183 11.220967969423592 -2.099652830116707 1.0245984937294998 0.2230128602242482
Ni 6.71442106954983 6.670598634341961 8.143038967450401 -1.109850361020469 1.7277550991318762 -0.9789290167168431
P 5.3319311207977105 6.752942403724488 5.429795025977114 1.4366910517656613 -0.2393797316180458 -0.1577528626741735
P 7.318300178827691 8.496511734256206 12.842590585783809 -0.764755866271412 0.8568219282707372 0.9231540758390683
P 5.537762643722271 8.846961013437632 8.539140026705015 -0.18125840199528137 -1.7288154220755905 0.6251357086422072
Ni 2.245741701389961 2.000682030819647 12.60209823226158 1.4442524090526867 -1.5780914412237401 1.948658112101973
Ni 5.6670165071600795 8.279864105188446 2.7647371628779807 0.804729321340556 0.015119372139941705 -0.6856394224542192
Ni 7.608177403571756 7.084084514932329 1.6252561956122764 0.03718020859472306 0.4207715738673979 0.8761167719446072
Ni 0.48634904928297346 3.097805340794555 7.767463399389285 -0.9867102033241587 0.9365094141000516 2.590417288233474
Ni 6.049151490236498 1.039955120411503 4.678440215973081 -0.6839851746802479 0.7427582789543983 -1.8989160076818394
Ni 9.179284247156382 2.9669332465150307 2.1889734194483594 -1.037377133551407 -1.151410700960759 -0.06923620858900335
Ni 0.9028705077281468 2.986482219097148 11.306327786288698 -2.018802434327543 1.2544638580992071 -1.802161539067909
Ni 5.582998705872329 1.2392300183739364 7.213329078192884 -0.46475260743403823 -0.5862238620683582 -0.05458066345935761
Ni 8.09498588161094 6.446362060637186 13.091236404702201 0.0979250918832636 -0.02309801947004409 -1.3462974923727524
Ni 5.138106126704507 4.740244543896232 7.074176106088852 0.6194445717947009 0.9931554447288701 -0.9278478817703117
Ni 1.676012842978673 1.3615738501140686 1.5911729060219124 0.12483220068675276 -0.4428650633323276 -0.7587901356062803
Ni 6.070179191001564 5.282314675162317 9.762591364354487 -0.3828424029217923 -1.3206185995494095 0.19178321278600519
Ni 0.4588735356296194 8.60019941043034 1.6802072229189844 -0.26417802160864823 -0.9712077368131855 0.6687313338449709
Ni -0.12476094780773084 8.756172683110975 5.766767418303761 0.7061619678876032 0.2300877647931586 0.1745046282112156
Ni 7.337365542192743 4.702253319824894 1.598659548709165 -0.191482907936767 0.25158270144214095 -1.0060089036527706
Ni 7.793706639556849 4.596287100224206 8.205666361060286 0.7474993931838094 0.4222216760503631 -0.7040333515803746
Ni 3.7450511765949726 1.6580728010610204 10.327206985313042 1.021709602217479 -0.6557094676640063 1.8264294104763383
Ni 1.5255545754080257 0.8368187888543523 3.9148891535217643 -0.6481026018510258 -0.04597440984758534 0.5847809589742445
Ni 5.408164673726168 0.38931564993210543 12.045717918259005 1.6011956313413713 0.6631803221197546 -0.41632690783248294
Ni 1.0644610874685343 5.0217795096459295 9.06011642594755 -0.8359165455766379 0.8488224550050284 -0.05386949632494593
Ni 1.2918783217932361 0.7262238710357184 10.627618520829591 0.35972458595740625 -0.4872687862586834 -0.12264959121313714
Ni 1.1020896046270727 1.8938043938483358 6.191753898083017 0.04130734338921918 -1.484142046158773 -3.220520625293602
Ni 3.9735565316580703 3.8329936526827484 4.658430884617027 -0.21411272952114094 -0.023953425491803907 0.3831385940059724
Ni 2.874880092082204 4.245121707394433 7.704291015392475 0.5862752841315838 0.4032196810265636 0.7784675594305497
Ni 2.884422073941982 8.223588732641161 0.6797201947263164 0.29510684997702075 0.24543467956287404 2.5304802455582096
P 6.996988354974416 2.6323221691924754 8.117230975578194 0.1596235973343251 -0.43418913282488447 0.7615391591063271
Ni 3.3059805083864298 9.157949640542025 12.33295296264599 -1.4093494265279147 1.001205054506224 -1.2014903912259696
P 0.2875652006794058 6.263390373396185 2.532738661239316 -0.5214544310014567 1.1863193399124858 -0.49528445747430827
Ni 6.130686144198166 1.2857588051619169 9.816004142343841 -0.1294406459930416 -0.28998649803131993 -0.16643367827762304
P 7.107158254692668 1.6281448306665132 2.565787771119341 -0.2960229340333869 0.6223350059686186 1.033614324074865
P 5.394260908735556 6.243590296028284 1.4669113777325733 0.37023037058473657 -0.41607391128141247 0.5218236414154175
P 4.039020479329586 1.8644623346206566 5.697306254449661 0.35373340137097786 -0.09571445738519 -1.8116422248648347
Ni 3.285259713470655 6.262013947163001 5.422934285218871 0.647959134294626 -1.2174248030680388 0.13412750994574965
