# total energy = -340888.1542798731 ev
CRYSTAL
PRIMVEC
9.10551520597045 0.00000000000000 0.00000000000000

0.00000000000000 9.10551520597045 0.00000000000000

0.00000000000000 0.00000000000000 13.32684190352504

PRIMCOORD
 96 1
Ni 6.641808622467271 1.7208057866201512 11.323284507598228 -0.2370431130650692 0.9430616133962726 0.18645460148424017
Ni 4.986380434851975 0.8985094743456358 6.027743605229293 -0.10427314558847847 -0.9462765207891445 -1.2482055358943211
Ni 3.0938264208739414 1.469520884149816 4.777619198831859 0.056275534663277275 1.6150456498505863 -1.6865889093062114
Ni 3.637088773161785 4.483801524396123 4.395099237701735 -0.08816364162112558 -0.5264102323448353 1.443654627567688
Ni 3.943106927389528 2.9287525361442714 2.56017949261801 -0.6037868106527859 -0.987818348786673 -0.573321037963761
Ni 5.558725802630279 4.610277130270419 2.644751517625963 -0.08438746240814499 0.2328352456313087 -0.39289387362052336
Ni 5.5522973089119745 3.127125289893546 0.11667716098723155 0.4946175133142708 -1.8057307444764061 -0.018660809634296897
Ni 6.159616960503322 7.815345630119614 12.10870166228368 -0.896434914676669 0.19243550165802345 2.1877671065571356
Ni 2.323053666255273 6.562463163173634 0.42335546506565047 -0.07221123205692724 0.18798543630646977 -1.5680433129591187
Ni 0.5443085759822247 0.013589981408739188 13.257502627393325 0.6524120278596571 1.0291984543953565 0.8041904181179504
Ni 8.084905301559692 9.213961867549262 6.848397282565024 0.10815885379612984 -0.688208468732976 0.64040908986151
Ni 8.8314300692494 2.493026318152716 1.2182077545824173 1.6519278675889162 -0.776442815691037 -0.551507027412463
Ni 7.109904946929892 0.8798704847686245 4.827408155845585 -0.006722920546130358 1.4977933183936205 -1.9347708125969192
Ni 0.9991937084676683 7.359286796727246 2.419328099374791 -0.5822697625166166 1.1202592150586193 -0.5726952314543041
Ni 7.7591281793875835 3.695191065536435 3.6762224563098447 1.0549475383350024 0.1791264432539431 -0.22804296644898786
Ni 7.715203174150895 3.923147638111166 12.37009459715726 1.4872096293405033 -0.48295730336752307 0.9165183156901054
Ni 8.405974872382842 7.602531529292109 8.71151680816658 -0.732754630774467 -0.7460696027158183 1.151190871640469
Ni 6.898274563076012 0.692082892418117 13.470505212385092 0.6149327999672765 -0.6264042909419857 0.4076905723137237
Ni 2.0718962409974817 6.94235436207079 9.331268219635552 0.8360561564782956 0.20828892375051225 -1.6059737694563052
Ni 0.37352189102753414 5.155551801413425 1.2078693526450757 0.4599207332630337 -1.5383578700795442 -0.4317082753845598
Ni 6.552219458594181 2.4898758098998357 6.792904630841459 0.9658906954756461 -0.4085562627481287 0.8566494072486149
Ni 3.878248342750031 4.585000220125923 0.39059108978721413 -0.9489818355354496 -0.12234800081231834 -0.23561949324466516
Ni 6.264412334729908 6.11918847309642 4.619856132241604 -0.10268188984195865 -0.4275428311529605 0.44124012613439495
Ni 5.751808252058965 3.072082450619959 9.48819175772605 -0.6898321203793281 -0.12189780064877714 -0.5888512723888762
P 0.4393520341369222 5.669075541117723 12.2841494604599 1.3103015338941175 -0.6441325614596842 0.5732541892815676
P 4.455374105998747 6.376574070738517 12.60272776232933 -1.7816251096774545 0.18937717444767385 -1.0149776828102843
P 2.334253449928806 8.562243723931774 1.1531005893784587 1.0428386708866104 0.8977268940152152 0.3906305315076434
P 6.316887418722246 8.210552305552449 5.679912925287024 1.747683719735003 -1.0866245577233091 0.6233691036600878
P 4.838406707633603 1.0885461289460319 12.759970904002708 0.6777019127746973 0.3200519499581327 -0.6028028494729618
P 4.208478061846007 6.614437443830975 8.029155874308001 -0.3682351945315787 -0.9361625722835942 0.8374563792599319
P 4.997962650163141 1.2064989726102247 3.6382014671169927 0.05319458174510839 -0.6501108905303061 -0.3545155309526411
P 0.3777687033082952 5.614906831301583 3.3872835169084814 1.219145128193255 -0.7684050329882252 1.3337654213440127
Ni 0.4679451729106058 0.8910611629269767 5.147466103932045 0.3545253011446539 0.12398785040858648 -0.4282036046654109
Ni 1.8587088140475247 6.881921057809617 4.649948038814201 1.4739139406728616 0.25527814801585713 0.05178381744051082
Ni 6.059838725141872 6.022788383867393 9.317208393643435 1.6308144826490691 0.28745396141745333 -0.40121807721550257
Ni 8.844878915172824 2.6715581543209903 9.980605271033014 0.2124731370351889 -0.46684394274542823 0.7743908182580147
Ni 2.7393305038186426 5.294356274843791 6.877343715327759 0.10423535037200757 1.0942008274086703 0.4476136337609065
Ni 0.6138027784007428 0.3928465258977299 9.031747761041494 0.6638986883430179 0.6071631833241866 -0.46473280993969646
Ni 1.7810569805776904 1.4432423673353294 11.426154065363878 -1.2426750929943953 0.6487759737689666 -0.6056868558889763
Ni 4.699329068747786 7.257113810872999 1.3134414273166635 -0.9779800225400126 -1.1421878968109103 0.12037416491539914
Ni 5.33440233061306 8.563727922906397 7.833877174617482 3.4897842889552737 -2.1217362922793073 1.7211519919930616
Ni 5.5664472795043896 3.061465419918056 4.651547877831631 -0.8421856664148013 -0.33920949672319 -0.4362341882793712
Ni 1.1154802428536035 7.462588866464026 6.965567051923587 0.12654738360564657 1.8639469478058224 -0.8357121428753156
Ni 5.476257151629307 4.696351565283358 7.453795670453025 -0.052503983435986994 0.2517886468053599 -1.2817139520644119
Ni 1.2414368343625408 7.603150704324467 11.448716621432698 -0.6398555313508851 0.11241197264552898 0.19965387378333357
Ni 4.661486547652495 0.5955780897645007 10.32707649755865 0.38752463888881 -0.7604654664261742 -0.20157294518291738
Ni 8.53255974443932 7.887297411085682 4.68809013135897 -0.4170103070527528 -0.8498514104901751 -0.3274184176255329
Ni 7.255392868503651 6.461756165263646 6.84300044371681 0.23411565500562903 0.010099293217530994 0.17137456722266614
Ni 2.7869978757950244 5.344855462041693 2.4043358686280643 -1.3554632180324206 0.30503053684863596 0.4168164458743918
Ni 2.620558163788094 5.520191262381177 11.321298594737092 0.5410403235531842 -0.8020327483449994 0.8058418376784443
Ni 1.4019579615013436 3.099180463800802 3.705035037999408 -0.050926868756854225 0.9656366704833111 -0.5751292948170933
Ni 1.6261448507908363 0.7723006600661642 2.7581761885902787 -0.12345691760578091 0.07686647144075148 -0.3183179979861615
Ni 1.233433086517796 3.7196757958601196 8.21515878568289 0.5430429558055099 0.5106547692827915 0.1452400749191434
Ni 3.9030699771354405 2.8786630971295484 6.850569858487386 0.6400301092555364 1.8958743926420383 -0.3255973052563941
Ni 4.3509975854705205 7.410641902352229 5.972917477217031 -1.375261226594954 -0.7323540529019387 -1.1758834892911425
Ni 8.560085716833704 7.166022236994924 0.025161270101687772 -1.4652022718314766 0.2503758256182333 1.4298948547794341
P 0.4363809045331221 5.795751468326018 7.9062159399787735 -0.7166991199735011 -0.724461023307107 0.8807000204399155
P 8.722919644828668 2.10820903554224 7.64504973243322 0.19700306642404783 -1.1470395684762569 1.2489269874413782
P 2.1897125019339483 3.500251091010674 10.331074729274949 -0.6829693318212238 0.9955134034380856 0.5873348357443497
P 4.376702454828558 6.272734775606014 3.5841210807981154 -0.0014770987661587463 1.9285227748046785 -0.1737438387857911
P 7.2989445476178885 4.240556791831259 10.37153508598499 -0.19352770628093768 1.3073416799348452 -1.508763958472511
P 6.545736331784786 8.290216457877447 10.14660427610515 0.10934798900822458 -0.023962681463184535 -2.2690553612146664
P 2.3084211033582247 8.911868190364846 5.6610954676124505 -0.017710272795569502 -1.97334584465664 0.07966640278339183
P 7.248745842420985 3.846806998827501 1.3330037161331025 -0.6594817902222448 2.3045227008833407 0.3667367556091813
Ni 2.3970450826220495 1.7290735944051665 0.37389430659846706 1.1435966042329788 -2.083212682282812 0.5507454666560903
Ni 1.812926283713762 1.819382093977612 6.872465890844903 -1.2526684567616813 -1.2187430076588301 0.8279204147450385
Ni 7.058650001971907 1.1182574249840325 8.858098302113666 -0.08929492701209137 -0.7877703248887142 0.6870100775495008
Ni 2.966813589603923 1.939447417163967 9.164375963524089 -0.10766005978284038 -0.1530839964435944 -0.47814059870517
Ni 6.549906657738021 2.0052893974430916 2.1031090364889504 -0.2717139249743772 -0.7206444777744944 1.798346536197193
Ni 4.391271279119334 7.021217229059795 10.47922874569392 -0.8551648522832884 1.0398896155606154 0.19924224016721168
Ni 7.870907483758561 6.533279987016173 11.146490914278147 -0.614494169767961 -0.7282924812380553 -0.8762931496214715
Ni 7.899972288218658 4.170244003597903 8.11769881448671 -0.37092302577638697 0.7669307624355437 0.13167133509577322
Ni 3.2622420296753085 8.698462231050527 12.368628609213 0.5194222310627764 -0.3257747113745228 0.47140225154007204
Ni 0.5256204166232322 5.219390568352568 10.18242719393313 -0.34828420533094856 -1.279020978613281 -1.1831509694868334
Ni 9.04904277657768 3.302907260476936 5.860651938335351 -0.24628237227515 -0.9946939928605837 -0.26952283086032935
Ni 3.928920534736385 2.7068875532261214 11.63269355567965 -0.44855697151078233 0.2831707606610671 -0.3572738104240686
Ni 1.396895295060299 3.552371059910924 12.62055909270972 -0.941051010724147 1.3144302113505104 -0.8578904787445678
Ni 3.1741461702920244 9.009197042142409 7.725890317319697 -2.2101485595761288 -0.3034886462828128 0.39106993303790716
Ni 6.160199713474953 8.208521775666924 3.3648147476460326 -1.1714830462306018 0.11207027303539409 0.1991594506454183
Ni 3.49099078207085 8.313226094741692 3.290317064635152 -0.08871051526353109 -0.2918276650051168 1.0113619404345677
Ni 3.9483790206797527 4.53475598735311 9.2584104399089 -1.4867638000523362 0.6393040297227892 0.18634044450387907
Ni 5.3146979957597855 4.586211253645093 11.436375916706893 0.40883677010302494 0.7633031929852854 -0.6015589497635317
Ni 8.105328972112321 -0.10104845472930195 2.2156805206807375 1.6047812918101008 0.7055762705874622 0.20369899038698466
Ni 4.552384264744949 0.4885882863791168 1.5591737866291768 -0.32612515273540604 0.9950431486698864 -0.7879790984654106
Ni 6.168294516471516 5.500596193710084 0.17985395697266213 1.6720832594908688 1.2242076303178273 1.1295992615126225
Ni 8.295142541590765 9.121540888454653 11.140653368495137 0.6701698660637103 -0.8218071027584491 -0.4732781284065462
Ni 0.1315592150002589 5.580305873610991 5.523563034652974 -0.7553073192640024 0.12328105414954897 0.6060833199964465
Ni 7.607903783249332 5.957765899954625 2.564257852867909 -0.905860321755627 0.7268156395822128 -1.0443944454095044
P 8.826185292504722 1.7053719383871109 3.3269795109628886 -1.3543761556158287 -0.11368595426194614 0.16079036394891663
P 2.1205105865527636 3.4914278467995734 1.3743573238824693 -0.3416906112738309 1.1454637393487046 1.2562294346400622
P 4.876622554851344 1.5111057719847987 8.086954042475583 0.6966787109875163 0.316055684314546 1.6494236131098239
P 8.787359375769805 1.7706038491490588 12.300608589702405 -0.4397681695745587 0.8982210600428143 0.1766173036788442
P 6.759005708371379 7.651082136241119 1.3136991133963063 0.5200454664690721 -0.19498603599401904 -1.3783118404958197
P 2.1945020029195406 3.6061391270590684 5.728289616896062 -1.0117432350333866 -0.25874090975347697 -0.34455996240182596
P 6.950895335311258 4.302064546883877 5.714229790903946 0.91120101724225 1.4901771966092592 0.7787508949989234
P 2.4868072512835915 9.013558583914461 10.180148083483141 0.4635333903149565 -1.302852276704924 -1.06668745247975
