# total energy = -340870.5167905284 ev
CRYSTAL
PRIMVEC
9.25292028731175 0.00000000000000 0.00000000000000
0.00000000000000 9.25292028731175 0.00000000000000
0.00000000000000 0.00000000000000 13.54258413999399
PRIMCOORD
 96 1
Ni 3.1986419628535794 4.559589215659252 9.200317288017462 -0.4708947157760342 -1.2600017571983009 1.692414000628421
Ni 7.916308066167639 4.370404010497101 0.6102920777324906 -1.6659828030200854 -1.3359441741628864 0.25973618378721075
Ni 0.7204480919873776 4.503331461214085 9.165715993157644 2.4567410068925306 -1.4171105585305723 -0.37572970313641096
Ni 1.7239763215395019 4.34365381837523 3.2126527345280653 -0.21646837423751106 -0.2915980654928139 0.23848961570360858
Ni 1.800905099575212 6.608592862921678 12.958925621259485 0.9774233787055943 1.5401154762005993 0.2884518065543484
Ni 5.4700025339765 1.985565626789389 11.405618486391965 -1.0350536276245528 -0.6568134993614623 0.4410745470908081
Ni 0.42560934350997986 5.372208421027327 11.544023665831244 -0.0008188963568695575 -0.6439317583027878 -0.13730590767373127
Ni 2.105131860825647 6.759554254989589 9.131669873506166 -2.245838813888887 0.11855665209068614 1.2372901745333982
Ni 8.391686091229301 4.065242704312626 4.9824115796233635 -0.48783288629226956 0.4385479240142125 -1.731812042810069
Ni 6.970530087079105 4.744980723564411 12.054659943082594 0.4984104046977997 0.10038975137367227 -1.49645248809501
Ni 4.517442164426072 4.46626426313722 2.5540631895459955 -0.28563927680621776 0.25804208391423944 0.23512918387180798
Ni 6.305106335282364 7.7869985072250065 4.3132320675422 -0.1310478425791614 -1.121410812164559 0.7106449433596213
Ni 8.901596014249737 5.44426091014978 2.561607095335329 -1.4728664732449537 -1.046800997968468 1.3656810391056866
Ni 8.808474625970764 6.415438155019892 0.3721691032471408 0.03133557688848797 0.7498676363056699 -1.456421697425369
Ni 3.266253050309309 5.8059483054634535 7.480002346976967 -0.42821697440184964 -0.35495801780669833 -3.6132124102056484
Ni 8.159113943535342 8.328137035714596 5.727199478036401 0.4402728771251192 0.5757427600313761 0.45942528168385394
Ni 1.326202537683699 6.55252941979943 1.8295493644495382 3.248647465436805 1.0061960799629122 0.854194003729587
Ni 3.7420937213779197 0.00016562727048823823 10.314234705411979 -0.0018702204395193596 0.22011008475515642 1.0987061714781918
Ni 3.008309395594191 6.08974461904696 4.043761124917905 -0.47823238708802795 1.2482662139289276 -0.9232317231545392
Ni 5.858023740005789 9.27244380050103 9.014323415011255 -2.10678995538212 -0.6776427774019878 1.8097763753006895
Ni 2.6559489437806376 2.2413903627926746 9.719120192583501 0.07460287221755539 0.2212187444383029 0.022872790833115445
Ni 6.508402243656503 7.044997588357838 12.966184537108536 0.9753868078915395 0.29955537266667764 0.5133125186206127
Ni 5.592853554662106 8.134436405524609 11.03044773585173 1.5836475951552789 -0.3573936238313845 0.8973427712029192
Ni 0.32980090722263833 3.2134466350759916 1.5758416965740576 1.638820897893313 -0.31395792124525285 0.5365365221455599
P 8.520699556727484 3.473314897180024 10.459641569520443 -1.100372503437021 0.5138172261711732 -1.658793741470814
P 2.786128277216337 8.590993991023527 2.1482597215935617 -1.5768202878208006 -1.143418941004534 -0.8228849092036603
P 4.36443587700744 3.9699006152002903 7.26462119960927 -0.12826230941422426 -0.5476246616389214 -0.40932707947588215
P 3.7691400069442396 3.6696248508492118 11.05299617693848 1.5041758248811967 -0.3712050757931801 0.8133345465110637
P 3.415548916752199 2.777782143250952 3.655265244085485 0.020853189299925377 0.09217816209715737 0.2701437522737799
P 9.246285795268054 3.040463293077243 6.589009057447469 0.09590214791596385 -0.12895265061302952 2.027057989468115
P 7.418584238970276 0.7376816557462794 7.980929535126456 1.5491585602394742 1.0852713861295245 -0.5530923696217119
P 7.812471796367695 2.8989861441518143 2.9448352887326115 0.06650929657614352 -0.04167218292780565 0.02094214946930587
Ni 2.942835732690572 4.144540229903922 5.422396259861305 0.5947475832686532 0.34272985117162263 0.49453498090279346
Ni 0.19347115777054025 1.742121297932096 8.525516626951852 -0.7204387895215916 0.5569456819295311 0.07644763873577802
Ni 5.8835340408290335 2.2436295694663144 1.769013985024108 0.776344856660592 1.5539369554647238 -0.7571466864655864
Ni 1.5377613037419715 1.5412404017142383 13.734482255010764 -1.034365857528909 0.09595511264108636 -0.239242177598917
Ni 2.6811261394788777 8.89589621544411 12.835268671229771 -0.9335996966524245 0.6022320645711563 -0.8961392378131212
Ni 6.433675660613876 4.233414527839091 6.5055597465898 0.5498139559807563 -1.0734504822351965 1.1720368618515427
Ni 8.7171112925182 0.2763134770670903 12.210887172001614 -0.05818329320895141 0.4316465689086888 0.4179029940703512
Ni 1.2982309601034785 2.546292587213257 4.94717368385798 -0.1173600606794237 -1.2064325657225932 -0.3036981911904576
Ni 5.8353170739846645 2.587273770508922 8.22989600672271 -0.6080242457729013 -1.2933921597332887 0.07348907032808634
Ni 4.23090698648142 0.8206655447209563 2.4204926608793498 0.18945713575598985 0.04042802610805941 2.368095540538979
Ni 0.6727483633787789 5.266197714994716 6.497677183923378 0.9978001425897333 -0.792212419820468 -0.21283926212535603
Ni 5.883820881353342 2.88280278682869 4.253631233050809 -0.5536860373416529 -0.9651278491676927 -0.0603371063271606
Ni 1.0191999003915615 8.069120042263352 11.3041703952799 -0.4822083410166405 -0.40400026794633004 -1.6637086622739283
Ni 4.286424507315466 7.596323581920474 13.84431256647676 0.3861172170183221 -1.0866631242707283 0.6132122177317438
Ni 7.915077427789152 8.470983616820597 9.933607507865771 0.49585267127295246 -0.9574039981608737 -0.4980697335289293
Ni 5.091576606131362 3.541925300010766 -0.44665788624219466 -0.8903928222476472 0.5056483172071357 0.43026048719443966
Ni 8.20509170370607 1.3334105624719859 1.4168931838421552 1.2602971769515328 -0.8396945245618312 -0.05031623175604883
Ni 3.9621836798043577 1.8575977412669122 5.605275599948723 0.5303836151702866 0.130867094026923 -0.024866681334692657
Ni 8.759138055789576 0.9528287042344592 3.9165963928634944 -2.0939928036174518 2.0944149787565345 -0.728157755432404
Ni 7.294632120788127 1.7308234824423676 5.908927754858526 0.5229988926704412 0.0409306767760908 0.7245204157901329
Ni 2.9215170046902985 8.999223574636408 4.62893615093306 1.1598367202409252 -1.0239942844865977 -0.34854980028750937
Ni 4.3581901559136105 6.706035364905568 9.569162742350672 1.0845435068245646 0.39112752574872 -0.6614666818627576
Ni 5.573431675290328 6.666405107950199 7.217289737222204 0.21304983547426534 0.007286249248768096 -0.9098591585023749
Ni 4.566408617801701 5.8240377643352135 11.710868620609777 0.14204959300630376 -0.928276227556982 1.56008369179241
P 7.4569560987867405 1.8034959172141343 13.087553239987873 -1.306605058879137 1.654760966162337 -1.5557213010586564
P 0.7411505755063935 6.084313154925362 4.317538376574894 0.28151574155614745 -0.17216003923843898 0.5218077005758174
P 1.4564281357200934 0.9292430108001285 10.920184387723232 -0.5090560573371039 0.000923797365850022 1.5091547661530267
P 3.6967729185370604 0.9677351585784006 8.110694337739929 1.5683027372680924 0.33540940625080945 0.22002960922620815
P 6.535670599306158 6.505496826732855 9.131384883565884 -0.0656880862264288 0.47076950305207954 0.25165417811002466
P 8.336807021884846 7.054851948305881 11.604545165876466 -1.133101618238926 0.6156460239842171 0.7439677258814671
P 5.78723890094238 0.6297398652806571 4.590556888780483 -0.4596636229469051 0.656756677981598 0.6093604480858215
P 2.949072200864263 7.161186506543359 11.213760112601657 0.8185184047048483 -0.033738272792709634 -0.431542953451289
Ni 9.292245049598506 3.1531453545300785 12.290748200429375 -1.0970994891127042 -1.86605833772187 2.213310759354195
Ni 5.47084454970915 0.25587840294009173 6.841699829399672 -0.1844360283923146 -0.004647526074340383 -2.2707988262683343
Ni 7.3620396440008 1.3978571512401747 10.404198072047508 1.375678773748347 1.565099914060079 -0.9956918379974786
Ni 1.5040714215158442 7.5228368901764755 6.265232726527338 0.40494514835810264 0.09543703535408725 -0.701180969733244
Ni 6.800618714566506 6.792106028038618 2.027080703577075 -0.7092444634676688 -0.040000451652337565 -0.47163056550079424
Ni 5.476988488681451 4.483419177074941 9.779086517420383 1.4549150309728556 -0.2309028044952862 -0.029904243758600114
Ni 3.2287509649859105 5.237476650883235 0.6325860635154158 1.2617346807290077 -0.2583467596388519 0.404644072177916
Ni 2.2914486607447064 3.466782335561884 12.637559676035567 2.4623221005247333 -1.0175675550246475 -0.9481495694421411
Ni 6.682569959433045 0.08467717336011528 2.641481077851285 -0.7584553779746809 -0.3055069622644222 -0.10502262215999332
Ni 2.85781064953323 2.971630820163164 1.5940024029308881 -0.10081501183654897 0.142847920537883 -0.3301970088119346
Ni 4.548559734853555 7.5699064949236075 2.7325011279666906 -0.15362367099714833 -0.5193008749935637 0.39308104993066495
Ni 1.9403928706707534 9.213326893732908 8.969198774077341 -2.615982024076456 -0.41036040583640293 -0.1978142494714335
Ni 6.740160134378229 4.741307314269225 3.141784619183405 0.3928923309586266 0.6787185269646698 -0.11445651387938352
Ni 8.093519992669915 6.4453806045897215 7.23737320038392 -0.7977616317734711 -0.184212856637915 0.7848251262174613
Ni 2.02118011640443 3.306114630268154 7.535282993055455 0.16013396131184035 -0.3987289922450617 -0.5774934241738957
Ni 3.9541984097243943 1.4681145738556602 0.30644005974768557 0.14788265474831305 0.9580125782791501 -0.8802053401916841
Ni 1.6479728355176924 1.1233970340769277 2.8217464679994335 0.2836777822044727 0.054031475824106945 -0.2605332257672094
Ni 5.135953611118043 5.140237713142404 4.943151439473554 -1.9509283961933883 1.2709551708860112 -1.2495720772245447
Ni 8.596712295669434 6.1010331816165495 9.61099611959114 -1.1644605921661817 1.6354254990585186 -0.3137658598391048
Ni 8.760738810973624 7.947360866154149 3.3085342688845047 0.47128732322876254 -1.031196972882624 -0.3410972006642061
Ni 1.9556139242994213 0.9675963647763155 6.80894079093953 -0.47210184871025795 -0.46328553597020855 -1.1291734868291134
Ni 7.81745912032262 3.966902669075252 8.43986049464103 -0.057742863237423135 -0.21527641081193893 0.18606739334815053
Ni 0.7641450073438415 8.72933440002183 0.9682459197700739 0.6332588519699738 -0.13427149172278166 0.09699563809045876
Ni 3.6337235207098613 8.030618641564942 7.688761179401175 0.14451810915145435 1.7943225026394645 -0.5242330221878584
P 0.4426347165657541 7.75498340354404 8.11403926837018 -0.7518419864232213 -0.1399734272035654 0.8105032477098557
P 3.88858595301869 7.040352622448056 5.682292280725754 0.1580919911811471 0.8408615482867389 0.3388683113336874
P 5.8621412894676475 5.269362213682257 0.6052168510362449 -0.834885276098646 0.45499707070917117 0.4677096331798332
P 0.8728982789056549 -0.038529159458828156 4.9953036732530425 0.32565618351878756 0.23852818225102793 0.6519096343019418
P 4.785277190769789 0.09955401835961189 12.616826657880091 1.0112495832264197 -0.7262746794770782 -1.6780623598924391
P 7.940948592497818 8.271712728706927 1.0016138003753634 -0.6882789169595953 1.2222903586904563 0.3015839730609322
P 1.120500870073418 4.755269970758987 0.1242528380866652 -1.6901781693193667 0.10851983667997439 1.7155726981330714
P 6.983447163593159 6.028925174973262 5.417886386585552 1.4054482917012956 0.3765581125749773 -0.3052789054140162
