# total energy = -340889.6160634413 ev
CRYSTAL
PRIMVEC
9.10995735209636 0.00000000000000 0.00000000000000

0.00000000000000 9.10995735209636 0.00000000000000

0.00000000000000 0.00000000000000 13.33334343339535

PRIMCOORD
 96 1
Ni 6.599517108534375 2.032440537901061 11.644514782322956 0.6287085135951302 0.3476020916622594 -1.699334639007654
Ni 4.931857472640183 0.2789131794144367 5.744377278950136 -0.3411604498019737 0.06276628459394351 -0.19936436756737277
Ni 2.7971030066026863 1.6613099957988233 4.670843536926437 -0.5327302610255923 -0.4736902762433004 0.7026177021797706
Ni 3.5151042750625865 4.604709803393675 4.9372432792748775 -0.324827259859589 0.17393255775782948 -0.6795988726870942
Ni 3.8262639696069796 3.1320487991227037 2.822668279199007 -0.36723015030583206 0.20401163653139706 -0.6684533975932359
Ni 5.529443328215442 5.222610863291279 2.5027885337230678 -0.6155555211529399 -1.6123246513749974 -0.07154120257309615
Ni 5.183055429583827 4.714484786391097 11.092554324867695 -0.4807479544210301 -0.08730206495177867 0.8751140417117057
Ni 5.892001400691076 8.003243067465805 12.207648602155503 -0.6725841319321578 1.000269172955516 0.7376618382680973
Ni 1.9674956537692252 6.579220124126222 0.36583219105565673 0.01825894621018791 -0.3137884855469241 -1.423456555353258
Ni 2.7122619761748865 1.589596413545238 0.25033706599814526 -0.2350980735235564 -0.11450536483944795 0.09582758592428657
Ni 8.155916838424625 9.117153961326945 6.731524941822685 0.3263508955929669 -1.1128842627507867 0.4650148599564895
Ni 0.1653320563426314 2.209747632845361 1.0644237849284772 -1.477079997105669 0.7293425197691246 0.7022189240794552
Ni 7.330035458043111 0.8038589700995264 4.633590189376947 -1.6571469498960105 -0.4503860542997211 -0.12939719434961586
Ni 0.709949888379143 7.490434472618679 2.2844283281248603 0.16298531471770641 0.06742666618409034 -0.7734479947287711
Ni 7.68217173960181 4.202277448712256 3.7680431448071268 0.1693210271277471 -0.4147315383209051 -0.4665708915896997
Ni 7.850651286120841 4.194697964409031 12.488435699744429 -0.15064196266100507 -1.5203550057442203 0.772445778716502
Ni 8.277443666074882 7.429853257935455 8.739566281635614 -0.5090154339071556 -0.13854517939747105 0.8968110670691651
Ni 7.4356107508196345 0.8023895340200672 0.2331511319380095 -1.0529575044881672 -0.5393847902276323 -0.5417856863596412
Ni 1.9518447474796343 6.52164519528442 9.318193405500008 0.3672864574650642 0.7809926398452485 -0.8473381571500181
Ni 0.316498129402193 4.881588729388749 1.3432276448577711 -0.664012845323379 0.11911638124889806 -0.4086539646682575
Ni 6.564416443846486 1.8376878751194112 6.801631527644674 0.44089379853856975 1.165903238149979 0.7891772325385699
Ni 3.508645315482074 4.4978682265809145 0.2745640858971779 0.7056852853615008 0.16138043212443173 0.24464483667172704
Ni 6.080349763634785 5.837405427819412 4.769190078747904 -0.23611031683815467 -0.35620603128118655 -0.12186103387357078
Ni 5.457647756347999 3.1456044152803937 8.837313388280215 0.5311567458908852 -0.7778353251631894 0.46837426334702564
P 0.31474172967423425 5.686134590253255 12.228462121130958 0.9693426585799887 1.2705435372698892 1.1508779683857406
P 4.272597207530272 6.486544530596531 12.33606255736975 -0.3907912254552237 -1.1206230261559411 0.6287825613661752
P 2.496765941087417 8.54865619875673 1.2493358720558685 -0.6131973053334084 0.7916856007827204 0.8308136771324336
P 6.595135219171574 7.846861543969228 5.593510923479008 0.28214874715445604 0.02832018710093187 0.29426558502264805
P 4.56155593663361 1.185132538431584 12.50978215120995 1.3923456928810665 -0.6560133720576702 -0.30726791081958693
P 3.817928358864852 6.351653395887583 8.179552622108178 0.922163686901341 0.4016675060480953 -0.8598121212473127
P 4.764216042173913 1.2654368102259634 3.7588429991366623 -0.4334429986874794 -1.2567102309312226 -0.9167211757295307
P 0.1840776150574691 5.806686652494324 3.551176061176826 0.7685199612995345 -0.33642139245509156 0.5848629771650895
Ni 0.6778600645112244 8.951134103223625 4.036056260557131 -0.15961511269389286 1.3610222001774366 1.193281887273248
Ni 1.9808872906992012 6.641459351000776 4.7277771247887355 0.04958475290666299 -0.6432573579435825 -0.5640771507679899
Ni 6.203643922961515 5.769508917588724 9.22631311122473 -0.12610669652380216 0.640331185435723 -1.1336760026851571
Ni 9.095062315371031 2.598852120296471 10.124780807749554 -1.934995784123532 -0.6449095488350248 0.9938414150523013
Ni 2.1525644321586546 5.467814468466267 6.880618499643085 0.46128521771072817 -0.7126115801676889 0.4048235351785738
Ni 0.6621535874833526 0.22124624000597373 9.162246426956873 -0.2742613739865793 -0.8870568158958787 0.6423091350977002
Ni 1.7445294538636738 1.2748109560769467 11.361008362541106 0.2709623915203333 1.5702382637279086 -1.0145099991452462
Ni 4.30766143238978 7.0944064177752 1.5648947648815443 -0.2315018715318658 0.5675270569898032 -0.8659837972756635
Ni 5.5654458786557575 7.936130013545306 7.747726079863317 1.4960102583512687 -0.43211425257372676 0.9787703796517918
Ni 5.0674318541312715 2.8804773339381557 5.051883890356858 1.2101992318538772 0.6336460601060635 0.8447770812910612
Ni 0.9834927480859464 7.576168278841811 7.21751200099006 0.3803736296663256 0.7989299410499596 -0.42161540992493196
Ni 4.896164660741104 4.850569325479519 6.908205271718835 0.8823717517153835 -0.8670194376290293 0.5758124369270471
Ni 0.6414430110230755 7.578026710089236 11.07076786247447 0.8887714845941403 -1.420033645714638 0.44105474959646623
Ni 4.871039399072482 0.5809911577306033 10.354607716343516 0.224818031753787 0.11364841615579135 0.03748154188522577
Ni 8.828313661665845 7.208235331679995 5.273937272561468 -1.2695153531156913 -0.3668758522902068 -0.6675015752029279
Ni 7.317773455792941 6.110193983078731 6.841205181266317 -0.5058756027265934 -0.4360585819334555 0.6892353673355937
Ni 2.4276760264772554 5.364006507366215 2.454934840097578 0.11492985397137626 -0.0025168528845827625 0.47738546570670043
Ni 2.7213354934417273 5.277334375562275 11.355901320593524 -0.8636551491424866 0.2829175069996805 -0.10102969895051633
Ni 1.069672942206744 3.564325373248069 3.610163033368387 0.7102361379569768 0.7135346062025905 0.3088802496120293
Ni 1.796465319263533 1.3783456184641414 2.4577215759730064 0.5726548651346719 -0.8688768025527424 0.784078992080056
Ni 1.2800582913637943 3.1833105276975164 8.187072891690283 -0.23241358471285778 1.0553874540858985 -0.7488343099451491
Ni 3.372351247380462 2.332139906419665 7.168205269207881 2.2802193482512862 1.6210849140661308 -1.3217239167984463
Ni 4.253466297630307 7.01282675198749 5.961991379062245 -0.8419964332221305 -0.11031420957623582 -1.0527147923497417
Ni 0.7980094666486846 0.05809055241339082 12.990876252421483 -1.1051904936509547 -1.7668294394255186 2.1923629534579336
P 0.17702924125289607 5.609337651940536 7.8762320456442225 0.30595947642080856 0.6407453901550061 0.44064877240729916
P 8.623749575092642 1.6482463173242754 8.05415224070103 0.3234036400391849 1.4534003941005422 -1.1033536975525322
P 1.9561901970140552 3.3948619513627545 10.30703460939656 1.5808571768943354 0.06425032533863773 -0.12101282694066255
P 4.002013261887996 6.32548048915301 3.658922256729142 0.4484358725518858 0.2549629307682835 0.48655119136636843
P 7.124123097819814 4.087218690599605 10.352220907584568 -0.12541404133215175 -0.5265166760157126 -0.6883550216131694
P 6.569445140163048 7.908016685949452 10.063673948541934 -0.8055723860671415 -0.5571099754215373 -0.537682719934861
P 2.3057756905860938 8.6148673669248 5.543950934889582 -0.11244488276599345 0.7189457499158328 1.4480442719949513
P 7.359524389160343 4.129789520105576 1.4243745876834588 -1.882268114712513 -0.01622468938897851 0.02258045640367724
Ni 5.608955033742537 2.828040420898059 0.2512152658621246 -0.1229900052716914 1.2036483181092368 0.6306514962541139
Ni 1.505620829041484 1.1011022941852588 7.105191695980233 -0.8452113406150024 -1.591721373302349 -1.377992509483188
Ni 7.130235879030707 0.8871367318897863 9.316660199720882 -1.244828134781656 -0.07231536173495934 -0.7843571854421072
Ni 2.881597858660868 1.479684781191388 9.188766423056773 0.3014978411050291 0.30295411393558147 0.9847291683383879
Ni 6.192657314704679 2.2235583278017175 2.5413218302444367 1.904446707692081 1.1656389287449989 0.20094225357745393
Ni 4.2300081581101105 7.352145323913213 10.122741088355932 0.20750602283790068 -0.5273898226492852 0.49954246141971387
Ni 8.1672131852227 7.241441125292078 0.1071649802896407 0.7978809309601549 0.9214206380877292 0.3018886487855446
Ni 7.918320047424148 3.857328923301685 8.122752950615181 -0.5959439175695994 -0.25478012533351607 0.17721482805352706
Ni 3.0739546027264746 8.483857073938417 12.44679590785359 1.5901509434914356 -0.48169874837007365 -0.6856059981131225
Ni 0.25404664052731957 5.066065360566989 10.085100567629896 -0.762448558294474 -0.45717710907962555 0.122861193003311
Ni 9.109465157538578 2.0261000077627864 5.514963962408296 0.504229582482738 1.2112143033819527 0.5200999738560914
Ni 3.655297404800953 2.8895964009904724 11.726382322754873 0.05032728749964236 0.8949763278532715 -1.1431181219346638
Ni 1.1819440534482564 3.5695180487923457 12.527529258627153 0.7593277532773052 0.6401159841011234 -0.2591510007077021
Ni 3.192147186079881 8.514175011151314 7.7367923093576305 -0.06823065014262443 -0.10292640175259694 0.2712634677005199
Ni 5.764015613460305 8.084731633682564 3.5037887973546114 -0.4872258488358899 0.5674959466415517 0.14471017055760238
Ni 3.135647232175316 8.497203161082917 3.4873225499049982 0.9165640813263763 0.2187322305710233 -0.5483700244453781
Ni 3.4251798885756526 4.383993762890643 8.897619482259165 -0.2430767208536588 -0.5739980094261276 0.67187270768743
Ni 7.377407234938263 6.246497161137438 11.463048080968976 0.0067031230517884555 0.08452115977253186 -1.7710694456487948
Ni 7.916570935661865 0.36616652648105136 2.414681583676631 0.3463538210774551 -1.5422985998948469 -0.5660077921317994
Ni 4.742142616132191 0.7961045746200738 1.3655743696123501 0.05020181766537161 -1.6570621034916881 0.37780586893914936
Ni 6.062138959401436 5.7352645888677865 0.17856791300627903 -0.29376730522999084 0.08360790392964311 0.07904085338425097
Ni 8.040839860397783 8.971421977674684 11.205501394925673 -0.12766555637048982 1.176819885062483 1.2710826976028111
Ni 0.022359478694512186 4.600273254288302 5.897177678312581 0.10231962140653346 0.08068558807652557 -0.6730798406216537
Ni 7.5414593423090155 6.473398862508126 2.3462020361918494 0.10481796234835497 -0.5101377204370569 0.40727353938096317
P 8.749102584722893 2.012835910232144 3.4072688019307376 -0.3415494577102763 -0.6617585020715635 -0.2851507672055735
P 1.984248864867338 3.316325011244848 1.3668543185842288 1.4046021416509165 1.42697562425011 0.9723073976352675
P 4.9137377679777865 0.8887646812227025 7.988259010035583 0.03185288284453869 1.5382226300532607 0.774323455355189
P 8.961829192853415 1.867103926579882 12.34719583593582 -2.224324336855879 -0.6108632578835932 -1.431736278863547
P 6.383438036192812 8.070957378554587 1.3410940929060704 0.43759944405801404 0.1134470987782627 -0.8283361621262186
P 1.9260726788572522 3.3657829683148073 5.866830589236978 -0.19447464357523928 0.12455143622154034 0.0230396554282829
P 7.007880045284784 3.9322492104527886 5.963937265897784 -1.3011535488462622 0.33946737837026697 0.05066281646219017
P 2.4186298390817 8.698542322844412 10.285660828059749 0.6754254580356948 -1.3058684378234284 -0.8720919670559303
