# total energy = -381173.98758022656 ev
CRYSTAL
PRIMVEC
9.15042615675042 0.00000000000000 0.00000000000000

0.00000000000000 9.15042615675042 0.00000000000000

0.00000000000000 0.00000000000000 13.39257361965449

PRIMCOORD
 96 1
Ni 4.452780262275834 8.358401656105968 12.427196190109097 0.38456709892238283 0.3891110095393234 -0.11385693262217166
Ni 5.978220316493123 1.0300725964914161 12.366983642413043 1.5621968814806708 -1.0111860769783358 -1.9792742943259332
Ni 7.54340067049066 2.5332862661436075 10.77796825897328 -0.7040276951534198 0.2141446112003409 -0.2734543047042516
Ni 2.63737236100898 3.0008547299177444 1.3183274838083385 0.18919308346132577 1.3660710754552536 -1.245813638623377
Ni 6.60270028398167 6.5914269592454815 8.719904787887755 -2.5003479449492034 -0.8330081136805912 -2.3428542494736875
Ni 3.570587699113586 8.760416468573245 1.252913834018089 -0.6330459646282194 -1.0758241246736957 -0.536710842939895
Ni 6.661217257754334 2.1535344399451173 1.598377184200797 0.5856145106191334 -1.2151516907631459 0.39382101342048303
Ni 3.2087432564449 4.716156971595395 12.755609551670913 -0.6896495720548768 -0.7348261685915151 1.8452036057600478
Ni 8.273787667603104 9.106394072692783 0.6589468768098125 0.10207073862052099 -0.6058956294656727 -1.8345726084087632
Ni 5.480244987379415 5.935890446176884 12.143260303827466 -1.0377805396374127 -0.20771788173839065 0.7240812713701853
Ni 1.7178094583803425 8.427780185448322 13.180073104053198 -0.5121084710101825 -0.7414377603707617 -0.7993693425802233
Ni 6.846833647586781 7.540957506769424 2.8905994178956043 -1.0242179704616297 0.3315620074802612 0.1100622414664298
Ni 7.941032428941189 0.44476834750371513 2.701523252021962 -0.02190451338257518 0.6210029174207563 2.2038519279341404
Ni 5.110384771602855 6.164577890825271 4.246048349585247 -1.0605340312838445 4.3757576419789865 -0.6350637663891966
Ni 7.669502690124919 4.124508732315813 1.1326113543333394 1.8151342971784932 0.12258711340631792 -0.12804967918278592
Ni 1.3187044813563344 5.961795301962719 9.339136986109901 1.9891391029351548 0.7530012968386451 0.2788399944961972
Ni 4.4238283146578965 0.5764100349912928 10.365931900035974 0.5814542085938568 0.617409286532227 -0.2709605917481204
Ni 1.0852679656543107 8.644846589175474 1.9011958894155416 -0.08605533702887115 -0.048957146624993106 1.6757869335947009
Ni 2.948422789383363 6.789908847924585 11.770210249574419 -0.862215845592799 -0.21358745314529023 -0.5856937005965009
Ni 8.717464369294296 6.120500289157886 2.516062419430193 0.1277588874152445 1.1147058893405577 -0.725920124351137
Ni 7.529839739273915 4.5874745318510675 12.156492734753604 -0.683849420433332 -0.27429454121735986 -0.0009420521982951518
Ni 2.948569196198119 1.2111595254923588 2.545566137731241 -0.06161520170863582 -0.20422375254220312 2.001086505105018
Ni 8.272680466066513 3.9499735082751872 5.862385074743607 -0.8802037975297873 1.6441947606107168 1.3694183946609317
Ni 7.300411110125828 5.713800458618427 4.420178209757519 0.8917274818986707 -0.7539176380053274 0.6787992596039342
P 0.0687361694426115 7.436185129959885 4.255396424707398 0.06672166969726574 0.8093984446814513 -1.7862284127774204
Ni 3.111218016965767 4.401885593296387 10.63790817963725 -1.1795748220998008 -0.10914692874101202 -1.2019984412106397
P 2.9320435269825706 8.83329046061789 7.400762916172338 -0.025620271671265554 0.35894657014080117 -0.6287779333804848
Ni 2.2870940567059943 3.1465569618774216 3.908368351691989 1.2852044817161739 1.1454334003314015 -0.7715813738336776
P 4.206615504115987 2.6873702882480477 9.899937309520462 0.1727966443811734 -0.22253849169099094 -0.28954838205263683
P 6.4525966971534 7.371253707615736 6.06414373094546 0.39445479034974 -0.5144618017337076 0.04541853734411533
P 0.19359739132181636 3.0855144705502218 7.744496835855744 0.9229604717710234 0.7552818653427057 0.46656369250084806
Ni 8.629171909570694 6.651014532851047 6.130825629768531 -0.7956893226254749 0.8246589703849475 -1.1602416689888277
Ni 0.4827462752513408 4.250958468135116 13.096343046694418 1.1645390108126008 -0.6371440459569931 0.011952544376185866
Ni 0.4121928312205743 7.870491795506713 11.160231877087423 0.9702302033912643 -1.2387166225672797 -1.7683016530956706
Ni 2.166299284106629 1.1432908164271747 9.346904782675283 0.18064313700878568 -0.5925382343221601 0.41816730347533143
Ni 1.1546647958485072 1.5197393388677398 0.06132157931782808 -0.6877055609546285 0.7057729599793007 0.5098649263916445
Ni 5.0016136586653 4.129980687017306 4.658379352237247 0.02066472743820312 -1.046097029922908 1.0787531253950324
Ni 1.1734780715446134 0.33083730938861466 4.443267479487083 -0.6685721825592873 -0.5731834839446323 -1.8184255663352553
Ni 7.904266017585666 1.8865433123862738 6.894068146197335 -0.9582293222756465 0.1338439172670598 0.0035540358998454925
Ni 2.1233014326980673 3.0550710035069604 6.329959943815889 -0.8163167690678392 -0.7413410868918975 0.25895662530870883
Ni 4.347559514596105 6.5134378791103105 0.5924434112922251 -0.9488661358931916 0.41193700629490343 1.753197707574697
Ni 5.294454739454444 4.847209371653582 10.127825921985837 1.0353924990212102 -0.8040790893510669 -1.0264304047319162
Ni 3.613411692429625 5.07820272363437 2.531919192510826 0.014597952418832924 -0.8098352751085537 -0.4438814204119839
Ni 5.392501553211145 0.6539049921266634 3.3180368587026146 0.7261471527602785 0.34707115885945383 0.04346886981691223
Ni 0.9077213364426789 0.6327693383314953 6.795860284944403 0.6762541245845772 0.7947783807754312 0.40132966309270235
Ni 6.155116350421684 1.4696041552398387 8.607715075825654 0.21184218831940935 1.1493095954573562 0.6054657410171057
Ni 4.916505547162634 4.13335719418261 0.6983138392124327 0.324095523899887 0.7479699050623247 1.3021128274357383
Ni 3.381997420856414 8.902376176330732 4.522256701175554 1.4279235899856764 -0.16613054521490742 -0.0944013950007213
Ni 5.854598062283788 8.895202242407702 0.9271321349515067 1.0580611442633197 -1.2090818304199822 1.1564199812498923
Ni 7.213555267272015 6.5968348609655205 10.868541919879293 1.487107556545 -0.8699597512042759 0.4092538030357855
Ni 4.344722882560212 6.8614560282105055 6.433604988151811 -0.7168914384899654 0.409382872414482 0.8230234916640536
Ni 7.909591565472405 0.12664097972107868 5.1745823297880404 0.37140562183976034 -0.43666407672793833 -1.936915112633432
Ni 2.81048926903166 7.970579154244071 9.39831828080452 -1.2398592208121548 -0.7643588879433095 -0.8993574876401027
Ni 0.6580867367731228 4.931759307174993 4.422977325047128 0.5636608891661776 0.4683521518598386 0.607168068420193
Ni 8.902431078886265 1.137031925096369 9.428639132140425 -0.2586262385524837 0.03485233179249481 -1.0111675650355747
Ni 1.8065594394000566 7.609375241389942 5.653848698061157 0.933764761475379 -1.091718684416765 -0.09418079434948297
P 4.5652572977118915 7.899022823532229 2.916044922300143 0.019944047222094686 -0.8496819747918464 -0.3564777968853345
Ni 8.94252824527748 4.572870452079187 10.076116865099314 -1.9398412851412914 -1.224299418700685 0.4675165433324206
P 2.515442935595258 -0.13310850076291122 11.29273827982465 -0.2463281379114209 0.801334436726394 -0.009987193119698928
Ni 5.1537852417519945 8.594702255121652 8.150867251062003 -1.021273286011009 -0.5878066331744458 -0.37949071284073993
P 7.594652206081073 2.3543588376603113 13.029620885997291 0.8892859623367136 0.5648556808052271 -0.4039460176696269
P 8.13929470739816 3.568464800299628 3.5195813949378882 0.43354018638697595 0.33923057976911253 -0.6160548293868616
P 3.1011067963217025 5.377769367476354 5.0389821680465054 -0.847111900071825 -0.044345873105226856 -0.27144164514959707
Ni 3.7004413933759595 4.480441999838737 6.9657589881702355 1.9123651912082098 -0.301593486142629 0.10591505206727565
Ni 5.3982297198384614 3.247788123855058 12.195371064411978 0.025263659662795198 0.20121659028476313 -2.4157573653913165
Ni 6.691084247964494 2.344897297256725 4.757269835263978 0.18389763939034137 -0.753081258146961 -1.085886136895388
Ni 4.096773791345532 2.1770876362689386 5.056366147213559 -0.31446340012676166 -2.201516337822428 0.23605580945113536
Ni 6.751650917143739 8.804182955759275 10.02083182176238 0.7212417450388611 0.4878161741217211 0.7620171271840102
Ni 3.9192006258987258 1.8332512318152032 7.55129565797636 -1.3174669412943052 -0.8082445335826661 0.8243807770228964
Ni 6.188442201630449 4.906549883759246 6.781315682941019 -0.1911772037708901 0.7665929194801507 -1.006187852432796
Ni 4.755265891987008 7.263315283437105 10.143856553158994 1.4732125437304628 -0.9387732704335638 0.7781716254566857
Ni 2.1159261894047496 3.354445488404578 8.76770295273512 -0.473331607352301 1.180253079113748 -0.44905885084786534
Ni 5.520936931455574 0.16053324229442842 5.912928367367639 -0.049806639109481965 0.846704123110445 -0.4705098216327897
Ni 1.7709825834144242 6.045000124873562 0.7815598390399252 0.39741130187490264 1.1382019155799685 -0.03884396945039117
Ni 7.874399027375506 8.843200371891665 7.329983456621292 -1.022413056042407 -2.102850254008082 2.6911112011111267
Ni 4.6143401823587356 1.7749172665609834 0.5374026843274161 -1.7190321174365815 -0.09914662299519053 0.8935984736691385
Ni 0.6987310986344865 1.9641206233549446 2.5456869233534145 -0.8462819479713618 0.13026417033560145 -0.23353741390465588
Ni 8.66311998974217 0.6422912715461684 11.81704395952958 -0.6292224771170711 1.2444129016211085 0.23873567027614367
Ni 6.714985160473361 6.223268722690458 0.8663870324667791 -0.545202425350674 0.8979019861404988 -0.7071726685403047
Ni 8.48721220181321 5.489953589282901 7.925603895793716 0.20168093151569136 -1.5649813862043436 1.2275847743201762
Ni 0.9551306081883478 2.861283283325962 11.037395644464807 0.32859649709403405 -0.9779239724910965 0.36040695673641154
Ni 2.1365603998593796 6.544576778523661 3.3656877016926305 -0.6412202729088956 1.4244330603339146 0.2112302657670233
Ni 0.8929333331097622 7.59824832346851 7.698747451372369 -0.14199200029549094 0.7958970677609066 2.1141821340811333
Ni 6.095839891297475 4.851866938447997 2.5678117381907755 0.4315270126116891 0.10860725418745812 0.9884302713390589
Ni 3.044694420511151 1.9602042410602298 12.056047594362688 0.4243001558459467 0.14914609484176894 -0.6022426060941176
Ni 0.9633476906665108 4.38507626087725 2.131066484135672 -0.050198218120945805 -0.8459371630374335 0.1904197567795753
Ni 4.8189437059798115 2.921346679079483 2.7211966677547577 -1.5530923480762415 -0.8522556490562935 0.43892381929639246
Ni 6.82894456490882 3.784872373360381 8.59839353693868 0.8400724767265404 -0.5879956092568002 0.8688408071084843
P 6.837628319109017 7.9256414125399965 12.447446082674993 -0.10005113708733092 1.0636967452825423 1.2494944299090738
Ni 1.5251563910137003 5.366367936777255 7.013958856715584 -0.04853985658191641 -0.2939699081591002 -1.0024214434118286
P 8.378276381209053 7.435663555682317 9.204019051814468 2.3586109980873124 1.1896784861927059 -0.18856856250344944
Ni 8.664135687019536 6.743690046591398 13.156917951256993 1.0594027458928785 -0.22434186344831689 -0.24681484773985238
P 5.637046685982757 2.5634094682795903 6.650631130004906 1.217385465189671 1.314429182909246 0.06892896176122967
P 3.942799574352158 5.862760242206417 8.558524216152929 -0.26846070814440215 0.6640357281415145 1.1210742547607466
P 1.1303063620435296 5.592337704926739 11.521269252189768 -0.2814650908238701 -0.22649181991178413 0.8533455396863627
Ni 0.4703712392341162 2.3568569039370804 5.02564359217967 -1.8535838594039429 -0.7229846958718967 -0.9776115834570003
