# total energy = -340863.28727196774 ev
CRYSTAL
PRIMVEC
9.27899608410437 0.00000000000000 0.00000000000000

0.00000000000000 9.27899608410437 0.00000000000000

0.00000000000000 0.00000000000000 13.58074870438775

PRIMCOORD
 96 1
Ni 1.1348304745238524 2.6539320052243207 2.3953588666701067 -0.6082705574557524 -0.6548286077209496 0.49602416385381026
Ni 3.0913902657571617 0.6240969114647242 13.10133440144887 -2.132782779901456 -1.4529558503639557 0.45189606318634434
Ni 0.24676097680517792 6.5100228790424115 7.7902839838167095 0.0011989054041076125 0.8343247756094856 1.42938243391939
Ni 1.4040234238571487 5.993553968632868 4.124419020735825 1.746324377493631 -0.3338034952162703 -0.23227448803183223
Ni 0.07976132064300032 1.8275260745937996 10.517162815113338 -0.0759483305018563 -0.31037637454158157 0.5112934313080549
Ni 1.318638103814234 3.5227986209794206 11.8699132914633 1.5095712848651548 0.14338322421606275 -1.1090528048198385
Ni 3.911968986978103 6.399825524029408 7.49465795893394 -0.8225995167527576 0.1688479441460705 1.1176184350016622
Ni 8.977428509184938 8.985473398608672 1.2260281575829461 1.0092186688393199 0.49045232619298756 0.11494142393560204
Ni 2.6887375187519202 9.131793884563544 4.673352354013675 -0.0765751654525778 -2.050817039560926 -1.0153934301914642
Ni 8.116968663692703 4.857535782636999 6.968621475877554 -0.3804188810819642 0.15404661746717985 -0.09176498581913874
Ni 4.168839429789231 1.1790448898688304 6.03345086719715 0.46738490285056283 1.6076385587532376 0.1465441384425476
Ni 9.12353557823468 7.68414062210155 3.5225471601912046 1.7571160687924967 0.7132343013533523 -1.1432798443235084
Ni 7.015310599422428 0.8876333849125434 4.734072247221328 -0.995502090584176 -1.1410123884455703 1.9219358656157806
Ni 1.6342724275025389 8.31617014713992 8.797948603570715 -1.2120342281800869 0.5660409593625799 -0.17343710617864969
Ni 3.567875982940785 4.669747464116188 11.491105708057958 -1.4639948817869366 2.397579666041026 0.5710296708264231
Ni 9.080026366576213 6.473992538059295 1.4287491641655983 0.4923526285394939 -0.4241713435775663 1.3502348797539456
Ni 3.69252073453136 6.112269441859237 5.3663244681607 -0.9088044919856155 1.1450919578315826 -3.4050186172721038
Ni 6.011852148498617 9.233417447387929 12.56281674104085 0.25658169731862907 -0.3948376276104555 0.4572822671989222
Ni 5.891540687981726 3.131818850785088 5.754394345248594 1.8248692650780702 -1.27897058499132 -1.021793677290853
Ni 8.493454642330088 5.6651146306368885 4.483982894595742 -2.714188137535248 -0.34531149585586984 1.5164502713731756
Ni 1.3818651817073464 8.262194228134309 11.051877015112144 0.4073948954501758 0.19338115340074438 1.515865345403983
Ni 4.650372920728923 0.7292232952319704 3.123014939498768 0.3462628040255456 -0.5717056138475252 1.4314341742420962
Ni 7.3104383422267025 8.647439578877812 2.8769183387982493 -1.3757037134490115 1.6408934641516257 0.6232212652283138
Ni 6.527634413213402 6.978315242868298 11.483052467537936 -1.021675149435118 0.7708321543724789 0.26389211493711323
P 6.141804485729765 6.13750831063958 7.768703823109927 -0.30751756493654786 -2.120624033051735 0.20708436191944982
P 0.4062483579068531 4.790968266228841 9.17590066355637 -0.7693738246593975 0.7288709794493448 -0.4881781854468302
P 1.2866162890491724 8.809562194808024 13.303334430052024 -0.6010760965898423 -0.7690742911411078 -0.05697950270883736
P 5.5761754551738 2.18463750984392 11.93700228743964 -0.39426864248086296 -0.2549145940288513 0.1384924717826647
P 3.8671885528847425 4.220495599826061 8.403903053139242 0.8779204008122494 0.6730988667850472 0.5561057025267391
P 4.476104099198172 7.920031255239016 3.8028674813779526 -1.2241577509164983 -1.4634261537676603 -0.5400141962815151
P 8.777846586906842 2.6568084939456096 12.505546778499568 -0.43089657811654175 0.2959458009385484 0.9653404793991309
P 0.9913957562861461 5.661143220402334 11.287801980534349 -0.01318230301822891 1.136582891919307 0.3874881292239198
Ni 5.886715610126661 5.4905581602340074 5.609351577025728 1.1251042018557462 0.833091674533333 0.18006926678318666
Ni 3.488206524356949 2.7291753827757215 12.604971219301548 0.7340615225113487 0.7278584790244303 0.21699133662051662
Ni 4.194644317317959 0.601676073731656 11.246204242026156 0.6749631736872956 0.09686348338796866 -2.193875276337402
Ni 7.3539382748892965 4.998539403955422 10.530213722811704 0.7049571489462246 0.8191511531928408 -2.919319489493385
Ni 8.510388809802192 2.3782530377743107 3.8861715226460762 0.34579820568430125 1.894612238100163 -1.1892519401782486
Ni 1.048665718827427 3.6013917160417424 5.258370774350304 -1.2555100399755343 0.4754756502784972 -0.07495434201970318
Ni 6.176684231224366 3.849938899552882 8.04767961779437 -0.3795025399152819 -0.11867646549800205 0.3995422321749764
Ni 8.067326035760775 3.751034082519908 1.3128378034926924 0.2962499624425285 0.1830903129976976 1.1785921464715574
Ni 5.5634446728331275 3.750365994816899 1.1283361053108512 1.3770615130284865 0.8073181651136547 -0.053653780769714055
Ni 2.2919305391480083 6.246517954180568 9.48893686839964 0.26275671578108944 -1.1114099921981053 0.5450700135378677
Ni 6.933043021993555 7.623075550247341 0.7642700626523234 -0.5008370118614213 0.5488729322237258 -0.20631945872896726
Ni 5.586957648380697 5.382188767408405 12.964454365897351 -2.479346660107188 0.7191671218980196 -1.7711951725933819
Ni 4.985298276841617 8.252970906234433 5.93086228880175 0.4798529534105864 -0.8802264232376066 -0.17655482587202498
Ni 4.007208600640403 8.287108332059024 0.7741234283721203 -0.6945899467792876 2.2355747129587176 -0.3735805180038921
Ni 1.7949660780679806 4.711846268401637 7.184474117422685 0.20439267401989958 0.5836977532123947 0.2191703465497064
Ni 6.65550825536852 1.8371298353245555 2.6898166659721974 -0.37225228611077177 0.9796980336723838 -1.3072426924631357
Ni 3.9043973263439997 3.9761796384339787 6.179185848512299 -1.4387996134682317 -0.8793031400923889 0.2147524199876689
Ni 0.10744334903726535 7.710307390469406 5.766915422282489 -0.8234916895497237 1.7772588622889587 0.27894001040917127
Ni 4.8306638105826325 6.495826015353468 1.2474542869582006 1.9970704419670897 -1.7056623809978948 1.1957252066074182
Ni 1.1731805644757503 1.8783378560059925 0.14202987826221206 -0.4212811665139648 -0.10597290188840458 0.11007818230602977
Ni 9.241304593881786 4.9011285052583435 13.223289172135246 0.5257021505342172 0.033952445686044753 -1.788243129214604
Ni 2.421604506502902 2.0286204731995423 4.266744898966454 1.6324466189358529 0.9253922211409676 0.2690458912239108
Ni 4.2519328378509895 1.726440693530171 8.827024337145424 -0.6974410430748376 0.2729380271894654 -0.21858336369798484
Ni 4.964021539299951 6.204938773664125 9.504554346357065 0.2585876720050644 -1.1731668616909279 2.322723540162084
P 2.18644691403957 2.1865025880148203 6.699518532804246 0.32063867569953813 2.1753275952422024 -0.7315768084162819
P 3.6254707103376957 4.9362958996250725 0.5313579871907719 1.1304029883608402 -0.3650755658566745 -1.6454898252730565
P 7.553807846039522 9.074588874993388 10.894367915931044 -0.6927166410159747 -1.801245455011543 -1.4252162183568424
P 8.131360386295023 2.99335767433645 5.94956317708848 0.32606704580396106 -0.1089936909925994 -0.7116785268304582
P 6.1848033526151 0.18526072004442667 1.3510032414266755 -1.6521273851942317 0.985838856462799 -1.0744709530799106
P 0.17036329216691098 4.430460718488424 3.1257039925033796 0.10196223806711473 -0.5206193366946711 -1.247229030913665
P 9.011120543207522 8.9929244322964 7.576305699438354 1.1564094397269309 -0.005197742150855565 0.3730812097699704
P 2.443020428982694 1.4521628544573053 10.438421256117014 -1.4317293368850117 0.39903212530777726 -0.6013864287414095
Ni 3.958865032130993 8.33050619576699 9.391739386607687 0.11839647236373804 0.3987279638037972 -0.40928439916340476
Ni 8.614090867702608 7.341736395313505 12.731883757484004 1.4622449889753655 -0.10421169622292374 -0.4855014099456155
Ni 6.995203015361028 3.800769500410586 12.229912350229759 0.37000128529306603 -1.048008388013008 1.4767336695098439
Ni 2.657133258801239 0.8880861999112496 2.0751518538145395 -1.571408886997242 -0.7423823836722182 -0.5606935790077375
Ni 2.1416108059709584 0.1712735616622609 6.903433746156027 -0.40965463801863 -1.705936460594888 0.01797869596560775
Ni 0.23709690260123362 1.0408342463088205 5.453376295862787 0.46632946500285494 -0.6526773657059017 1.3734966784953635
Ni 7.233775278306407 7.6456142312280235 7.0286074005114845 1.560439789580248 1.480287448299373 -1.8557716110838813
Ni 4.548814310875664 1.5692545034055272 0.8886512907600448 1.3874315434089008 0.20076047658395105 -0.06853301187439165
Ni 6.917825468758348 1.916205438172384 0.1936591392110037 0.4940559843838459 -0.03510815655704276 -0.3329069515439299
Ni 1.776816362136233 4.408144733408745 1.1747088150963838 -2.4769403646585406 -0.0030141042359754545 -0.045657649938114914
Ni 5.190299132710787 3.7478328289429896 10.331024302059124 1.0746540156249942 -1.034168139695806 -0.40851383954596737
Ni 2.0160288757969953 3.3002419049145097 9.004796907518623 0.9415770584309461 -0.14731315539808823 2.251412708432239
Ni 2.114089304205333 7.818268507476504 2.630917311755244 0.08601445648860671 0.003375601340452251 -0.690465897308585
Ni 8.578014131740115 7.202013275425849 10.334257104222019 1.4655681398113276 -0.7089726978635209 -0.8901094866792734
Ni 6.636458476836886 8.00385770397491 9.142668867729192 -0.9932174083150571 0.9777077427152324 0.9826290912762495
Ni 6.516583129126126 1.335618666265716 9.794014478480813 -1.667654534295554 -0.7514537498458671 -0.018025490043143147
Ni 2.0359787169285175 6.45492420153591 0.21452667303457582 0.05526997621689836 2.0207510734134813 -0.7607560010833995
Ni 3.6049641294536663 3.416387096283469 2.1159618055729337 -1.7656778423195787 -1.242030774542177 1.189478711477074
Ni 6.550191652185834 4.104034922597347 3.5050822341550414 0.653521715984068 0.17063588928442872 0.06915316195689382
Ni 6.593561678906176 6.429453357858687 2.9587154711362524 -0.3048235630441524 -0.16254514185649427 0.7051121864668501
Ni 8.570609493031764 0.5241881070780616 12.418996944474326 1.940678693440922 -0.22094183662783237 2.499759419435585
Ni 7.391276954290806 1.4189626072161023 7.195365802780908 0.367341993293348 -0.48479847034131995 1.1413574304898149
Ni 0.7038294672205117 1.6284637760847096 8.38350503650695 -1.1848576677652949 -1.640484401638665 -1.840166557556773
Ni 3.4283013269871314 5.817086025079711 2.841282355139825 -0.1393537913416955 0.135753732695263 0.7707501361816339
P 7.805491330156454 2.8206662821044692 9.212758690971548 0.9128670920907633 1.3563106536343803 -0.5817563132153077
P 7.301614017149457 7.812218602165921 4.898833809578425 -0.6739198200244458 -0.6821735753928058 -0.9169857422448272
P 1.789630655439783 6.664490323375643 6.17061669582162 1.7801624090889987 -0.8988905753060131 0.6891194105830196
P 4.768930651025416 2.961771972377519 3.7905774513413473 0.2414499838835132 -0.7734261403519003 1.2800231946255503
P 0.5114415504444002 0.5951037609533038 3.281394408492953 0.867108912019042 -0.515522381787738 -0.28516002317695405
P 7.37363758313219 5.699465473366607 0.3035734848498153 0.6671611611443736 -1.7985311414041736 0.2726402934433885
P 5.496441043618838 0.26995568279423177 7.6446436482594855 -0.4290983485655384 -0.005919707918544643 0.9189518648322625
P 4.329830008222677 7.639740626839069 11.768452111066729 0.722245503713027 -0.17787842977945495 -0.17863844787393104
