# total energy = -340890.02642852534 ev
CRYSTAL
PRIMVEC
9.10407528288746 0.00000000000000 0.00000000000000

0.00000000000000 9.10407528288746 0.00000000000000

0.00000000000000 0.00000000000000 13.32473443053733

PRIMCOORD
 96 1
Ni 6.644745911937911 2.0636480583350374 11.490091371664082 1.2277233567805697 1.0755657288059863 -0.38955812437907106
Ni 4.967638682289082 0.543993079613699 5.930985498751194 -0.8881274232522383 -0.43119045520787674 0.21238109154201487
Ni 2.851906209216803 1.6905448447776816 4.636447900146836 0.18907661248811952 -1.2315887532732468 0.8717358692680921
Ni 3.4600584386256017 4.611578297675638 4.765325189959874 0.6262906481822569 -0.04573144059884382 -0.49405187061878786
Ni 3.7315055474886667 2.8088348290172074 2.6287298179517684 -0.309929259701834 0.5684405699430081 -0.6057033109492085
Ni 5.134161323428549 4.674969973923744 2.737712882439895 -1.4860639457718343 -0.005518101604751787 -1.3786905639914773
Ni 5.4022126122082375 4.815254670075842 11.404253597787122 0.07928433685362475 -0.5778065845389403 -0.6204678708528927
Ni 5.769862484666553 7.670884446086481 12.242632414365959 -0.8249384492985793 0.5470968141599094 0.8928543964142623
Ni 1.8670455524355916 6.574152912134979 0.21381649145881965 1.4473709000770105 0.7116384176211421 -0.03103835736304332
Ni 2.947307814186486 2.032275414883799 13.199721999880873 0.024596458392441508 0.2374233792226234 1.0535038639099406
Ni 8.212340219916703 9.204129077994025 6.3631605048312885 0.14866889809503428 -0.7702757676483766 0.31165909790874713
Ni 8.50496340790559 2.640737182852476 1.1425650905942506 0.09454691943965007 -0.5415666283702996 1.6300938024329603
Ni 6.901007423216337 1.1144571685422036 4.575700047363106 -0.3577852028428483 0.22559681890134053 0.010863425077065163
Ni 0.7471359532018768 7.85101767978532 2.0742479331958257 -0.45253086855686575 -0.8373874736952094 0.9012999560784543
Ni 8.0128062017737 3.849385114350719 3.8744331566976116 -1.0503833160030878 0.6757167640238685 -1.93397582749945
Ni 7.71103341811781 4.064104730078362 12.599442064375815 -0.672568448202874 0.6109329347792639 -0.16508770577268989
Ni 8.319595330914682 7.575237031083954 8.603794518037223 -0.07929796370037956 -0.23031813563640977 0.5450702706481838
Ni 7.250248855437159 0.4942611579315358 0.17254316612910725 -1.5161170564034727 0.32026252330704197 1.1954683534016055
Ni 2.0144223232390286 6.582210018767117 9.292536932325506 0.6850434407414331 -0.1791552396093495 -2.284998514807484
Ni 0.17025075997094655 4.957806280975287 1.3133739303805079 0.8007556814047887 -1.0165540261584687 -0.8400627065345274
Ni 6.62590047608647 2.0890848446968366 6.893471069690819 -0.4498528075040704 1.0220137637214592 -0.6040796593028563
Ni 3.430925397695839 4.501346154057647 0.09993998650202217 -0.24279749905034312 -1.5818005146442113 1.4199801667688834
Ni 6.0233563570566515 5.699305901164784 4.48306699168928 1.2357405706580913 0.6591909984547034 2.408179810154375
Ni 5.631453228024308 3.0896864476554113 9.26239607026108 1.0952061287447332 -0.3869142589983207 -0.6304766612391465
P 0.1890889125621544 5.805450314977317 12.520866611358128 0.32281819984936017 -2.02020985619803 -0.9106382027602447
P 3.8938494180697694 6.206330062246144 12.436281558241149 2.0687234875277016 2.6362472020833954 0.8358183294358768
P 2.571455169891384 8.608904635497808 1.3215712397721198 -0.5775751852544246 0.19590057738848843 -1.5335614771321653
P 6.509504873496778 7.833146379989969 6.000034447384848 0.09074554341568888 0.020413787769661615 -0.606506266466478
P 5.005411490669578 1.252575094775151 12.5652908571459 -0.29285122117362467 -0.2841837753066138 0.050758204389473864
P 4.090797878830256 6.187739540502839 8.127821626549345 -1.0083133834162312 -0.10003365358583417 0.9251824191230067
P 4.729658154194083 1.1062726048559985 3.5271636671847233 0.9103756931274772 0.04081189181003939 1.401102098917458
P 0.4361990073585186 5.9074341663820675 3.399646526220093 -0.8405121353671201 -0.035756588774319066 1.3933432809076454
Ni 0.7811205558539741 8.99696584475754 4.258171751009389 -0.29649293169127 0.7380027665472838 0.5276466758550977
Ni 1.975338528016694 6.658001445560953 4.833654006238045 0.7784860713733109 0.7242658765771656 -0.9853223218376967
Ni 6.141563670629164 5.711723859861095 8.987986495298468 0.3720039175453916 -0.5079016320176866 0.646757657787357
Ni 8.971137583158246 2.4915669092168 10.272810955975338 -0.5125586711737237 0.4087892046945411 -0.44053667230946714
Ni 2.3334928499469654 5.313893977814603 6.820758641160247 0.8754485422329891 0.16776808081833042 1.6610483418329456
Ni 0.6332621794676665 0.251354414696819 9.33336324755845 -0.0845918651094672 -0.7422671982505926 -0.13947309052837917
Ni 1.5931221350934968 1.2363152163062272 11.329501856391467 0.3031117225593683 -0.09041618510072816 0.01598197725055312
Ni 4.285415696316362 7.24316588486111 1.3419743829057733 0.17698779964438552 -1.0007839078084055 -0.04245791205389462
Ni 5.487636150659477 7.941393835194619 8.1044232426451 0.06466504427855316 1.2491478452029325 -0.05919553652354967
Ni 5.218838327705963 3.0210599281152386 4.848537348523038 0.4665410667930288 -0.18945970685915114 0.2051264668621306
Ni 0.8419840303938939 7.3015776319252845 6.879959711552113 -0.3460730566122427 0.5135346619337479 -0.2103146959312894
Ni 5.035236441321422 4.669434696147088 6.931699992243371 0.9298420293822051 -0.07134657006378681 -0.6791414734347013
Ni 0.8017167053837874 7.393929371672632 11.062834387055942 -0.26523140257382705 1.5143926175131983 1.1109927021550285
Ni 5.406191093110209 0.3131210135055614 10.54352882840763 -1.6909351020900492 -0.025264945214375844 -0.469672670443475
Ni 8.291217928234037 7.301459278946508 4.620737907825461 -0.5817362586106497 -0.5467916242146648 0.849527451491853
Ni 7.559405044153685 6.043740381632196 6.865902108895972 -0.21269373768642727 -0.39524669012341607 -0.4239222036812377
Ni 2.2026217676452964 5.392571396475544 2.5740452793115454 2.7650329881012574 0.2920315534858067 -1.2670609780379274
Ni 2.498622567566977 5.378168749365893 11.20153133247737 -0.15673830536673006 -1.019794130362321 0.7854175083858215
Ni 1.4007621282794473 3.435950847256223 3.663396139424997 -0.7030406486498021 -0.5815632233678952 -0.4487513469097756
Ni 1.6677300320995612 1.2903296950050653 2.412203043278952 -0.564793202998408 0.10798221900894951 -0.6749657447904569
Ni 1.3410211862228527 3.272805818049551 7.876037499498812 -1.3451057860574964 0.507640665046816 0.8866040446291763
Ni 3.6693338173294943 2.8219811137367627 7.2159965929715195 0.198145150448291 -0.45205804268550526 -1.056440320830445
Ni 4.345748403266843 7.1836070243103265 6.204862485309307 -0.9224832750242886 -0.4605838207683293 -2.0576142649884175
Ni 0.8489377231008166 0.15713178747726275 0.04801489308236529 0.28555520173284366 -0.287451390314292 0.1707994114454865
P 0.3900522705257743 5.468617737377516 8.100066032211043 -0.011352448898341737 0.6292499879208969 -0.43610974688636506
P 8.839383405553393 1.5447521830748 7.895371824193355 -1.3646322861261981 1.5066471692398247 0.3008021005895852
P 2.013712205366366 3.2909866564047814 10.44924338306857 -1.0044132770308767 -0.2199015682887761 0.4869579398864839
P 4.113676420035411 6.4346602705331595 3.6764404585012986 -0.5171946272838384 0.27067751329006284 -0.297860501462758
P 7.421542032028874 4.087684285080888 10.292704270892722 -1.7236881281513539 0.6391569626219638 0.5450360749761387
P 6.62291433939117 7.721375647647876 9.910550696089029 -0.2823163830805719 0.6272890075397842 0.6690326671354736
P 2.389319039628623 8.65205795237502 5.712140826509402 1.0592600496674274 -0.7456492273489481 -0.4997005842641329
P 6.898203368026847 4.333403277172856 1.6745462532695967 1.7482804727787375 -0.5815796784281274 -0.7951686742353145
Ni 5.523433374701923 3.067654585452278 0.30394956805786044 -0.346407557133526 0.12323246029980067 -0.23447792344105423
Ni 1.5145994857124956 0.9741724723901054 6.943572616829779 0.10214170106777248 1.3740322392838593 -0.680796235429305
Ni 6.97112701110416 0.7894116372210788 8.815124686534192 1.3605195495094051 -0.4983139883292515 1.1311511793807745
Ni 2.792037810106141 1.6543106251212893 9.103578208040005 0.6226797909025469 -0.8627087260688174 0.5088125738677302
Ni 6.288976857733765 2.470718576801439 2.5328720988100293 0.42391089082732797 -1.215017736288443 0.3250324338918596
Ni 4.272269411596807 6.990373026268384 10.370813595255532 -0.0805151239369323 0.5867427106863057 -0.6431673693329374
Ni 8.39524109250387 7.395349607417959 13.41374333303373 -0.1495926954608843 0.7584600059603712 0.43655660461579654
Ni 7.857235763208767 3.84245691305461 8.134190837622615 0.7627928290077702 -0.17112851265013107 -0.10028922124006599
Ni 3.3614066787771923 8.917751285654456 12.426061323319978 0.07353149353024756 -1.4352527766572378 -0.2151959352829907
Ni 0.3812868668360319 5.116299127708488 10.415798652081202 -1.4286476126358942 -1.7591760366453189 -1.1601377964211115
Ni 8.655144233898517 2.5058603074229646 5.700534951329009 1.503387010431314 -0.5523981717681647 0.3282632821243314
Ni 4.059197633496754 2.6969366396210463 10.996556718940733 0.3548963113308275 -0.9567036296597395 1.8083908078070725
Ni 0.8901500511260823 3.507727376846926 12.515270336277027 1.6063000424474723 0.3526795061851668 0.14490917394228592
Ni 2.8349180047246354 8.47621273813803 7.98981750125753 1.4094836381129339 -0.5191584358784284 -0.07612805061283019
Ni 5.729886490065745 8.199649138961675 3.8784171000447567 -1.3079608015760829 -0.8883315688432443 0.27291308748880094
Ni 3.170694509590733 8.490551656720648 3.391051368738284 0.6899552762207537 -0.07316331155755142 0.890080690323867
Ni 3.581752613034395 4.177259281864618 9.346474936791903 -0.09659017512192397 1.8838624557828265 -1.9731596967877632
Ni 7.474500437994008 6.386263006288591 11.292685886324008 0.4815784207421255 -1.7266024735846714 -0.19705680248011867
Ni 7.658593944444236 -0.30714418807731475 2.8054162487456056 1.0027058074214668 0.5732007103358129 -1.6528619493674115
Ni 4.491277046786299 0.5897101040927293 1.3950329336991039 0.6832932908195458 0.2746048733689271 -0.43278248228534494
Ni 5.888406649024817 5.608720352023803 0.28575143195957825 0.17738374953122352 0.833247483384907 0.4415723126628331
Ni 7.925825866447777 8.930496991061228 11.305743861513246 0.5464668938853944 0.15058951215651484 -0.9239187219192346
Ni 0.438437699472465 4.816647593595296 5.411241123673877 -0.8454100868893699 1.1256742154266033 0.8570029339332917
Ni 7.735605317327007 6.248390890088488 2.3649802047468644 -2.266450062381335 0.9286467235225233 0.4703910366667383
P 8.632129131564005 1.710200543329981 3.4300932852142827 0.6107473011310192 -0.17516463039271768 -0.4635200205785178
P 1.9478442206392304 3.2822012237494 1.4120484504171436 -0.6953743903537959 0.8236099602951428 -0.5242379072838649
P 4.976333074191559 1.2615699211622151 8.081478241690325 -0.9338287819440949 -0.42314341653368415 0.61527989889405
P 8.691724408415949 1.6998765219504963 12.529794067588043 0.3002423714313732 0.7077663362602457 -1.6274805331798292
P 6.552940416707996 7.740312124252222 1.1032118147433152 -1.1825238774257958 -0.05073994955702875 1.026351986085497
P 1.9915801983350367 3.3119078214224675 5.813034920101876 -0.045138029989219036 -0.3838911559012808 0.06856540777422385
P 7.075641795439683 4.113485234454309 5.882736630933861 -0.6360592975332465 -0.01998492776235913 -0.045808059473050146
P 2.6103750917584887 8.65539004393136 10.184200991172405 -0.13212924856879824 -0.0352469961277522 0.7173264691448549
