# total energy = -381161.7360430836 ev
CRYSTAL
PRIMVEC
9.36674077465293 0.00000000000000 0.00000000000000
0.00000000000000 9.36674077465293 0.00000000000000
0.00000000000000 0.00000000000000 13.70917192838044
PRIMCOORD
 96 1
Ni 6.575517654242298 0.10223891321285986 6.089244238922759 0.5953805888669617 -0.1301222454410985 1.409801683573985
Ni 1.6321920626465793 9.313509676418096 9.470501873355866 1.4170897325949658 -1.0323269727220092 0.42032651591017933
Ni 2.032245564980158 9.326651213851344 6.127547652340992 -0.40824464504498076 0.35481892112567276 0.35388612489875826
Ni 7.7775046757116595 6.726191047792706 8.203362612453546 2.1537928064942196 -1.0753991213211351 -0.3910627339490555
Ni 9.164138259847888 5.198119676598715 6.380413125399936 -2.1442766394736683 -0.22926372622996646 -0.5466396720178327
Ni 3.9471352336658327 4.982834504563244 1.5366063454699534 0.6984463444109004 0.40361640224435 -0.6853396318256132
Ni 0.7377891410198725 4.748506748349731 8.326032260840604 0.05134672990309221 -0.8472810786598376 0.32800437203599
Ni 7.193872419169797 2.9396673197347845 11.598247918170781 1.1470390542556246 -0.4505413489306628 1.054776817085093
Ni 1.4039901549586147 9.689425087543208 0.7648974257565526 0.6466262744158154 -1.5953247743828913 -0.18277998084613037
Ni 1.2748040649519483 9.053741852015916 11.999226854501797 0.02468079057613169 0.06908862726754553 0.7386131464377731
Ni 7.723074544546583 0.2299085278735227 4.199846155500508 0.3608946950061075 0.2500999462490273 -0.6318748271382537
Ni 6.713761382665179 8.796015977122252 9.014369693465015 -0.8410163286970485 -0.1855806835197191 -1.0543438433127326
Ni 3.1754469207823344 7.55425777394115 2.1930153685086835 -1.0283147662388226 -0.32294264124236643 -0.5669436736825074
Ni 2.797433359703518 2.0685135856084798 0.16618846311878446 1.4498522717379676 1.354928685685189 -0.6625010366645429
Ni 1.3847321357406834 6.725816378158116 5.890680572679043 1.1303749633363822 -0.04106694524363895 -1.2576360851796018
Ni 0.23541523482791066 7.794402276231674 1.8009057991025013 0.3272440968311977 0.07936609793415364 0.026115466140129218
Ni 6.812739733383019 4.329195226798221 6.006317672024846 -0.5372785425179069 0.07861919246580008 2.598829166446253
Ni 0.545111534735568 8.547506975239502 4.083989874418472 0.22474835485811617 -1.7574479982106184 0.22955297533561114
Ni 6.245143337201613 1.576843990876757 0.29579980316071053 0.009208148861829303 -2.477864933355339 0.3199092537326813
Ni 4.5821534305917275 5.821953984932096 5.788821012471207 2.2113911737339786 1.981164826480427 -0.5589084620828568
Ni 7.180234444470718 6.855733073952233 5.4102014232584414 0.3479949562253039 0.2867600206742223 1.1756430911455624
Ni 5.387721245183035 4.1560603886541365 8.084435913716042 0.7102173689038994 1.8796810707116272 1.4245315335849917
Ni 3.303743170406849 3.399021658483111 8.751428417257857 1.692852630827736 0.07514614631553511 -0.9821706635825924
Ni 4.817305460001338 0.22588644934619798 10.786212369012363 -0.5183133142693137 -2.0262447495382006 0.14896714606174344
P 9.032348215880821 3.850039597861808 13.833925981296153 0.49615837543882946 -0.13031045019250462 -1.3315979813790484
Ni 8.37465313932136 0.16262160819748675 13.557233392825452 0.3901574485259668 0.6159661263277972 0.16283361963119053
P 3.8615606891254535 4.012664952755641 13.169825927333376 -1.087242393812966 -0.5340350958799448 2.7571029346209035
Ni 3.621444287057524 8.169830616831819 7.792992581731529 -0.04036914784566596 -0.021025967432363787 -0.3230331440736437
P 5.976973546243749 5.710826971312672 0.6392810006934435 0.2522000233111657 0.444963340622253 1.1404068936510876
P 9.086057107999311 2.164775581475541 10.77684843816987 1.0543888376180552 0.052473644418683824 0.316039743474946
P 2.4118702054877117 2.0140553542208086 7.002000352599862 -0.04641458270879749 0.14315233915217926 0.4310217908404964
Ni 4.324436922438927 4.273022881832301 11.30489845442029 -0.1439784345979004 -1.1555782020748873 -3.962923063570478
Ni 3.2377825812372616 5.682717381977549 7.514024811904779 -0.3098719241013373 -0.13393056344359516 1.056188095610323
Ni -0.2139682082698869 0.043197535520065514 7.931949119134218 1.0561893811619034 -0.21640821042353695 -3.128139346046703
Ni 7.419198737412283 4.050085082510327 3.9844888595603787 -0.21846560717319793 2.1737306830687273 -1.745034455037614
Ni 1.3062294805531929 4.356349408565139 11.296755009912474 -0.6543701800272924 -2.166756308633423 1.819998824359646
Ni 8.01328427675921 1.4653048406592843 9.072250531964666 0.2491540373959902 0.5132230442306 0.49669496466858976
Ni 0.7207753929131361 6.104773358602433 0.23334518509680038 0.5390011816359684 -0.3941549997211341 -1.154403979261128
Ni 0.42812843472750123 4.201957418891424 4.19052343831782 0.4676841792585365 -0.5487603179052613 0.13244240893384288
Ni 3.800836108099263 9.357486524778109 13.127985632564611 -0.21354168750901936 -0.21316322112367805 0.012009108645734156
Ni 6.671592315292064 3.610560134172681 13.88040000277071 0.27138739487289393 1.4708139615912992 -0.13452963048017477
Ni -0.15582041765558996 2.640193880806918 7.03445048965171 0.23455274254304764 -0.19036756338540117 -0.5472063431545802
Ni 2.5123004010395875 0.7416604150192747 3.04365594014118 -0.410678451297454 -0.5601564755573449 -0.10373732768966651
Ni 5.735770602235507 6.883805196323896 7.6517608629727905 -1.4960873914461073 0.6936131846883151 -2.0911627903678243
Ni 0.5619323279804905 1.2598922134952624 4.637154932949554 -0.6037783260123537 2.710879127766673 0.3938068723530959
Ni 6.549749750123364 4.75555990422089 10.40275298479478 0.08048324225773235 0.5364673594705213 0.13676546178922896
Ni 7.88042642433356 7.271869270350591 -0.021772989140117154 -0.35677450219014684 -0.03663359206263368 -0.16969486552739807
Ni 2.4184269240930383 5.216225586690282 9.6992114583987 1.9694776199504853 1.6725267747861905 0.049090072658431586
Ni 5.674868053132887 3.130870601006977 2.2420118532981173 -1.0228272607616902 2.47623048307571 -0.013669784177608717
Ni 7.318740441637813 0.3613604324953726 11.068799447509253 1.0519061804055174 0.7234009574737089 0.5343320582950734
Ni 5.615211280565279 2.252485742933083 4.385235500717949 0.48323755361210324 -1.015285186748374 1.378182256896491
Ni 4.429784656944798 1.0884902224111568 6.291235195648888 -0.9759550216901837 -0.6066785303782841 -0.011863327096489245
Ni 6.320704835757572 1.054236051068757 2.448718964049648 -0.8987746185534392 -3.432290051393547 -0.040565065906555946
Ni 5.9574438915407395 2.2899808066146874 9.84137610454757 -1.0848731222498413 0.7962873612207899 -0.11897291369249832
Ni 7.532957805214703 5.239464470775733 12.554928426459055 1.8214288719379534 0.228175121151478 -1.0687211950803273
Ni 8.949190290483548 8.086756992102329 9.63094009425778 -1.7486507116339625 0.08428076162695163 1.5853704913836568
P 7.886439871968731 2.285259969218852 5.220562387710663 0.35334722167615273 -0.3554226161479427 0.570445773298495
Ni 6.468493273121636 2.2759962625036123 7.474926162187129 0.18860404372707518 -1.0426851760278817 -1.481326945307481
P 2.598839719889036 7.664878983553876 0.005231324772964263 -0.6404728532199099 -0.24610393771575678 0.31253404431453274
Ni 1.9924275495640955 4.223697624438515 6.087228516288664 -0.9044037918147585 -0.7922962377835259 1.8223688672537195
P 5.1023915849609445 4.368825907396989 4.174058581225759 0.6300334030541407 0.03382106231450305 -0.6403234721262391
P 8.999499055668133 0.6824363858796177 1.945207935516705 0.03967212177864136 -1.5511637635949609 0.07792062373687869
P 3.429145097104155 7.870347811163087 10.010999351541459 0.3411195692617093 0.1469503727420308 -0.3470256503334991
Ni 0.6291274535960519 1.8563381715401064 12.86571501500337 -0.9537818280272541 1.4768748230733983 -1.6328628805376653
Ni 9.002796148452527 5.461952666536199 10.33553631567523 -1.3290939840102725 0.6809944674830402 -0.1881859823530501
Ni 5.233703925143909 7.845085711050849 0.8481668153701158 -0.3048559589439846 -1.3305577130399924 1.196517106381094
Ni 5.054621206550707 6.1961927494424165 9.580723123133668 -2.496305913669346 -0.02580924775362007 0.8094264697059091
Ni 1.5919338104098733 4.878788747037573 2.2125778068047186 -0.868594495425633 0.9999038191962971 -0.6231400183684171
Ni 2.811820673671778 6.051364202191613 12.187686617374704 0.3978231926013407 -0.08718327998572727 0.5481486524631914
Ni 1.3492228211224069 7.13624822936984 10.587991525484297 2.5735331108836257 -1.0077616246778192 -0.1416778114891818
Ni 6.100342890173404 7.594263124174507 11.057475057803767 1.363934231617909 0.13838371411894232 -1.4609974897215097
Ni 8.078645394513453 2.348569770723714 2.7739959007117347 1.3726698117186942 0.45477492739603614 -0.11993579182639989
Ni 4.680775845156706 0.8010914491320428 8.68700865696052 -0.700451290656071 0.3005125943736244 -1.5107362517075338
Ni 6.203086670718874 8.860805723683743 12.86183531093719 -0.3268376054213984 0.9069167880445993 0.2763048867791693
Ni 8.50219068293583 6.253685804870267 3.413954116769699 0.5463578791113558 0.15441377099861148 0.7536263320171538
Ni 2.704337322248743 2.3533374418238737 4.857625532727752 -0.051520793587111265 -0.681070315026298 0.17687544243623732
Ni 2.9158664311974487 3.0939094415546635 2.7081786226773783 0.6881002252898859 -0.21924953652707405 -0.56775639939179
Ni 7.876202024203557 3.762919541078745 8.823593535576256 0.3512805689551111 0.7665759501992863 -0.4944372789826646
Ni 1.3745223881981032 7.134075145489217 8.140807770262382 -0.544378901008114 0.38226853269619326 0.39046752356721787
Ni 8.038574477094041 5.174159553466678 1.4057520389152747 -0.38987565561948984 0.6040212952610953 1.0523970039990067
Ni 1.6431324159766103 2.128591861515002 9.15069417668471 -2.7018794953712244 0.31823880800879384 0.0398739533768023
Ni 5.0336490737545265 1.8853001342939213 12.20210952495825 -0.1334965612299701 1.9917423448859572 0.3265696964719924
Ni 2.8952034008498044 1.5774809292555603 11.267198259113748 -1.030273175516774 0.1880545989815084 -0.11473676412396369
Ni 7.280411738019246 8.046480006383893 2.3628718473501045 2.8086311844071825 2.3184387967438007 -2.935490957046925
Ni 4.584120446173325 -0.27160925820340076 3.6129833100343927 1.1720330051968009 1.4488022332068984 -0.3690785163684805
Ni 3.118234867580426 7.729743664042287 4.5970006515364465 -0.762262410425597 -0.6803113253730865 0.5862380031357451
Ni 5.921297638543661 7.178548431115063 3.4818002308753613 -3.4681700531196076 -2.458291896319418 2.0465168695236757
Ni 4.46035769912735 3.5204520870537626 6.110163917970097 -0.8613856363820198 -0.5245770357908385 0.3833820774753462
P 8.982011350473641 7.750940598619223 6.481422185537253 -0.606306491750846 -0.034161733483373424 0.15865609121473323
Ni 0.8373519763676726 2.616449192714771 1.4258633682259847 -0.11218417290543904 0.29201329865336156 1.2207559243238006
P 4.168864723416253 1.5582135432967643 1.772074970720793 0.7639164010892521 -0.8509947800659989 0.37186790618815957
Ni 5.335211295895232 5.9907520220557995 12.358790746099311 -0.8823714946050675 0.42091247032063633 0.6466879808916862
P 1.387673292372216 6.623241198948212 3.49827913807872 0.21719933886626466 -0.5709664216886554 -0.11222762454886479
P 4.962293241846842 8.18314075560063 5.674692895078716 0.10898649190374779 -0.6787434666653344 0.2669540416918887
P 8.956580649025838 7.374229014520607 11.668150968570343 -1.5940819031147258 0.09089029652366927 1.7709018097226792
Ni 3.0600861402920425 5.067659709834443 4.322830526380622 -1.0807480443378743 0.3993141753245704 -2.231285598665061
