# total energy = -340870.6090911343 ev
CRYSTAL
PRIMVEC
9.25848800016498 0.00000000000000 0.00000000000000
0.00000000000000 9.25848800016498 0.00000000000000
0.00000000000000 0.00000000000000 13.55073305054977
PRIMCOORD
 96 1
Ni 7.253395881745283 1.3375552648398046 5.198643869051482 0.3239026911627905 -0.5027087749628374 0.8512380064250565
Ni 1.6098751765485093 4.706126556324804 5.147842544618556 0.3376586072963023 -0.4321535904520944 0.4754702509618586
Ni 4.366043769907773 5.303123130182929 12.511026504595675 -0.31441917715238754 -0.12051043338294731 0.7037050217066784
Ni 5.983455355803541 0.33575073981557957 3.399540008469818 0.2565858110836871 -0.2790904199441065 -0.8368406000528039
Ni 1.152089230387393 8.6414376824212 13.408085124029977 0.5563887809847966 1.3888885875704016 -0.6271239427168297
Ni 8.795535959049891 2.626392365078541 2.24939506059216 -0.570541675446411 0.8081501740966469 -1.6636500411218509
Ni 9.268857648312602 5.44676857369976 8.019120995193445 -0.8714782447313313 1.2735126472005422 -0.19526474357670243
Ni 5.261996925857969 3.6067458989275063 8.3373593046892 0.6579689531221442 -0.4192535945609747 -2.1210071274227666
Ni 8.947143702368493 3.0231463574102695 4.495848699501736 0.6715088965901082 -0.479208120737736 1.7643663225970065
Ni 1.8800286020320809 5.788916002972367 3.026095185883367 0.15416977330860543 1.1589915986318104 -0.38767607686500977
Ni 6.392578688292438 8.221713381010177 5.362810751534156 0.7889136944645382 0.033067729088246275 -1.0189965741616904
Ni 4.824079695248712 0.30487645940980596 1.025579396723024 -0.8836598743991879 -0.6866046145809659 0.1784705548374991
Ni 0.16931923113347136 4.617143226795945 12.430169350108693 0.36428726562742425 1.1527415039570406 1.0957828271838097
Ni 8.55896307005588 5.677064207733769 5.601087202346221 0.26385046306590043 -0.842361272760717 0.4331025846289251
Ni 0.12581081780967862 7.654834669076659 1.9240008656117675 0.29449621297621537 -1.0214846306908667 0.24606280006517622
Ni 6.893703617444356 4.526771124045846 1.82066317606818 -0.08810784868252568 -0.24512768984541652 -0.02754757060096546
Ni 0.39126556056139145 8.06711514602184 10.528743456132574 -0.08566092980392989 1.0854459640341758 0.7032625348526211
Ni 6.633780821357246 6.290929746985878 10.998479332938045 -1.6991608324339509 -0.2272497811237312 0.2918245796813232
Ni 5.547204653059771 6.550306292272634 8.090045643602126 0.7581332187485716 -1.2834386480650024 1.4585276880247784
Ni 4.389291833631316 7.33405583043485 3.3083707498907278 0.1018251982686182 -0.11154602510080788 0.15117109569159773
Ni 0.9632253307870167 3.821394688002222 9.519742308275887 -0.3603912730071277 -0.4649536677012509 0.7620888609622101
Ni 6.3348520147295995 8.87951970498229 7.655717002996552 0.5817845953500819 -1.1626343375907202 -0.10914744296164429
Ni 3.309835442714728 4.437787794516986 9.515527844473834 1.0075878181041162 0.05035171297967458 0.7664923893465445
Ni 4.7501599259262255 2.600440822817653 3.634441740354271 -0.647531302728588 0.7961176684121449 -0.6294939856109029
P 2.1286190086338803 4.373089479383527 11.328155578683926 -0.0904480667799281 0.9597910103358116 0.7511539592172612
P 4.617559858762316 2.026757122100063 9.829498916785127 0.07589767976957897 -0.10398569625504672 -0.8862708296594736
P 2.9538928661111465 5.593247114587919 7.459800912978724 -0.8158254312537175 1.455801547342867 0.5882462918150256
P 3.514327670298115 5.301391792900451 4.224305574948111 0.4817098041136672 0.14601989050796144 -0.09691104879645246
P 6.428529397746248 1.6760641082727648 7.456155846197378 0.856901375358421 1.5534044800000215 -0.2201728196722918
P 3.718551401725396 0.6943523542134273 12.32092289343314 -0.4050173963569347 0.044751593184077766 0.40038452557061366
P 0.1540593909784961 1.6773973305651544 10.152033164778581 0.33804787231492106 -0.5311636878694207 -1.4413349782955758
P 6.7596684846185 3.0991770620290393 4.012209351054032 1.1606998395721688 -0.16750325719271797 -1.4751475559696465
Ni 7.011166056496759 1.694571826067811 9.930735855369388 -1.9763311525372094 -1.5096455897465164 0.3123054732434944
Ni 4.402707382948486 4.715885002826044 6.165407794006216 0.4150709239381948 0.8440312042639722 -0.18594526594798944
Ni 8.430695975342237 9.100917931912228 3.458445287573082 -1.202655100958032 0.16643907759426177 1.1039365666391954
Ni 1.1800406060868656 8.644002283636421 8.204453707416617 0.14197631656620707 -0.6384689354160036 0.6447015465892768
Ni 4.406207091466008 7.513522364571509 6.543459640291925 -1.5806226922860263 0.32438554433648004 -1.2391120582334854
Ni 8.802609443990068 5.868270504833969 10.488226460327331 0.025491973623517388 -0.544006862380676 -0.5712978368861451
Ni 5.023414944937231 -0.4484487608703186 9.679085518436791 -0.13673280877908064 0.3018364553913705 0.6102793603556652
Ni 7.721153219634896 2.7516319341698834 13.298283158065928 0.6089740112806803 1.5134847609869482 0.2333939463482561
Ni 2.639650520097304 8.77467658526688 10.632705167776905 0.7826497158326973 0.017025845134035197 0.1524615323682471
Ni 0.9800387452521514 0.9385977523303766 2.5420364279228496 1.3831218602899535 -1.2976509350096426 -0.31100372371293533
Ni 6.571989671500247 6.6103568463590126 -0.14579619031212343 -1.058499774462635 -0.9398546764232008 0.5420183711957376
Ni 4.30515069340051 5.101334381136887 1.9398143633576101 0.7620582648345907 -1.2002881433877524 0.6398231354510528
Ni 8.646159511373412 0.9488006062624132 12.036886364981248 -3.04420002691957 -1.735259120818405 -1.1721610461342329
Ni 3.6165969303101626 0.6209140262743035 3.0532781070670874 -1.2908305696536995 0.5641653396064219 0.6507279552890148
Ni 2.9940376706930976 2.3513041654155 5.505513680958174 -2.3866727893205346 -0.056455768994883415 0.0738114866645116
Ni 7.954855977305012 3.28812428802269 8.282872176127105 0.012224567090649913 1.0090939703359976 0.15996966781983418
Ni 7.965003280308199 8.389597546481701 13.688679346590824 0.4384599922860965 1.604125917614289 -0.3530823980505403
Ni 4.970965609615101 2.460961698964539 6.071974835076507 2.3993143893439455 -0.6791062493213916 0.15325548902445219
Ni 8.272746167646643 3.3016416807094173 10.917324055132903 -0.7336745714855751 1.1245922952163343 0.4902754342954912
Ni 1.4521753480327382 7.035201091712337 6.10907730045513 1.1456198053105948 -2.6636358785089933 1.5738298377339088
Ni 3.6676852678754788 2.7731764360753726 11.567800434043317 -0.29210482992590336 0.03971968718712514 0.6213736704966136
Ni 2.6638707250757134 9.26228412173207 6.478117860232625 0.6752457379247209 -0.3788067993998379 -1.2446887809903144
Ni 4.1931044699109385 6.385255224172437 10.441707186659892 0.004461121095147156 1.2861902426682108 -0.8470576497951218
Ni 0.8801924315867591 1.47170149952336 6.960618414638912 1.439331831822618 2.703090999180822 -0.3455544651046113
P 3.4680167126138617 3.1796796164201995 1.7758780172296615 0.14292042564703128 -1.5233724524143055 -0.5338702881673064
P 0.5149071145994946 4.475821663802654 1.2301068065613492 -0.6545817818174662 -0.671286753276973 -1.2286610381034906
P 9.311354108882519 7.121730921883675 12.517164882233553 -0.8819143524629908 -1.8083658681064083 -0.766761326737215
P 4.447324037302827 -0.09357091040301992 4.94055703116285 -0.6381159229519591 -0.19990069968681703 0.3057910691637443
P 1.2811710720574967 1.1945116230521768 4.828045105719758 -0.12331936358665214 0.18717656725192924 -1.5180556681870825
P 3.313187015421985 8.140090549553884 8.5485611586288 0.016601356002106892 -0.002701200981246961 -0.44348418497356523
P 0.13846161600635268 1.2986973901095342 0.43072801456730764 0.43749454304903357 0.20093711137113135 0.882616520736338
P 9.194641607369585 7.055597541088269 4.14705274989465 1.2343660589080678 0.8821452375268742 -0.8489772354153379
Ni 2.818728197732015 1.395235645961935 0.6530437576720773 -1.2358536991971878 0.5156347389958862 0.14479244585876352
Ni 7.293077761920156 6.838995211015677 2.979535174868105 -0.9838300535628863 0.21734717729803857 0.13667444473731943
Ni 4.1961782879739475 1.0552454444263195 7.868964982815444 0.18641217828207896 0.40821122070388405 0.7116453595996776
Ni 8.439685967327724 0.923893421463897 8.164899594378099 -0.799634937536784 -1.3483952554420455 0.9117933994106104
Ni 6.058800932299833 1.0988806990376523 12.870445643496426 0.2735278382546644 -0.024254758782306617 -0.9775763593436907
Ni 1.7252637142571954 6.287309678122514 9.673868360369005 1.0954485837728423 0.1664413915871069 -1.1714951304154597
Ni 0.2966715872187254 8.811932741548654 5.7356593274842895 -3.047307205089984 0.5576954156113622 0.3002030335530056
Ni 6.519892158727497 2.0591988645482084 1.6174152892910234 -0.06862017227155925 -0.9736996499971036 1.6649667030507456
Ni 7.4617766743481395 8.182105568740438 9.76820865113659 0.042576697019946035 -0.2167044015077171 -0.7228386572123358
Ni 1.9390977563754506 8.22486126697832 4.103419346980946 0.15644494249602733 0.42661877667679426 -0.4565358759512008
Ni 2.1564777994519364 6.851938577437625 11.934280096000846 0.20332386643575306 -1.5329639527574823 0.3345573426631593
Ni 1.8043774954271163 6.129165442175946 0.682565372960364 -0.10454928206800058 1.337577596001251 -0.6399889716049558
Ni 2.0358674744313916 2.898073441105476 3.4193652091274136 -0.3825061026282961 0.6236334130650679 -0.5333144156638364
Ni 6.992593529284722 3.6872114193661 6.081243507555056 0.03558406775219678 1.2951093995347114 0.14362747901638492
Ni 5.630410685988277 3.9161923480840035 10.49993474443119 1.034234217047051 0.863893747515854 1.8930405227376688
Ni 2.2272681997825647 1.523697168926552 9.383923064785145 -0.018627899513832435 0.655989203687954 -0.028669085799918368
Ni 1.4447592990313214 1.7097742635963087 12.076535840447624 2.187218176032201 0.6585885889840142 0.03176109446168079
Ni 2.152274445835653 3.914646180564357 13.60656211186777 1.8536437661076013 -1.3918957498278415 -0.7167320300939656
Ni 2.3745151951864756 8.346008584311077 1.7577739695175887 1.6343034696389336 -1.005975479311674 -0.22152984792081848
Ni 5.637641565226862 5.081669352324141 3.9757447955083647 0.7801171792188306 -0.15844320387297875 0.28286017139918385
Ni 4.285624541909888 7.809831019055084 12.569944745582339 0.7069502681168535 0.4942665577327552 0.36146830812139036
Ni 9.001759523915755 4.867714949860045 3.0183717550756493 -1.1513420525063527 1.5423816465269566 1.9289063833963425
Ni 5.195196933916367 3.2851708303055216 0.19298670436982815 -1.1842074357758057 -0.22106653513115476 0.2532719162191058
Ni 2.408938254096922 3.55745370806166 7.690488181061123 0.7846927144046549 -2.0065776101265764 -1.923780375023687
P 6.5094485841037795 4.513040786131862 12.54016018923083 0.4683776057811353 0.2720350557592218 -0.21130457064838448
P 6.359164804589425 8.876631056682113 11.389282894941172 0.4717110410297425 -0.5126820841254653 1.1802636206367094
P 6.475840272149793 6.133961339033292 5.748722128403265 -1.3767851194386482 -0.6384303688685844 1.0255138064549176
P 7.009147706081892 5.277449342566288 9.024340976493104 0.5019407864485614 -0.9670862584456441 0.5631613238219398
P 8.413493704375155 7.894323981835271 7.793162037004958 0.2752160245903647 -0.03407585863778648 -0.7605711387661029
P 0.5220380021661503 3.738179396585575 6.754972579433082 -1.983325581577171 -0.5394182145687291 -0.147260704893598
P 3.8883891081947963 6.868872352248601 1.1151506402488753 -0.6911212715043968 2.449923983970697 -2.0153052198075616
P 6.361507202089249 8.277912404029653 1.523197210566906 1.0707847624775753 -0.659370204345045 1.2327722320583865
