# total energy = -381169.10961571714 ev
CRYSTAL
PRIMVEC
9.22312946169583 0.00000000000000 0.00000000000000
0.00000000000000 9.22312946169583 0.00000000000000
0.00000000000000 0.00000000000000 13.49898225540109
PRIMCOORD
 96 1
Ni 0.6146422675183902 8.18501100600513 3.4899732046212524 -0.32310899161690165 0.033039189843156 1.8053263099491361
Ni 3.1669275572430142 0.48764346246895807 11.764997343751523 -0.07139464969290285 0.6841744078729185 -1.0588165343721057
Ni 0.8108874071331423 7.558041103491601 5.893439609338715 0.10950585474232753 2.4790957204386466 -0.8350891645793361
Ni 2.1710416947036135 9.000086636280045 0.23919356481179394 -0.9957455740535496 -0.789877086819072 -0.8517604545874298
Ni 7.2116756952861065 0.602031482445179 3.81458309477607 -0.16962184619761755 -1.2607460915634932 0.4784085076545761
Ni 3.2897796432337794 -0.00837183471875505 4.490841401759168 -0.5688601739789301 0.3095045134595895 0.6502988381713961
Ni 4.7816761913961034 8.13996524114185 0.588243826037702 0.07357185984987974 1.6621667717081052 -1.427001335281723
Ni 9.177954690208866 8.841255121802044 1.2688489939913286 -0.1247445260689529 -0.328650233150105 -0.5451474037430224
Ni 1.6626351229266667 5.088253018598282 10.400668667733648 -0.20448060574801558 1.4023683672243914 -0.28177568008575343
Ni 7.741719729055121 0.7431278410559388 10.907853174841392 -2.282957316007739 0.7102250822133833 0.8211566136586438
Ni 8.243845349588845 5.494568769066538 10.601034701644247 1.6949665918469452 0.10729393469267329 -1.6532463292900237
Ni 3.5209850555172997 2.072178968747532 6.360531172167041 -1.4506428859600629 -0.641228757549328 -1.2792228102114422
Ni 3.304223064154315 6.283911867816359 0.4953143393397178 -2.238714029918648 0.1440583959062164 -1.6488826530046894
Ni 2.488206674662354 2.4681002521803816 10.358187855206255 0.6847374794652401 1.491354247636496 0.6336681715932506
Ni 8.518565487225551 5.792531193242037 2.99396620825016 -1.3344830162363275 0.729127575544841 -0.5397606855098124
Ni 3.7216895782834434 7.569920494389206 6.201203453317698 -0.9358990342095623 -0.5857330384748686 0.5826001492728418
Ni 1.1161739185072352 3.73670483323787 12.240269822516321 -0.9253809082870578 -0.4940189604983234 -0.22154450320883778
Ni 4.0000344058446515 5.379307318719196 4.261926092550084 -1.6125681348443712 0.873431254692644 0.2287176239185093
Ni 0.3801294409678811 2.7476902022347396 0.8357031595780937 1.730179906523285 -2.01233071056027 1.3258471949382005
Ni 0.1401934142249868 4.925474004660519 0.8128334874742874 -0.2245727485122003 2.1705864810127906 -0.3227328392244055
Ni 7.162258167002434 5.60261773208319 12.555227707566836 -0.25954000861600457 -0.16305242051021596 0.6259556334403413
Ni 1.208128520408731 6.920095676779197 1.7930160495926764 0.1968356876082481 -0.7567008571774193 -1.5863997039791196
Ni 8.12480241611416 3.2833050062694014 2.478898692291342 -1.3973644862518966 0.9527485016667335 0.948336745752283
Ni 5.496514849407682 1.1314843136081865 5.476725702583224 0.5744404962801849 0.10676840120650645 0.0592209904448464
P 2.6388019344264086 7.144033262954554 3.9521912657800953 -0.33242666947340166 -0.14637933072990922 0.2502236163110852
Ni 4.769178850816713 6.660003422654604 12.127243136465943 1.9526680045923148 -0.10998742236443639 -0.1263679206049888
P 1.7370381092395422 1.7234801087585794 12.952193049268013 0.900829701310255 0.10233659068739796 -0.5359875916206253
Ni 6.892509296208748 3.4384288226566886 6.0344640275387595 2.408467773708439 -0.536570974927921 0.4957292583212108
P 1.4448770335691623 5.890812862034649 12.659170533294967 0.23787126539331938 -1.8297592461805197 0.9690192138022988
P 4.503940090387102 3.7222890817060708 9.927354259378447 -2.0349523046145275 -1.0713192948248067 -1.547988965411405
P 8.275406899007795 7.058876107552698 0.6038050902631988 -0.4417376345961037 -1.421366762703765 -0.25562344717041785
Ni 7.472339783444589 3.084288316216193 0.09486449928363454 -1.0718844232996572 0.8916025262850321 -0.8653659611860064
Ni 5.914756106421437 5.81959185542649 6.090187409515517 -0.7037813834705686 -0.7589099490135961 0.29511302062460787
Ni 1.6230955664219813 3.0953652948404358 5.499377708828969 1.1818170811667583 1.4945670981468389 0.759555295907079
Ni 7.297653709220484 1.2634211822341541 1.3704297762343083 -0.5458999656383308 -0.9791521884712427 0.9872933295211385
Ni 4.955190928163691 0.20200129478493511 7.760821752725952 2.336418264040357 -1.6195283682122883 -2.270053206351561
Ni 6.005511701477678 8.084128414671273 5.840037689076963 1.4267439678552785 0.6792283767215528 0.6129111415515573
Ni 6.883203158463652 5.1935996046483215 1.2390675085811051 -0.11908115713558846 -0.1603216518426142 1.372775226948307
Ni 3.4180272600281927 4.608032330814412 11.932222828459269 0.6612075146641 -0.2631413528140178 0.13572647900175333
Ni 3.131492293400933 8.399946817711495 2.1004284923347023 0.532190072251406 -2.4283344307253794 2.3215634584157114
Ni 8.919707062000052 3.8893476277684376 7.084360536892118 1.4044339915041684 -0.41416101052941573 0.28174276996528896
Ni 3.486029394413321 1.5705145046927507 8.521043742143398 -1.2283633043574136 1.3682721968716305 2.7154844877491686
Ni 0.2053658924553128 7.434026903173896 11.937379480206822 0.09528842559136493 0.049247938392534545 1.472617333348625
Ni 3.3640719519917077 2.448464209306933 3.845185438718815 -0.6081659135570882 0.03347370627741331 1.0926949322871053
Ni 8.365655221937196 7.964347630830277 9.951233864171142 -0.24014129237441864 -0.4588318710742291 -0.6656262125570859
Ni 1.951771012095172 4.059966301848254 8.206544246632957 -0.04051467228459474 0.03774687973147048 -0.026731502457573317
Ni 0.5856724175111084 1.1556304668457105 10.580812990042539 1.9716841406835008 -1.177215834949321 0.19009682622251778
Ni 2.5989395683864625 7.403258542898731 11.806304974196483 1.2639314312700105 -0.6391865303083186 0.2984639393747118
Ni 7.9475338656079675 7.072120521627979 7.60748630116401 -0.20549387750387837 -0.06208494225620275 0.6707609626804899
Ni 4.094995747988865 5.935830957509192 9.966352418176852 -0.2966615960586504 -0.48863507047859067 -1.2102151726934771
Ni 8.342256142195561 5.772046622447331 5.676969991183381 -0.3966548833248524 -0.32048955171618354 -1.3742137591670462
Ni 6.963029344968912 4.833095138798394 8.111646544082838 -0.38893051809740115 1.401194144410632 0.053026688708676425
Ni 0.8742078809440281 0.8335477141955081 5.129153909028812 1.055860537067575 -1.0450891574836843 0.7655531653617268
Ni 4.420396982661551 3.809853473928017 2.3327047099623317 1.7769431308207526 -0.39807387515956605 -0.6277754602578995
Ni 6.252617789155198 0.6821924685541532 12.830472641276577 -0.14320556098761789 0.9248502325945686 -0.19934971227935344
Ni 2.439729905595728 1.2829004319047619 2.095056019355001 -0.9803600927364148 1.2587609428126645 -0.6455973189306687
P 6.86963593485311 1.62020872686379 7.357336580725457 -1.4289571734565132 0.532158190572206 -1.0398428214830802
Ni 9.185333193871974 1.1162108110255509 2.8668198331274657 1.4667212795791642 1.457986727919644 0.13711693159137675
P 1.3393828774458614 3.0594227588715164 3.0711804044586803 -0.29692487702236603 0.3038079772954445 0.11830365553961561
Ni 8.168307918337767 0.6959672125802197 8.632235025407578 -0.37124389945091546 1.008968757612043 0.6051811198971514
P 5.046776604882031 8.70887554295629 11.438592632580654 0.7419656078497738 0.05505040400692454 -0.5568600641942603
P 5.702780919309895 7.125052062281206 7.9545314540194685 -0.6475528999951429 -0.21270067966496273 -0.29646953465250236
P 6.126675954755506 2.4494141916535583 3.659574567508518 -0.22725800865384732 0.9839979465993183 -0.4479373356489124
Ni 3.739148962576275 8.535333136799967 9.467714062936903 -0.049997929184681635 -0.9280700250834467 1.4154118306719108
Ni 2.2307245662085866 6.646251736452485 8.611486673106914 -0.72616232226893 -0.1851147996268941 -0.9582046396852981
Ni 8.332645641174363 9.005389935787905 6.404471083793814 -1.7891900665089056 1.7148134513695437 -1.8404997725264753
Ni 7.375044989516919 2.981588768355295 9.319386770736298 -2.01921766748809 -1.437666785415369 -0.2115745364803195
Ni 7.294102804332613 7.982139047787948 12.238798733348489 -1.181159135867785 -0.5361300307357606 0.4579638666469791
Ni 5.651740120220338 1.1079284406637109 9.837208313187372 -0.2260462477339333 -0.20159248556694315 0.1415348581534143
Ni 1.1451529916440957 5.316866731470135 4.06434083220752 0.3150681235902961 -0.38344738349564284 0.5892289674432691
Ni 4.916204759433739 6.204943432361936 1.9643449046500676 0.2380129331775062 -0.6661676868828527 0.7516566098852926
Ni 0.5691694717556073 8.619715549317197 8.037685345676792 2.97589867144001 -1.182402264246267 0.04237640808368186
Ni 4.934263647149198 3.47767323901485 5.309135904257113 -1.7260877387317821 1.5688838065825432 -1.2641240068967905
Ni 2.9106629018936596 3.3087885132958634 0.48403814111657145 -0.5376999463260418 0.906808287491193 0.07083954852038123
Ni 8.908888331004018 2.6625976087399352 4.653126055951503 -2.374444622685459 1.0124734283311918 0.07587788227523706
Ni 1.5651650895369966 5.669586875955483 6.195276670250305 1.4474889137121134 -2.984307721439312 2.2115685798521074
Ni 4.710104705863946 2.3873517527172328 11.644006485309777 0.25865657756978677 0.5216958575883015 -0.033733130586387064
Ni 1.3697085275012393 8.230545596736091 10.204772162416978 0.9086849356886156 0.9560857935700824 -1.6327363822621301
Ni 6.152380816891863 4.57327035543159 10.712293313754351 0.20839125365633143 0.10380854724723412 0.5776289213104955
Ni 1.1620589881621943 1.8102420887071622 7.907096898595256 -0.3908043380813463 -0.1939863910849111 -0.22052274681254277
Ni 5.000264362415708 3.144321666645164 7.739979324503585 1.5864621817859386 0.4395992480968622 1.4539554952730638
Ni 2.447431218794098 5.057226410694909 2.286660080165658 0.3519310580549165 -1.3125304232246362 -0.2855713996827598
Ni 5.233148384282585 7.665176976679943 3.676353284838428 -0.5143319610240626 0.40717969411557614 0.5671678738781716
Ni 0.2124630906662658 3.216787795746473 9.909562842420776 1.0308555303828053 1.3252671540650143 -0.2739371578779411
Ni 6.232917184374697 7.079941735510874 10.113316531825701 -0.5440431149352501 0.15397616924056062 -0.26553145031274916
Ni 6.199151306986395 5.066532548440005 3.7552414790655155 1.501859003822562 -0.35163743807389763 -0.08597588994118742
Ni 4.781740753303156 0.7502923681128176 2.804346042611922 1.4145273711844284 0.8837956286461037 -0.581064943575238
Ni 3.748169183304426 5.092846137128568 7.104582248493826 0.3891027820092073 0.5863177073337451 -0.2722098907741893
P 2.6277895177092185 0.2244965078278387 7.120524427970931 -0.871837427842963 -1.5247783316228967 -0.8305755929796986
Ni 8.916847891830596 0.9686591840225285 12.939597943515087 -0.6045411723203072 -0.14196988880830388 -0.7872049393035475
P 7.953076966484877 3.2133014527656543 11.58933546241797 0.050074548058887954 0.3940884081492568 -1.667301264721193
Ni 4.461854950118644 1.6793013180757141 0.35371900941874024 -0.036640276930853026 -0.9868395298131714 1.26150276722386
P 7.391960209164596 7.317824693609508 4.180189795909037 -0.04700979309063517 -0.013310601065977075 0.21638661315698215
P 4.952802137602759 4.820939054013422 0.04313657704045099 0.3819358319471229 -0.29043284154011917 0.7598309181659689
P 0.08325165683085886 5.5504148186666935 8.531100642636215 0.5704342033342692 -0.3528823662245923 0.37123361503827035
Ni 6.671670681571895 8.042209290735235 1.7883583691553389 1.4008197917903487 -0.16714150297792504 0.42950021198964744
