# total energy = -340889.9699523866 ev
CRYSTAL
PRIMVEC
9.10556904191079 0.00000000000000 0.00000000000000
0.00000000000000 9.10556904191079 0.00000000000000
0.00000000000000 0.00000000000000 13.32692069785733
PRIMCOORD
 96 1
Ni 6.198770998854877 2.226757831973291 11.445946281734498 0.4825636674735302 -0.07566653759537936 0.8433938277902895
Ni 4.3450410185695905 0.42663324787694806 5.866763736222807 -0.27195278045806065 0.006957919375071888 -0.22884129398056718
Ni 2.7093165750605923 1.568088275804785 4.413796260723299 1.0171276392737516 0.24650554402954966 1.405575047087147
Ni 3.144562780803913 4.401987248082535 4.980004225435738 0.5993591138987354 -0.9772629418683298 -0.12400944767514126
Ni 5.368006185603761 4.701924696140798 2.5906737406050753 -0.17109920207409243 -0.5081268606546152 -0.36090523652906875
Ni 7.725428934991626 6.152906247006988 2.709003343481564 -1.588850222402141 0.45531100240516426 -0.010086951922356821
Ni 5.243168832450185 4.72461577448206 11.55703877824436 -0.44683896037841103 -0.2615498399571818 -0.014548587238136235
Ni 5.712997989854869 7.6557804365035365 12.48589879858948 -0.898346529877085 2.294661234708229 -0.6164518077149641
Ni 1.8822850451641788 6.682786633007428 0.44474331437491643 0.5800069346243688 -0.24306540799974916 0.1439190421148747
Ni 2.7815419496203417 1.4948703942068344 0.38327525921820393 0.31115181925502544 -0.4800303595287152 1.1865257994963372
Ni 0.34407305232308427 0.3245971504514443 4.869683881190459 0.309325564679564 -0.10879211650475458 -1.0169170659248423
Ni 8.610663262944762 2.446529849166194 1.3471115918123033 0.5301912966538224 0.3791865513367599 -0.03380075059952888
Ni 6.727048804683543 0.7778250341676082 4.741905429198909 -0.3963106126115562 -0.7471430382856552 -0.024329834994616162
Ni 0.8901149130217217 7.515782310702208 2.6978353629095095 -0.20532855557060767 -0.07735523815171194 0.3307243420703143
Ni 7.664558205171667 3.7415147892207825 3.78341952904194 0.6531229378837525 0.5320818288083159 -0.45966876515322774
Ni 7.827456837404888 4.115134502904045 12.667838086488599 0.7811669606395837 -0.9987627636133186 -0.5967926387231399
Ni 8.074946207114165 8.747656550924015 7.0275917730908 -0.8880857713810254 0.34929336332175326 -0.4997859448890877
Ni 7.051370966946422 0.5603403359471467 0.3700658100409689 -0.5618217790749098 0.224120234355814 0.27936758486489305
Ni 1.8303741953955037 6.459536288396241 9.321381162976227 0.06105315855757873 0.8524297127403127 0.302453263039763
Ni 0.27766067311368087 4.931503411316663 1.5220942248748548 -0.3113050570034381 -0.8868395576787501 -1.1467359211929087
Ni 6.120071564623925 1.7420410689955883 6.868015763043263 1.6516093079072327 1.2378249639909455 0.06594133988781548
Ni 3.3853413460438846 4.314601100875032 0.5007844503135742 -0.4427097687013859 0.2439303271032057 -0.34725267874264065
Ni 6.220032502838364 5.60995936926509 4.834420743513007 0.20190178927724586 -0.11723587639673357 0.12614552018153757
Ni 5.617708208618386 2.9992834248910536 9.082816161598519 -1.0467526612290359 0.4062219581879972 -0.853444270047756
P 0.5127883221343152 5.747790369606861 12.467480963853978 -1.1580117512170445 -1.4179505379333643 -0.47144004675654294
P 3.974125658926198 6.160336391439761 12.817552765138226 0.5924734425224957 0.6394140729380923 -0.4414360441952849
P 2.394336726753627 8.622209124636864 1.530210018665211 0.8390023835908131 -0.4541349798191921 -0.7979434087669742
P 6.699304135459696 7.713446005979948 5.566788044774081 -0.8966855972348945 0.6380393040777528 -0.041402474206186764
P 5.021766918378034 1.1839698408825678 13.088782174755748 -0.7594568226560018 0.4568847746501873 -0.5387453568714206
P 3.729814132852997 6.089039784934108 8.307109993373933 1.0294367956584076 1.6056888912260348 -1.6061743155028856
P 4.845537732897778 1.2867443999667698 3.6975412640869703 -0.7693889941680492 -0.8638333265915639 0.5782876379404169
P 0.3225766246553263 5.47532442369771 3.735042550663411 1.64229780069832 -0.18770415762062512 0.27262126727999497
Ni 1.3987520061769914 1.0085783677648306 2.6298677524879523 -1.239535261813833 0.7391710758237721 -0.5728348423559619
Ni 2.1321964962694335 6.489165810435756 4.929201523433568 -1.0009800829796114 -0.9881111974367435 -1.0652941716766493
Ni 5.979162881906815 5.623872678938223 9.368305803074085 -0.3751496622632249 0.9962417969636778 -1.36398796767398
Ni 8.4690534514025 2.139881596638625 10.232116547912725 0.48327200639446455 0.9595372424537927 0.7639089448900844
Ni 2.014288481244951 5.2181558339736815 7.10186316904031 0.749438004967419 -0.3877087298751581 -0.1860113432992345
Ni 0.3818811965801432 8.955299949998714 9.516101027745247 0.174543451868951 -0.18692125670801357 -0.5931213605191398
Ni 1.6244790655991028 1.035922391945734 11.443973104898001 -0.5550492362377666 0.3095158263134992 0.4215971550924868
Ni 3.984651696872626 6.890002070331712 1.59223351354055 1.137414643791983 0.3200470648621262 -0.17164710415776244
Ni 5.652955866828269 8.236733959910135 7.630488807610805 -0.15619785948222775 0.37773387805063335 0.7295404947125436
Ni 5.49998230497706 3.1624279074915362 4.642845942331094 -1.3391333705241453 -0.4615922074281857 -0.028205258789622392
Ni 0.8509873717936962 7.45851738626874 7.056111326249978 -0.2448564384619009 -1.2087738122612601 0.6873877726038936
Ni 4.916151421716595 4.80785888772276 6.80375320871202 0.5066230224155791 0.3236034147548169 0.4190839017523299
Ni 8.233273843630165 6.920578571563638 9.639508806541047 -0.05656735487208322 0.28087836508246466 -1.449530883842807
Ni 4.364872948195301 0.46479559877424576 10.878378855546798 0.5505184382469487 -0.08065242084574496 -0.371402793626283
Ni 8.778979708826881 7.19948215486736 4.977538437307802 -0.9792115809542684 -0.41586153816029026 -0.44050067686520905
Ni 7.115729129753823 6.3107786050650985 7.149172974713543 0.839861646267315 -0.7621243421858358 0.38009183675984864
Ni 2.3909130327502908 5.407478827902867 2.5267708562555637 -0.34761134763364004 -1.1253708252535715 1.4008329044164713
Ni 2.563226823492688 5.197549930969557 11.438616298562462 -1.181272778627514 -0.16883765973342535 0.9609068691078096
Ni 1.1649574124810604 3.2253564959411616 3.7621762361967694 -1.0779072324549694 1.0634265223402912 -0.020773485101925518
Ni 3.971712683099378 2.7226835505842573 2.2637237110832524 -1.2871124973721642 0.023212433560721314 0.4774399730937197
Ni 1.1673977050153534 3.1871950556007795 8.26774206512014 -1.1018064076700702 0.5799305728604787 -0.23470675162240867
Ni 3.5121819244121784 3.0500105506692137 7.308510418849146 -0.40999865162161003 -1.2907891748928026 -0.22270561339647452
Ni 4.289442413292003 7.106432343643698 5.916619459032564 0.14051567286028058 -0.7648183440782312 -0.248535687085701
Ni 0.9852316884442057 7.719136986703579 11.681846083019714 -1.074865103194536 -0.3546191464100409 -0.9164941473203894
P 0.08683617083037136 5.596455810204057 8.079245856870484 0.4335185891204212 0.4635760706274339 0.1754065712001947
P 8.21911468358977 1.3210450789842403 8.286973027181435 0.47898777719681374 0.6108082362759416 -0.8338529781793896
P 2.079693784505501 3.1449361091393837 10.391706216313999 -0.7852120772432347 0.28971113288274625 0.5465265434787362
P 4.166262273725148 6.03410588620504 3.6959687322934163 -1.0547462209574738 0.4371484725635245 1.675769450093204
P 6.959814469064641 4.045995916288793 10.355856679982784 1.8529606239976475 -0.023363614426604926 1.1056052125908702
P 6.207266494879113 7.8318457217389525 10.087306128811491 0.48506972172483565 -0.199622763435082 0.49097528857599315
P 2.1869209669078717 8.428897891416558 5.60939391342039 1.115012364837383 1.6535538332281137 0.45120726464943584
P 7.147234399039846 4.346151898006843 1.4572725885973208 1.006629053735273 -1.3410118184937807 0.3804029402423642
Ni 5.507221232457519 3.409079564838295 0.25307927861525686 0.2702501959446571 -0.9641012076753912 0.19078588186974238
Ni 1.2298072760229837 0.808606410705585 7.041571553418786 -0.3204918657090287 0.868898142708981 0.44741154505242947
Ni 6.405640424551163 0.8188620132480267 9.5510181537947 0.2890179634704635 -0.8801696018577422 -1.0634640604464458
Ni 2.2292254412150574 1.3638412540259477 9.191684167563126 2.216130231080861 -1.1072586890338931 -0.41107157297081465
Ni 6.300771584560665 2.111872865909201 2.1932384107895606 0.7982707101994058 0.018413983730813446 0.9785297243958955
Ni 4.272005248354796 6.920287193350587 10.599246722457215 -0.42355427881885765 -0.12361195512640645 -0.4362760972609003
Ni 8.53828309370933 7.1731306377246575 0.6427184201178542 -0.7510770832327387 0.14532157888935618 -0.5691627928210132
Ni 7.8483996464678505 3.9477377195068644 8.118866919946862 -0.7219937927135371 -0.8721742423570916 0.2529106762249451
Ni 3.0604819552006948 8.423725928134921 12.526385801292765 1.4018826858372244 -0.40603683876038454 1.1287402559464368
Ni 0.2785694089156303 4.778001726454301 10.293740308302034 -0.5513705018345988 -1.0497829634149276 0.4905065764696907
Ni 8.459893248829744 2.1763402955464968 5.933131498143338 0.19305462329926107 1.2706006157600698 0.6248945391656786
Ni 3.689421828068951 2.5991847160968797 11.839875967424257 0.2308650092788153 1.1043392013942528 -0.5872872703358659
Ni 1.2652006233393913 3.128099911766592 12.68131159717141 -1.000407498305593 0.7478963715119119 -0.2679428879677192
Ni 2.912917101429225 8.369711691890792 7.820064025805662 1.594487108972944 -0.21162184477848717 0.7351275018820178
Ni 5.750986424381252 7.5300780542799695 3.506379855744822 -0.2592924113815728 1.121174784894353 -0.11844686598569922
Ni 3.243940962592252 8.356189921691444 3.607623768653596 0.2065876247886894 0.037482570326490286 0.33763238204405727
Ni 3.640379232584986 4.399082571521193 9.470549507476386 0.3089607251409776 -0.876056351020317 0.25618523321115877
Ni 7.5771174245492166 6.304268123117264 11.72777002106713 0.17646689414390898 -0.16618093883686863 -0.28671116971415783
Ni 0.5496085121377517 9.280578197023162 0.3759389021477564 0.11236492145767744 -0.05829307931393831 -0.22088681502018087
Ni 4.712213989289123 0.11425212900762165 1.7860874386826628 0.036882731958962287 0.6925420631113234 -0.874530915514726
Ni 6.189802013234434 5.851548330160107 0.29528177054787486 -0.24784534588689572 -0.6376567239273535 1.5827374246361838
Ni 7.790624810161547 8.76709694107594 11.526787345831368 0.26296034715146327 0.38778920540410633 -0.7435967156952935
Ni -0.2334312814865343 4.83334537579547 5.762373849170009 0.49878167199428936 -0.4716871297703425 0.714615240861279
Ni 7.818688174305916 8.7813926846537 2.7455986259268026 0.8367135875566364 0.6302702016552952 0.21553480667964814
P 8.312911151484373 1.7121019576047087 3.4989834019179327 0.7029941116825829 -0.5688547746622913 -0.1555378573007257
P 1.7506640429880342 3.2145937131966305 1.5574101748534213 0.7116613004392777 -0.3373292489813416 0.34800909729269097
P 4.576368003023755 1.1980015229547532 8.120638863704972 -1.6279543874924542 -1.1213395926069913 1.0917469665515391
P 8.500367503736209 1.6505027822521239 12.496840050489505 0.6308142470842234 0.49172579358877255 -0.7984278046025605
P 6.480096663554577 7.838957171251202 1.370567537962822 -0.314537962118439 -1.5760175894138468 -0.13643610347426827
P 1.646805921174053 2.7370885609919133 6.051408288718711 0.223328334582138 0.988956061935542 -0.46427541068730366
P 6.885340018922912 3.871596950209257 6.09774561960589 -0.04969222501880474 0.2464752050122465 0.493818157341427
P 2.6269111741824114 8.364803790114733 10.28525118617621 -1.5902555873901 0.8452699617670797 -0.4064518148106161
