# total energy = -340866.6339368029 ev
CRYSTAL
PRIMVEC
9.31140422330760 0.00000000000000 0.00000000000000

0.00000000000000 9.31140422330760 0.00000000000000

0.00000000000000 0.00000000000000 13.62818129197107

PRIMCOORD
 96 1
Ni 1.0236864745779832 3.838104973687202 4.3757771152943326 -2.4024881590862366 1.6322159909822858 -1.0873773767289339
Ni 0.8954879916616186 1.0611555653801719 7.944684735692102 -1.4630859968194223 -2.2664606039042967 -1.4808942286454367
Ni 8.345038805036035 6.101102111636975 12.57742122563737 -0.7438165450155836 -1.0815142330799372 1.6710273074225286
Ni 2.1467535669819506 0.47167849494922026 0.5087918901081077 0.7057459633961071 0.42709134543783867 -0.822020504320836
Ni 6.277041095411168 1.8923473793831942 5.293172047793503 1.0073595041433943 1.0042775227839607 -0.6251920158014395
Ni 1.1498932481199475 8.416662126718547 9.924750199046972 -1.0355105126563133 -1.3343431482243537 -2.073538649528158
Ni 4.739858609285399 1.7126372768776676 2.9887279871353045 0.2964412525177282 2.2742091375014644 3.8945736284618016
Ni 8.775002208833712 5.2953490541129735 2.634027732951197 1.0005864470856187 -2.0466644508451335 0.1761928145469159
Ni 3.270602817345009 3.6990950192672534 3.956370050523106 -0.23876112419744042 -1.0178691454254665 -0.05649767797641237
Ni 9.112363697117534 3.1184917171102793 6.986882033201586 -0.9323285432494847 -0.3385142704283783 0.011692862956895991
Ni 1.6308552131312408 5.3992829486293825 13.245570350786931 -0.5163965568625751 -0.9238986673145765 -0.6649027041275001
Ni 2.573160014346618 6.564642439249936 1.35182036122538 0.8661015538004503 0.060975511242107885 0.9756811992035067
Ni 3.032361227567475 6.361281369886169 7.2923584798268735 -0.5657113439373032 -0.5130235266252842 -0.17411767718544208
Ni 6.745209190948753 4.959542570343062 11.0963650910594 0.18323146656125217 0.1047966221921163 -0.5135801704597026
Ni 0.9279968974065692 0.1972127491210518 4.104304054800116 1.4805211615767342 -0.3087259834223522 0.3387353853002488
Ni 5.300498260676992 0.9751554354972163 8.05151633921886 2.436871264551797 -0.597956320013938 1.043435681040661
Ni 4.772383344417617 3.9749360595068244 12.143650388631684 0.6942243359097527 -0.5909469785756403 0.5471623772905222
Ni 6.843453817453199 3.454391314922941 9.108368173543173 0.9941980270607716 0.7476834841701575 -1.3369880420463685
Ni 6.374140419189803 5.233232676195131 1.254030131249549 -0.4152601571308655 -0.049570354728959785 0.7706912579192405
Ni 8.142664744525407 2.961417638397029 0.9343109606453773 -1.3681760376133987 0.2873171787292729 0.16541192188132803
Ni 6.7955280196503 5.990585054298215 3.771490256364156 -0.7930328588392342 -0.7225766618002006 -2.043836751588351
Ni 7.907011725136294 0.20477733395397874 4.006058497155243 -1.716269724200096 0.4583053091467978 0.4462401504521476
Ni 5.148619945549136 5.285897978773953 7.9529020499647 0.25273609832029376 0.07847701046098099 0.2771677490000969
Ni 8.680323850166552 3.263395790436238 12.096114738667904 -0.6002050068387985 0.9291372900056967 -0.6706308648605289
P 6.947667054097854 4.1257156289302435 13.11418084962556 -0.9307511714600357 -0.5095134565894966 -0.20980510328472254
P 5.973051680048582 8.216988373447641 4.100692161081883 0.053824502019623424 -0.41754406806903577 -0.7918401240827136
P 8.356845665656603 5.127091978865572 8.787642440136887 0.20068051527563502 -0.046172641901320484 1.0115599153779868
P 4.350464993913451 4.429220851270536 9.766690973761438 0.999917446043052 0.587817174697407 1.1284780034239856
P 8.06713994445171 6.603126473118087 1.15261869615121 0.26107135765886647 1.3224857346651353 -0.20764126286418433
P 2.28519552574113 2.561874592365442 8.167314825062343 0.22056722689723304 0.28212226479189473 1.2250825767236126
P 4.194396546861889 8.445406431715156 11.20329167090976 0.1551519347162167 0.3362817815534338 -0.5033698055856041
P 1.6144298959903212 8.01953073439416 7.533481949227489 0.13882388698015447 0.41573683965696795 0.2806932456548521
Ni 5.219805631230729 8.709235760440109 -0.004932250844413337 -1.5497913087274664 0.8659295469989604 0.054130206185500324
Ni 7.509452008215259 4.208754732253782 5.138887665801013 1.1900227569060022 -1.6526143521329797 0.2478224630687603
Ni 2.7667720434345666 3.3357360902479187 10.786936884459845 0.8175575834534758 0.003705473876045231 -1.2345195537667966
Ni 1.9703024559726383 2.054011980403969 5.435327394577512 -2.3720054171163474 -0.9420563120602098 1.3463183183083587
Ni 2.826234671134064 7.513623517330414 12.793496086398081 0.27830674770054653 0.6738234036558977 -0.604570740006662
Ni 8.714338409982753 9.292632483879553 11.654452486539244 -1.1466212499919155 -1.6763767446598998 -1.7052977985696243
Ni 9.077790453044837 7.629103553147695 3.0717782641439726 -2.426774285327111 1.0935318263661036 -1.2508432306274846
Ni 3.7467042293248056 8.064272031935042 8.909096672936942 0.015219388052915724 0.23898455306215613 -0.10920554989308934
Ni 1.3670724414276625 4.581238837462516 8.580834288910552 -0.34936406865868863 -0.28306843075524796 1.7085008788879545
Ni 1.5048719132918744 6.530534765390985 3.5768390745591288 2.4749125355952346 -1.8533843417986273 1.111393794248189
Ni 4.242201296409214 2.7883745013523296 7.316152842310947 -0.565776907067916 1.2729531751526464 -0.568940135287246
Ni 4.485126522537022 6.277422862986439 3.109078818528785 -0.650398596974054 0.4471788602163331 0.5304736037809316
Ni 2.1300582191170587 0.22501101544333152 11.453886700738801 1.1789688130846858 1.2171142138061553 2.2275670121628925
Ni 6.524985168443147 0.5943702133774105 1.9137785074622988 0.13144533512789622 1.122930334132879 -0.08991944796996772
Ni 7.587500198847453 7.2394305956475 8.2753997436045 -0.11813062029686108 -0.005673396235693455 -2.9185581858473286
Ni 7.206998974558032 7.017735371266459 5.649849113105172 0.1487131210694084 -1.440175667880152 1.5029316680614504
Ni 3.525009004943765 2.1390902812637096 12.9560936901272 -1.4523729812772923 0.4539313484488182 0.33486947458693944
Ni 5.860104346194072 6.962015928085472 9.744027015756336 -2.3840818886649067 0.14751370144466852 0.1310920655535355
Ni 0.8708099769118572 4.693087425612588 10.936956643294433 -0.7473402418981258 1.292633170080077 0.07234698630384315
Ni -0.010376628923946049 7.895363158388397 5.884771187258703 1.8024461601878634 1.158564538396721 -0.5987145383362011
Ni 0.8553158001984273 1.8541333762390138 10.055975819493105 -0.618719006482586 0.6022983990327175 1.2645675221921124
Ni 0.04230264076128795 1.35364539646326 13.207425252034385 0.37249114159445523 -1.0463880788007656 0.4980944161192777
Ni 2.871031837100597 6.219580419630775 10.144218135525456 -0.525413672759521 -0.7580082631349332 -0.28218962769472045
Ni 7.968262142456571 7.123084599232653 10.412380060659519 2.2555766100019414 0.05521521171956297 1.2708011618066501
P 7.88734603930771 1.9936275236812568 10.49908320156523 -0.7422188615111605 -1.067679126969058 -0.6089380158364223
P 9.216660736400662 2.103092392336955 3.584020960676357 0.05034065723608105 0.11513811332744042 -0.9201757099370346
P 4.215440320523158 1.177706412689067 1.1853454887561932 -0.8704765429396945 -1.0221916840602203 -3.4444513693464294
P 4.468561534331978 5.980687031553998 0.2445575152971969 -0.29757588034280363 0.4533500220240515 1.239585141215162
P 0.675410158203128 6.981113618253287 11.721884745157627 2.2440403272275677 0.13535161216083785 -2.1841871025153607
P 5.548041943325149 8.197983797322573 7.510354283289498 0.31326732293613146 -1.529137894143173 0.7285387929209066
P 1.7463259375442477 4.532065311486781 2.1317612749589374 -0.8005723617493891 0.647281391501311 0.6233261662372942
P 3.3837456906892913 0.9995140690803488 4.627544450921582 0.6817912523527225 -1.8881376861194128 -2.232966328801593
Ni 7.17661586240904 2.6973834587780288 3.0966769591750487 -0.4299468126087628 0.5298030600764683 0.1287762729361653
Ni 6.328039656624783 7.366093627998934 12.24954060918625 2.1082709108030206 0.6769956307362921 -0.42925235764489944
Ni 3.5255025093703347 1.0554383631553848 9.58767084631268 -0.8362934693000824 0.6382203097403073 0.3470151088105378
Ni 5.629805384263026 1.5086895890445824 12.643940035496383 1.7963109938244033 -0.6341780213501336 -0.05594874745147784
Ni 3.7657739852797962 8.865062110980524 2.6397244500865793 -0.34833845560765164 -0.9814345567475162 0.13772654015091765
Ni 1.9850889659611757 3.954432347293499 6.5185230538763665 1.115842316937846 2.098083685857374 -0.053883380282016884
Ni 3.0878758198544154 0.4504233524109112 7.144083678153403 -0.8528390323635892 0.0346723545712048 0.00455496636053409
Ni 3.0322029336948018 8.03938264830824 5.017201579034511 -1.1467076390581348 0.4377259423335494 0.09922375609002912
Ni 3.8624822300788844 4.371052508765249 1.7181189005743 0.28684178175475117 -0.08020633444726187 -1.0847036865515125
Ni 4.546023106494853 6.227439244838788 11.83191854061452 -0.8232096395329306 -0.40256842059580983 -1.7325103544286742
Ni 2.04114361969606 1.7770535716514102 2.5654371356410177 0.37359748728475656 0.3819445736978712 0.9572494748608804
Ni 6.23911574579951 7.709591331699912 1.796984632501829 0.2984477414247957 -2.0650882047679597 1.0853978844050596
Ni 5.365193897578982 4.36013954295507 5.689452377767166 -2.3708725890634845 1.0188564490394 -0.14053392769272574
Ni 7.930401972674837 0.25493135079986046 9.024800182456822 1.292367060902884 0.4184213284676665 -0.7037117065748977
Ni 5.457702699050091 2.3132880324384963 10.469032506548851 -0.9063424035983682 0.2751383772748939 -0.17265086283192846
Ni 1.047402621266148 3.0290836132627112 0.7265046268807743 1.7068134638832024 1.1208078884732375 0.3035598658403804
Ni 8.974033475209652 0.5807746319956323 1.721947750012138 0.7917074551595913 -0.00027690781047049086 1.0327126381962022
Ni 0.1549166263427563 6.021619964746448 7.179503328874686 0.5842690523348325 -0.4096860054771977 -0.3358362093755829
Ni 5.636490972532402 2.831253518038234 1.006548835010034 0.4557128658292732 0.5789167868839836 -0.3807214999240475
Ni 6.397186144770175 0.10852348568350574 10.624721048305998 -1.518986664641784 -0.7753017601080584 1.3574843622275072
Ni 7.3060443818301195 9.058506534791524 6.327714688615589 -0.8420956778041562 2.0725796280489988 1.8152127158249125
Ni 4.9261425632090035 6.863873727028049 5.617767600816438 -0.2814185538566508 -0.421943482688312 0.6641501422321916
Ni 0.6233566148851671 7.911276348294197 -0.003037380074471645 -1.5376744708592744 0.11440046383046748 1.076114659330921
Ni 4.926151874613279 0.24669541371871342 5.786184832217368 0.8942073108977309 -2.10088721674444 -0.8698540788643471
P 8.981966791651864 1.0153062107305755 5.9813136890616985 0.647145380144079 0.15489431017945582 0.22948869775657896
P 1.6245886380542345 8.440443453236636 1.9997041461110552 -0.7369684117454985 -0.6417434924022174 1.7990204223357662
P 3.1860366437203873 5.305908186560709 5.292886187682263 0.16058904657138795 2.0708785861974914 0.6158758806068362
P 7.4887248222993374 0.30016522162688625 -0.001971224284995853 -0.8412004196833964 -0.4270815752458258 -0.5999152435125217
P 8.878619515604774 5.738031836150163 4.977420466550865 1.525594913986921 1.2523054169953078 -0.5803013259363361
P 1.4479047419380497 2.5659529874378473 12.250821858414476 1.2746531885628887 0.07177388740919252 -0.4993879381197206
P 5.286605645498845 4.045637552166123 3.584920442329312 2.425178658705217 -0.04555609136324412 -2.0335569669288978
P 6.449395188539525 3.116787730127973 6.990711813779852 1.1716185433672015 0.02336078621312751 1.1787309860422666
