# total energy = -381166.7395607821 ev
CRYSTAL
PRIMVEC
9.29368246377682 0.00000000000000 0.00000000000000

0.00000000000000 9.29368246377682 0.00000000000000

0.00000000000000 0.00000000000000 13.60224370555558

PRIMCOORD
 96 1
Ni 3.160985933469289 2.5672961915062538 13.231542396225244 0.3382291350877917 0.6747366594987863 0.6193129313128432
Ni 2.6076679489785444 2.080065584406269 2.1391157852873564 1.718025787659254 1.7433120730298686 0.2961031524520191
Ni 4.8534863636146275 0.9780392820238256 5.4940822513277565 -0.2294838126605725 1.5164798390595302 -1.4103863524328615
Ni 1.4386527819873824 5.663681736810281 2.843372469848884 -0.9455748667364295 -0.40943429447770785 -0.7822277978039303
Ni 5.490038570002665 3.947658995854085 12.50470578027452 0.2779647909800955 0.18262957131119514 -0.24353309166478707
Ni 8.692325629210181 8.212065284104723 5.6335729930987295 -1.4864922915585046 0.2628230502426506 1.6827854763997212
Ni 4.977361859781333 8.026489028762478 13.410166976938282 -0.4532808593490129 -0.6167546836673636 -0.0870549819379791
Ni 8.527957557696613 0.7463189629095573 11.04775652523564 0.1801682542548962 -0.8555168363060686 -0.629439992444516
Ni 5.419202120772968 5.614601798686163 9.437740316796983 -0.7591521469313894 -1.315649428469592 -1.3746739866329163
Ni 0.7347585510495706 2.935168032211985 3.3964943576355155 -0.5736611949119991 1.2351332760913953 0.038411509898662884
Ni 8.154881254701637 8.709732696831177 2.2922635937262705 0.8533141722277949 -0.6451808002185405 0.20935207490770397
Ni 4.1574081197933435 0.6727576059241341 12.353490128460487 0.2796681468244474 0.35848171468924067 -2.2005092367141526
Ni 3.3783651708718883 1.2247586755820468 7.375708194222951 -0.20365990961893313 -0.060702202976063206 0.545002650635042
Ni 0.5383282037294513 1.8381510247829407 9.23509435451428 0.9535468291983126 -0.1848916278724945 1.0222492767710332
Ni 4.6007632510584555 2.897770253190692 10.152551836754753 2.303083140223337 -0.1212344560331654 0.2462936851290597
Ni 1.0164314850896716 1.0446842803741476 6.744169000261375 0.17050039214782894 0.24610085239196325 -0.05135084366815027
Ni 1.4344985058386452 6.900828891377264 9.610515453644215 -1.4963514437407712 0.15730934737885166 -0.7005906444474128
Ni 7.690159947002639 7.670345815572868 0.08303998392971183 -1.258574280723155 -0.09853881420786256 -0.8414099645910412
Ni 9.038561776684906 5.666711477357235 5.062006862706318 -0.7944294820764448 -0.41531080786314284 -0.9469318949849562
Ni 0.3779471220767517 7.511089269521952 3.7002593047251984 0.9874995319946736 0.5800300745528204 -0.7935694480689945
Ni 4.770754000580941 6.511878978400088 7.2263689369378445 -0.4634981662016469 0.9175837808401422 0.18806334073225675
Ni 9.537920639655367 0.7050680230576901 4.351140511037448 -1.9434135758735822 1.6190534854583987 -0.5371895823485264
Ni 3.8601032115201868 7.9070745002722695 5.500924260501582 -0.8469974859811477 0.11215434810876813 -0.23158826059808504
Ni 1.646403764154877 0.8825039417585946 11.942974224872248 -0.32744232888493285 -0.7559313260012466 0.10245177610902355
P 4.118430414719957 7.380141280851468 9.468345343162545 2.055073243734119 -1.0353282214421784 2.059243830172041
Ni 7.144657949628423 2.940000747194856 2.8282470013207637 0.3812053815390015 1.996429465948981 1.5457279372913701
P 7.95803176229358 1.526691837819568 1.6905682735204557 0.6048923850121389 -0.20376712462075874 -1.0900703501800648
Ni 0.4060279842320297 3.2939413575941967 11.719230673584516 0.09442684892201803 -0.20384091528148765 -0.7818760708914663
P 6.306200487465633 8.752539399160222 5.547824830042078 1.0937405999428003 -1.3135827757485508 -0.3811817273899177
P 1.6880394624688417 4.151980609120273 -0.1439266165042901 -0.08452270243442862 1.8353879052212068 -0.36443433272824977
P 8.808245733020469 8.020615421321759 9.61640578971372 -0.09343440310176167 -0.03862311168883671 2.97194380055732
Ni 1.0480764745448168 3.5910418048488473 5.607212391603701 -0.8416261943669054 0.5169529435866774 -0.3499687921222231
Ni 2.9573241716719165 5.2120552279783325 9.953509964607353 0.5791309597773188 -0.6755010484686367 -0.4086259396437995
Ni 6.323458856164078 9.219342491774919 11.966546721569467 1.0976589611606 0.9888717297518518 0.00464444075054684
Ni 3.724396857328107 3.7260604265241337 5.935625114474291 0.4114356411784527 0.2288775465351413 -0.09455488985945006
Ni 5.153021755726032 2.2994429635806317 0.8582186196014022 -0.10499691112838046 0.08490579680546023 0.6017890634964668
Ni 6.825624411297666 6.402613151373908 5.895429936972528 -0.477268737623178 -0.25367737918764055 1.346874962142777
Ni 6.220391915471695 0.2183309105069179 1.3382196709606649 -1.1069681543766676 -0.09735122165766459 -0.7557701178330339
Ni 2.8229468141001264 8.549500314101028 3.168506381477249 -1.4868887556659744 0.8474762253897791 0.3157944602333594
Ni 9.01443537650119 4.049666456723299 1.3800561128200723 0.6144417192634708 0.9085000733713193 0.2339822147515583
Ni 6.027436476097914 3.6547592931614683 5.306629601456585 2.080656234409546 -0.40452477299123235 0.619450742442288
Ni 7.866535456512111 3.0228167533724775 13.17645316289358 -0.5634729415250876 -0.09334107205700698 0.9487365522938629
Ni 7.465912678114769 1.5600189838360587 5.826303525352155 -0.393996876876715 -1.3754543164423667 0.002076422913054489
Ni 2.681989529205504 5.2768600771621 7.38113570489602 0.7149273727850591 0.9374715209030049 2.6274756265383523
Ni 5.765428974565034 7.108589167227418 1.8280460036274109 0.9158531713022808 -1.6732939919695184 -0.40432962626129076
Ni 2.009870399280069 3.0677517090305177 7.555393184127421 -0.3521300614396 0.039927432322557035 2.1128374471277804
Ni 8.062920264787198 6.180903057852045 1.9199976998591899 0.27687052947465224 0.26167145313671064 0.7702040338701768
Ni 5.1519158074895675 8.51404491475554 3.4189107202099094 -0.11612798804453547 -0.6252295539075942 1.6313436156796615
Ni 2.249312839316005 5.794824892816613 5.359542254309427 0.5452888144168931 -0.4949083050818122 -3.5433462813421297
Ni 0.329903429569153 5.310187223178591 7.21465703805051 2.2459097763361386 0.9742164417325222 -1.5086996808934792
Ni 8.586201066922868 2.607547131103973 7.445841111675333 -0.0757999778494501 0.6796222697258618 0.17856028633782797
Ni 8.254305071791547 4.651237241581478 8.541365553669284 -2.842619111316853 -1.2570074504566675 3.2839353421048214
Ni 1.4358182087762754 7.418561364965292 6.600039781475111 -1.3053148793128038 0.6410536654240443 0.42909449191079657
Ni 6.034165102343295 4.632110842668501 7.298760219276454 0.29486439494891153 -0.7291100920433443 1.1293570635948291
Ni 6.748877179896611 5.13455520828187 3.470354041834305 -0.15035014245219913 -0.489527500385873 1.0873382959608822
Ni 5.1767671149207155 9.037242073747278 7.4317760523386465 0.9894731107812765 -1.6713013870195215 0.3208165960382991
P 0.8651294020269076 4.044461994434054 9.4771455312727 0.4391225655707599 -0.003782092750251551 0.4628124529885319
Ni 4.800828357666653 5.721915952353876 4.591573657644873 -0.17672374734972143 -0.17696054595087587 0.8648118884547492
P 6.0085331255687615 6.077306377248078 13.474668852067355 0.5056352045810131 -0.4849316534850745 -0.3419240674408756
Ni 8.833682542459158 9.199388955105256 7.958673026397077 -1.0616578604756426 0.9468246799831308 -0.366160314280421
P 4.163662768223098 3.874945222727196 8.359122942296953 0.15441917031525018 0.2256173877266308 -1.306643625426556
P 4.373746464738093 1.0134017445427177 2.6477311561865444 0.6136701312047689 0.5054174321432521 -0.23275142766825074
P 2.7234021791356446 4.154564252899577 3.634642187677002 0.3677500273650441 -0.5878225740140457 0.7672068989150658
Ni 2.818941236873939 7.6115075106564145 11.381786349905552 1.1180310970590486 0.37524967817619886 0.26389211493711323
Ni 2.889043485173546 8.111823622940788 8.147118241576267 -0.5596553675512103 1.8847358595267154 -1.452742963022201
Ni 0.8563886934857728 2.2924634079034467 0.2560130762175881 0.5129263389257877 -0.44428739760115094 0.04980715333011422
Ni 7.592966613750978 3.798829961746979 10.93189218352131 -0.3013147785599456 0.7857576653340596 -1.6219313212268258
Ni 6.320401234569146 8.22695376372503 9.802048959571115 1.3389017141293134 -0.9842303743250985 -0.7096674099377003
Ni 0.44087464736332693 7.600197098859964 11.948891512621469 -1.3674345314616838 2.4625331880942753 -0.66020401310025
Ni 7.085828938394628 1.9000934197076231 9.541008001034808 -0.14667937846883125 -0.18839655570195943 -0.4893158985956992
Ni 3.6424265762724883 6.416748842698805 2.779809256668408 0.25181075829254695 -0.45330811304252255 -0.2755862634455899
Ni 0.7024072417123133 1.002425905322005 2.1576018494651037 -0.41019919766819035 -2.4391618603581864 -1.1236348163990715
Ni 2.810716327720399 7.008691372321881 0.5740326737702083 0.645553610176927 -0.2945810593805378 -0.1596192264589509
Ni 4.91190645281141 0.5610633396190613 9.62995319092628 -1.1873310690064518 1.0522206263221427 0.2493502125671964
Ni 6.474862240367828 4.381553158171961 1.2280161113541546 -0.3187926236297349 0.906568403566245 -1.2436773090066646
Ni 0.4557594095105695 6.725271225941818 0.5251822896077765 0.33502914009325524 -2.14986184687093 0.04046787820705934
Ni 4.107872791218916 4.822426876167023 0.6926656035487646 0.6542300549050023 -0.6899588757651794 3.496468385843669
Ni 8.555476152051 0.7187232309890984 13.404508053566992 -0.19652766944952604 -1.7699211909769645 -0.0788495633090513
Ni 7.9224834261215005 6.944304738857784 8.043305947534604 -0.6522515910223928 -0.4857394940983506 -0.46892113698943116
Ni 6.69675820754288 0.9716359346715217 3.672687736379654 -0.22830264786827778 -1.1046058247920783 0.354609376218028
Ni 3.4747592474148448 5.24896044181868 12.382449243627075 -1.3998980513070278 0.18297769867923327 -2.5099769833985355
Ni 7.259704447268729 6.191544324497019 10.508073302574452 2.7640114888152785 0.31896848708596676 -0.5591802276870047
Ni 5.644230059004227 2.0773982974830307 7.508832763372258 0.01781260270138868 1.1937822239484344 0.47341542531535885
Ni 4.740317189871513 3.035800028047613 3.723519533685063 -2.030228416776297 -0.7853411466219313 -2.231198695378209
Ni 7.248691433317378 7.293570626879464 3.955328142784595 -0.23312038097189533 1.3228539166378315 -1.4381671220905554
Ni 1.2385319132832286 5.596339712260507 11.695045723200042 0.39046983756006304 -1.6385054235354233 0.2150172436132813
Ni 3.3292294706518137 0.11849817137999549 0.7510327187543884 -0.7128920875225851 0.6378120185582952 0.9698748769343749
Ni 8.238608041779875 5.4777987899402785 12.387346085020296 -0.3387243295566554 0.06332601375215546 2.0072630662293753
P 2.85402488891305 0.8685401835628953 10.055731180177732 -0.8873198397492783 0.7229083341080067 0.7869401156779351
Ni 5.215744819994101 6.553895717703087 11.45925105360791 -0.6256257609047483 0.9906033677309779 0.9819973712295216
P 1.260130431783598 8.5695653749626 0.673214855110975 0.06136529048135883 2.121837593743862 -0.16734282035545375
Ni 2.592547127291754 1.844638015279179 5.086599805759534 -0.07853691716463894 -0.7383349530757221 -1.0107338199322657
P 1.7284205136237925 9.016582217195504 5.209441844414519 2.5628275515406638 -1.7456515197963227 -0.12766375659827692
P 6.51874700988536 2.1902793670637046 11.756066184804919 -0.9256128217922059 -2.2106476106997346 -0.904788428847687
P 8.147976048485727 3.4818875020145796 5.132561713351436 1.058143933785113 0.5110221799245392 -0.6898064093477153
Ni 2.597649359071747 3.009629017678835 11.005453540506732 -1.2332018633966373 -0.26766392327471966 -0.47138553936952365
