# total energy = -340871.6895666145 ev
CRYSTAL
PRIMVEC
9.21116287775395 0.00000000000000 0.00000000000000
0.00000000000000 9.21116287775395 0.00000000000000
0.00000000000000 0.00000000000000 13.48146795020467
PRIMCOORD
 96 1
Ni 0.19078068208268786 6.443199143302067 4.393407775142719 -0.26448089756104776 -0.08893111591476942 -0.2611837148670147
Ni 3.126710778422271 6.589665842436228 6.567349037287983 -0.10078004483355546 1.5818887034826432 0.2466734370659816
Ni 5.802489083659658 7.070580650422802 6.911665064811073 -0.24356291646145795 -0.868552586444104 0.3486793838868382
Ni 4.357764259705354 8.524129768306453 7.619536475525547 -0.7054199475152562 1.3750066873819868 1.5755607043820865
Ni 0.15788946207965282 7.3709290347173475 11.936113942041258 0.6777872733996521 -0.4467826532191789 -0.7779700509688408
Ni 5.644112351069712 3.416300524606717 9.473683667662025 -0.0832284091030373 -0.38179262150103926 -0.3116246451263859
Ni 8.046420444962271 1.665765096837926 12.935495626376783 -2.0600033340458843 -0.27587705521313133 -0.9621787938416978
Ni 3.5531784033019953 9.066326442171876 5.598678290728899 -0.968881402672854 -0.37366819262169193 -0.8608680733156528
Ni 1.171116445167996 3.4633419328501076 4.545654478912228 -0.15204424232517041 -0.9617689599977888 0.19001840757609856
Ni 0.48975936647400437 1.6470940699122645 0.9015932170681844 1.112382897634336 1.7302904639592203 2.383198971839321
Ni 3.626001856126011 4.46167538686292 5.954979883242453 -0.5021994394265867 -0.9786320543017146 0.6427976446983446
Ni 1.5919376272724712 7.077111364823539 8.785198070103815 1.641028447067593 1.6453872382569212 -0.560398673475138
Ni 3.882993297283365 1.8848157585641994 1.822654226641246 -1.0740726892002275 -0.242615207836208 -0.7904008205330258
Ni 8.041787230091227 3.8371677625250196 10.757618434381822 0.691561444365609 -0.06417704889854109 -0.35149936983413654
Ni 2.5088075577872315 3.289886526813042 7.98012586430644 1.6242478851751447 -0.20876432072503398 -0.8291020937579657
Ni 8.153021231647363 6.235819024799677 2.2811720923635157 0.4061525384026425 -1.061384809319914 -2.1059448337730053
Ni 4.36456209782629 5.345974645838885 8.245360375022637 -0.4501168597987345 -0.603507074628838 0.5453566915403512
Ni 0.3287012644030207 8.844116351617037 13.519216221989065 -0.710034563469132 -0.16883200330647055 0.12279948652744012
Ni 6.128647146023126 8.9365227364805 3.121458573413385 -1.9071237403036123 3.333546834484362 -0.9790573147645913
Ni 4.598894078580521 2.180171692639846 6.700396914505368 -1.2915111406604918 -0.055827905602897396 -0.12506694240537813
Ni 7.458177168432131 7.063598589046555 0.18683277772139606 0.23354564143477197 1.022759383638232 0.5377955913636415
Ni 2.8116798006795234 0.9673194689813851 8.493607659366704 -1.7376898417470847 0.5171090095485674 -0.47825475568553116
Ni 6.164773326389403 5.518269445367497 5.193357653326202 -1.2980216880855 -0.9753019614872173 0.4253077711748546
Ni 3.342325676437014 6.534914690958116 10.542628974318857 0.1933510714937573 0.5523899442380487 -0.9062652705035296
P 8.796319628026877 6.421773978709522 8.597603529221713 -1.8482395643728946 0.07298924787353236 -0.03833052014908237
P 8.877442338502604 1.9056053529259251 5.41995409958997 0.1426921116863091 1.961940431033176 0.8893080738239008
P 6.497655537571683 3.1773445401442055 11.949217742191452 -1.8383199912663373 -0.08057760174375155 1.1176060937064882
P 1.9503255481524109 8.500668936742734 7.257195123586656 0.9989257715537442 0.9545459598867884 -1.2843876422418332
P 8.29405334474988 1.7862010499967935 8.977161465485594 0.9871593750464354 2.1480769870563647 1.4037817026321502
P 1.6351287694798846 5.296676502717947 5.4098835353384525 0.8324694675683019 1.12457198350136 0.7677108351346779
P 4.349317623449393 8.647458026573688 0.9336508268409421 0.3598978783104769 -0.4439266718276226 1.0071581867658657
P 7.153886406473952 8.437600105287379 5.876868301874766 0.5050230249183109 1.0027438597482536 0.29932603026469096
Ni 4.092206437176087 2.225951171584364 10.997426451400143 -0.0035560927823745205 1.3744140481033105 -0.9707115139030572
Ni 5.171708657478455 3.2988121435328086 4.594403636732342 -0.9463168871087766 0.002909717447627247 0.35488062760154365
Ni 4.08222153673829 3.745866717193418 12.959128706684218 0.8102901032577852 -0.7538024525837018 0.997040124495257
Ni 5.2795253176485915 5.134661360835628 11.225843023426373 0.22297120835303533 -0.9895926670782764 -0.2122669345616538
Ni 2.276299387260568 9.073465093315136 1.3873512544368571 -1.1685571308330582 0.10463772801674884 -0.06795888453847651
Ni 8.943467953205683 0.6070662876414326 10.90924430578094 -1.367825082031883 -0.41788191102442873 -0.2684882189482279
Ni 6.866046781214951 2.646993421595211 6.500817729749077 0.8586880349451986 0.7681738908140254 -1.1772081216398371
Ni 9.150194079151722 3.961536882184754 2.4378668666324836 -0.8709385701777774 -0.3735051846812664 -0.13194644313403084
Ni 0.6791712697697394 2.8395251457196196 12.087349260139117 -0.3222895810393998 0.654171433752925 0.1731972222537017
Ni 4.047928377762346 5.131658521774076 3.7421721198081768 -1.0565593629068126 0.14515497140450484 -0.8051203861313877
Ni 1.0357584083290245 2.8030305188427227 9.780279062544132 -0.9444597792953798 0.9666255167591417 -1.3838006315245328
Ni 7.073132142508845 2.8219778806513487 3.6274185329593447 1.6029835764797298 -0.736393770188951 -1.2378740720613262
Ni 5.5635791550109746 6.856393482636712 2.1322561450500097 -0.71396166643768 0.3143685264201102 -1.049859582289134
Ni 1.9576484225509805 1.1479872154638344 10.909890929407075 1.217631005541574 -2.539301957614898 0.2311133778441955
Ni 5.87736662578038 2.5716184766851526 0.6687073888681353 -0.36166705439575775 0.6240774425810219 -0.5250948559675216
Ni 6.8455703663872525 8.263978898320534 9.478159371649781 0.9805094738300857 0.2105070144477536 0.6480360102791485
Ni 7.477216641868413 6.11008665305065 11.583048231007224 -0.45813741611036585 -0.9413654566407723 -0.36868436625385537
Ni 7.804784012135001 4.012253544371577 8.381900204044422 1.4658944128024947 -0.5262940184819452 0.16703531641736394
Ni 8.057105393770248 0.5139331420357734 4.219834466222255 -1.0980142876174896 -0.7659611994334228 -0.2856179366499791
Ni 1.856426954920939 5.421432491213832 2.611387671925184 -1.3062188791843117 -0.2678968652211322 1.943599723742459
Ni 1.335360688439565 5.225916350353403 7.613012208938746 -1.1790922260364274 -0.904700497119571 -1.2134712177369296
Ni 1.6250701797399623 3.9946510123267136 0.4792706154329335 0.07827235064934263 -0.18681866969187827 1.0916580063821586
Ni 1.6251070243910244 1.3128393954779258 5.999198991214497 0.9001046502187724 -0.01603879863041754 0.7506703347126232
Ni 1.395574059437616 6.568636757842599 0.6113752695831317 0.0485686529373228 -0.324705389569744 -1.8010994163519818
P 7.610446900108554 4.913639510277539 3.829936999754105 1.3687982445784297 -0.4523202952079565 -0.27228419565555045
P 0.16188987006870798 5.2265979763980495 12.660527679966286 -0.15239288391384076 -0.7014900163332306 -0.512229312858763
P 7.253495920620032 8.372256116628947 11.762472470516329 2.3512710127824734 1.2299085373573464 0.07915089659955402
P 4.9377267009093115 1.3826692204031552 8.623960350358905 0.5787846321814936 0.2807264128856326 1.1838773061298968
P 7.416386122965074 1.5802210282347597 1.7474137647075638 2.2773217149885165 0.21895488810479063 1.497274983996305
P 1.7032453181307314 8.067689019787803 10.581267038771285 -0.1278797292638249 1.9210961433233043 1.3748179684099484
P 5.02711182438569 7.230891727193504 9.259045152900425 -0.7033391537268275 -0.6525264419503343 -0.17663890094539902
P 6.250999021037217 4.72808063636661 7.190488803955207 -0.9571432883003194 0.03310346742218814 -0.009903889377273266
Ni 1.1622184619365266 0.3434741272463241 3.5974896229016933 0.8738441738603466 -0.23917969979209772 -0.36953642984150553
Ni 6.91853198665275 0.789122156352642 7.826261680355309 -1.0282103794504744 -1.5505757523019748 -0.805131184764665
Ni 3.006191924798514 2.051215413922894 4.087594407979403 0.46132327003751517 -0.6411228280990829 0.374882010424135
Ni 4.425770274403014 0.7128297796311404 12.701362606738286 -0.05200956029807172 0.8349495536776782 0.3743451640840585
Ni 8.315229807947757 8.591813392307321 2.117196815044699 -0.4189077811857817 1.443322955259882 -0.6264444001513018
Ni 5.885933007152292 5.319667564980627 0.2592067258024555 -1.0805449271881329 0.042660514983003946 -0.05904178455450477
Ni 5.29460399109571 7.772498886641936 11.97057290194698 -0.4140501959831643 -0.36849101929612665 -0.02427558471791303
Ni 6.277149512128461 1.2177617734124706 10.870821782537222 1.0227485850049547 -0.09656394986967885 0.057865504858216475
Ni 7.752215906232312 4.008780936008986 0.5179151276992977 1.7061105242789067 0.3395576240912281 -0.9468753307154081
Ni 8.027187537107915 6.620403492584689 6.640310657553481 1.3035734711416644 -1.13562901264647 -0.1759058794341164
Ni 0.6236012459217753 5.594243115857313 10.175892976624548 -0.16053222519152352 -1.7456762023866708 2.196608101887533
Ni 2.6778876615106864 8.281240617343075 12.65373260519418 0.1012407865200579 -0.9558644215878958 -1.006145429230635
Ni 2.4526286760804683 4.688620015079223 11.70661874285519 -1.270836900140592 -0.11893511847602743 -0.29834335463644746
Ni 8.53139737572843 4.377347191744798 5.81253477777171 -0.2989570769610464 0.606829968354484 -0.8144889718304811
Ni 0.21305695811476472 8.557225476122882 5.8936795950380745 -0.07498365259574183 0.06121488094642361 -0.04272710655488125
Ni 6.429833746129332 0.18842630887982695 0.5724645547128447 -0.7537769986624051 -2.077294002805532 -0.8056973416807801
Ni 2.633480645818228 7.2301272006839685 4.254629633568918 -2.324474975635552 -0.29057913730999635 -0.3837538589924681
Ni 0.3501669581117339 2.948714269141816 7.306092581127294 -0.18133244976632643 -1.7427364030320565 0.15905255532220347
Ni 4.332802008610858 9.151198095893161 10.069200078311802 -0.4221625406776535 -1.098140785893025 1.0901881067048516
Ni 0.14629445039044575 9.252520886313624 8.49092536876939 0.7233122544146446 -0.9957175490290916 -0.39828419139815924
Ni 7.052130691403513 7.248835072260692 3.9534273744860107 1.1197977020411682 -0.5256864668049334 2.2922371986477685
Ni 3.54584631774066 5.389727668974993 1.2348420325285308 1.8293987775173077 0.1891645442162355 -1.0047025261365212
Ni 3.790153987769925 8.958297925258133 3.1069252008019843 0.5707535343469009 0.2565966097169645 0.6708517226220834
Ni 6.70546858072405 5.787714378583803 9.341619542627996 0.16276625672836484 0.6727908486263252 -0.5689892433576265
P 4.844436044420363 3.7725883003761234 2.2980239146429917 0.4143672130029509 -0.024564319602925436 -0.7385714945665602
P 4.9500420255267805 1.20485693437801 4.763110688363794 1.1080652440955885 -0.4069071571804799 -1.1396661588303212
P 1.6549419805884675 2.6671474457261173 2.5239193914203053 0.574202669237766 -0.5220578689134105 -0.8758894864251496
P 3.987880807694074 6.200346836989751 12.627982799683235 -0.9719140188515906 -1.068037795860057 1.6651245687848484
P 3.3230375016060645 3.969771661697108 9.807296324051608 0.13797208050282045 0.7143280486381632 0.31017917092911096
P 0.8321990801417632 7.446654003812495 2.393230492987164 1.3149297766947483 0.7022958000639776 1.7438725735190288
P 2.6225009398017556 2.088271921728487 12.724699087604671 0.16419167632098175 0.30001148636748975 0.9533647950944936
P 4.684161812300723 7.037540209582966 4.230969840889463 1.6698615692492014 1.3994761332782608 0.29325874102468846
