# total energy = -340898.5271045699 ev
CRYSTAL
PRIMVEC
9.01755031276807 0.00000000000000 0.00000000000000
0.00000000000000 9.01755031276807 0.00000000000000
0.00000000000000 0.00000000000000 13.19809639069677
PRIMCOORD
 96 1
Ni 6.29785695798611 2.0108415217285778 11.353530164389873 0.13102753086418722 -0.3888865522333431 -0.10783129525338203
Ni 4.615254258237336 0.3260277187064665 6.028982471524369 0.009849896210886262 -0.4253175413668675 -0.25155159109388936
Ni 2.761994423709226 1.559179492154336 4.816513350881248 0.4843382428754497 -0.21514065656502304 -0.4846118082518106
Ni 3.378001303024729 4.33014637816768 4.94730660213514 0.41357017102295224 -0.6751611486307145 0.0031706844184977655
Ni 5.110967019827273 4.467267244294738 2.7788067440306317 -0.1704584831663 -0.29360943949588786 -0.7181235111248535
Ni 7.138950904209246 6.062886656218865 2.5798056459203376 -0.06597682111144121 -0.05170617012503998 -0.4656442660103723
Ni 5.08734103868477 4.406128254925973 11.458428618907577 0.20317628511429522 0.6449560858022442 0.25105279708059985
Ni 5.6854300460422 7.843239598557229 12.265188243298624 -0.516096252013337 0.5561373270956229 0.33138254447960347
Ni 1.721206831531619 6.416257390200253 0.39554671734077684 -0.06199546786619 -0.07475379597312289 -0.13821916351662
Ni 2.6150444280228835 1.378134139712344 0.33412457690030345 0.3932448292020389 0.6807494413517696 0.414897374474808
Ni 0.49566045979962214 -0.1599578116398004 4.635224524587787 0.9197172822433773 0.7890849299350797 0.24741674298990937
Ni 8.645864676248337 2.318330961033229 1.3799800322084779 0.07323658799764807 0.8309918545815108 -0.287469388036421
Ni 6.933738517621489 0.6197212081829061 4.699208550998714 -0.06538983825971964 0.2344208449508737 0.510003765962354
Ni 0.6780377043846475 7.282762792476661 2.391666186850557 0.29322223135979825 -0.024900362786105502 0.6968949407633805
Ni 7.336444267950446 3.777947683037043 3.759028863022932 1.3028288796661562 0.2702746214246894 0.16413614049269795
Ni 7.426827172145599 3.9165384098229654 12.515767924210019 1.5049965210102791 -0.8804987030623868 0.04794721730324
Ni 7.856071572284627 8.96360706996483 6.893114454626461 0.6575521772996998 -0.32679621066050174 -0.08076760626737058
Ni 6.768185316172939 0.7943136018059764 0.32033493935713 -0.1717736024332977 -0.5654346932371488 0.07850529259575512
Ni 1.8679854937669282 6.565912650902913 9.286800572689202 0.05764516131729427 -0.13056447518483966 -0.29531948020845916
Ni -0.02128412339337717 4.96830937796682 1.3648016919569284 -0.172949882129586 -1.1031685781249194 -0.32388546477160995
Ni 6.473699184046718 1.9637158051443344 6.851091769617997 0.03892598764123619 0.10508638551839321 0.6022063535395435
Ni 3.3460701582821333 4.407634185785056 0.5359102944673928 0.03149395684322318 -0.7195252765683866 0.08010014788670076
Ni 5.843192084243756 5.595768545851398 4.839003120716898 0.7004165807633937 0.4917142236245467 0.2128400334563044
Ni 5.327000466480299 2.9066990494320257 9.098120962371164 0.12845077127594653 -0.3437413231552725 -0.23500268559627266
P 0.05982062355081365 5.627059444540133 12.344654501397931 0.5871682282594984 -0.529296809864011 0.2840516206041237
P 4.112516825155027 6.041334711588872 12.563966729250733 -0.7279302128026301 0.708294955070206 -0.49385980921263983
P 2.340505116616974 8.435674602030556 1.3740672246378143 0.10202831541835979 -0.15880598652903619 0.39958954047314404
P 6.3366684934202056 7.657874839639184 5.933996108026449 -0.29874778916371775 -0.11957583738381988 -1.0168142217983906
P 4.564783030582913 0.9332533077790042 12.415158216498183 0.7890440493948153 -0.08046138788086143 0.6189565764146889
P 3.9778397150927103 6.136875654415137 8.210047383874665 -0.12891228429339735 0.41475339269777606 1.0679614340961672
P 4.847861961890331 0.8883062312879016 3.847548741376848 -1.2658553877656005 0.3061433102968405 -0.40813048806461966
P 0.037792552277949296 5.500164480174754 3.575799459957767 0.9933894151165472 -0.3659607966751052 0.07101026977029061
Ni 1.5225862740336207 1.09058250357795 2.6762573613020955 -0.20577798440320047 -0.02317078168950848 -0.573858655634786
Ni 1.9024776227249707 6.36861767326291 4.869067632598234 -0.27350444121589673 0.6611769185364806 -0.19155978392128944
Ni 5.958544584539516 5.620494668100536 9.211439103374651 -0.15571114965379634 0.3272361264113977 0.1961630870212557
Ni 8.59805362585996 2.428795949199509 10.139160144195287 0.26181029270742007 -0.4494504298593292 0.6969517621432448
Ni 2.304380811099087 5.1828098411106 7.087958462161681 -0.3212559975685628 0.15072706617564363 -0.11791670451384209
Ni 0.6469082198418872 0.05184640403771641 8.85696552302161 -0.0869505951496309 -0.17429636885515143 0.9648226592224479
Ni 1.4522944713596493 1.1481685782252855 11.36242597751853 -0.47244817630608305 0.5557951132648556 0.2595004136273208
Ni 3.842197727174573 6.717497667317212 1.54137884834697 1.1200419568414905 0.7007181711642125 0.4830820018708455
Ni 5.790908329028403 7.862221541421721 8.085285971852155 -1.275465657161855 0.33001780292159294 -0.1682787019061618
Ni 5.298450903008099 2.794980621808185 4.876141900615903 -0.13711847425327353 0.23018726648550034 -0.12713050980262622
Ni 0.6719625809130049 7.4867578098070755 6.869780642105721 0.21678539125729765 -0.44740434596357787 -0.025744198843639533
Ni 5.136378475880545 4.712247026622356 6.983112309434292 -0.10844887423272288 -0.8016668803651483 0.26683165718141144
Ni 8.351739246124293 7.050371510024972 9.51547121398845 0.20076741856248648 0.4139784622049644 -0.7463310839073212
Ni 4.625913002401624 0.2977342536558118 10.164751049494642 0.4569449384641614 -0.20561446224214266 0.5030859557965981
Ni 8.04552128137731 7.12455889432244 4.58793559034756 -0.4617336181020563 -0.13648392599306816 0.7860425435643301
Ni 7.38311910703197 6.114728551481554 7.166407540614854 -0.4779531652847123 0.09150170485542305 -0.6550754336244331
Ni 2.2669038730730415 5.21577800410945 2.6744096652959506 -0.6261525799424958 -0.5529710135524993 -0.3168982348204994
Ni 2.237930484748286 5.254048486540283 11.431939565622807 0.7164054999924824 0.19860254970068378 -0.19709794013069926
Ni 1.1334970242867928 3.3145267681918766 3.7866920013247847 -0.7391782749126238 0.5292610715300692 -0.41728284398784904
Ni 3.698962962110639 2.5481161715192 2.632571840063602 -0.2519326285823919 -0.24965591673307327 0.05648610801218659
Ni 1.2088566900913316 3.3068347979954815 8.228775031827622 -0.724658484029894 0.2642937212509061 -0.2602187798505841
Ni 3.7408134119130643 2.6879964079629004 7.001735353806618 -0.5405140187360691 0.2529109333352612 -0.1353230729157476
Ni 4.132193119373707 6.883411570767937 6.18093269871587 -0.10139016761372863 0.15095178059194003 -0.9418192563487393
Ni 0.940900190225127 7.446124729261994 11.465555188715562 -0.15148631293917136 0.3601881558573861 -0.14209021643625205
P 0.25137773409120817 5.663625610010685 8.048357300869416 0.8516853783751204 -0.8864356373721121 0.24783917523930862
P 8.536256355337224 1.7520017649673616 8.003048620621131 0.5976323610156159 -0.07241049255192691 -0.8302871152050023
P 1.8424748446630583 3.2954726849269504 10.35461917290985 -0.2521601712121657 0.002277483180267045 0.3486721847979866
P 3.9751164149762843 6.039035236325003 3.7883286866596566 -0.23719635081348178 1.4919836536903788 -0.1837811684171351
P 6.8373859952903295 3.902840751290347 10.285553757043274 0.6967188201968323 0.43347230926351793 0.3621123694632925
P 6.47302286779264 7.8205694777204915 10.168790010164003 -0.7007438821958254 -0.24046807958621813 0.31133771001358634
P 2.406567688315437 8.413960341499585 5.88034529222285 0.13366831092114398 0.00950588260790621 -0.9316315171824601
P 6.828693077037897 3.8296994027991884 1.4208809339901756 0.5483515125026169 0.29893188015006583 1.47349099420283
Ni 5.222946956402691 2.7621387045100962 0.4922428083290083 -0.8893101307064296 -0.13569768264634693 -0.6065450901242134
Ni 1.556546367538454 1.1579075322840269 6.848703020608589 -0.5179070799698307 0.18570281091988017 0.7424176077855278
Ni 6.9519810213815205 0.7807818661943584 9.0935012714783 -0.7407065386316921 -0.09731548332372272 0.5011758832580787
Ni 2.8044039616150234 1.676443713061626 9.172544606480056 0.18380687944874796 -0.4260451635615114 0.12550017328805482
Ni 6.283338702398542 1.913091279138988 2.5889909224057397 0.7496994861589218 0.03434968112446342 -0.4482026734951571
Ni 4.010140579387536 6.93860799465086 10.51240195147653 0.40404834757544605 -0.6231901548800622 -0.8058963450654636
Ni 8.072014843437108 7.404184103959025 0.08517346552873169 -0.8592904444158878 -1.1075749347227313 0.5644509891676408
Ni 7.65535894317401 3.836832284892211 8.209585685311879 0.3584277215228537 0.1554201007759388 -0.3309426287287075
Ni 3.1502811115012133 8.119591437524072 12.50003590638513 0.23344742529401083 0.5279742343978455 -0.19716581725415722
Ni 0.0038730377483605872 4.81008744471249 10.207341840156532 0.2546127465177163 -0.1012785817365288 0.09084684488024355
Ni 8.736211510243272 2.2539366360948283 5.518691036761498 -0.4383183245019096 0.11899245407652409 0.8812288963601921
Ni 3.608273461213637 2.6862019155020764 11.583942094604625 -0.7368467985659697 -0.17101924076577643 -0.32495375813512417
Ni 1.135769446900499 3.4496998435071853 12.523395869801028 -0.9820001994429991 -0.668645458999384 0.746908810787662
Ni 3.101685534258105 8.330611126346856 8.055312537226367 0.5245927195201224 0.2683061848444089 -0.0013182045907912782
Ni 5.79433499804907 7.878390008669243 3.54388635031528 -1.44000777484372 -0.5027483699515213 0.24549947136253852
Ni 3.0341711370008855 8.271969998343156 3.5498658877563463 0.547183974557077 -0.2878627668200978 0.3573074918754814
Ni 3.608183285713093 4.362483312662724 9.451961510710385 -0.9466369894523569 0.4579466402557984 -0.3071637811415549
Ni 7.125181105276193 6.046988715472974 11.460910248682547 -0.23893955875683365 -0.02721332718999829 -0.8410754640697579
Ni 0.43664239820364925 0.07845539073821098 0.4503995725666269 0.8448760687627708 0.6056146078901441 -0.10079727122473608
Ni 4.620132752816761 0.26075688790277946 1.5823068027788307 -0.44721151322648145 -0.1846581717054497 -0.19436228636709107
Ni 5.948417875828436 5.552376094989673 0.4445616106614147 -0.24820889987390157 0.9702546288712968 0.11206487371875538
Ni 8.126309512314592 8.927031886944222 11.173375745893255 -0.43085595468659343 0.32338641364800436 0.2315324676594851
Ni 0.005870425085408015 4.861108742920229 5.741870891832628 0.12562821422548684 -0.3759161081156042 0.17375900829444269
Ni 7.917553228555459 8.767565531782386 2.468387502713309 -0.23511607124568537 0.24650760091207868 -0.08511148505836309
P 8.477966911785646 1.6170541284034126 3.4383683901088387 -0.0796499477231596 -0.1310439859244195 0.8816852671713202
P 1.7992627448024208 3.155150588530584 1.6279716762542624 0.15398773920478642 0.11255184065750293 -0.6385080161840552
P 4.783061847199483 1.0668843820350125 8.084599736293015 0.0971110806224005 -0.2770556489022648 0.23144016505599496
P 8.454016298841186 1.6735580970442214 12.409773837360706 0.1233620438991295 0.5363177212665344 -0.5008164430361309
P 6.238801022679908 7.776401517554089 1.3369013920886452 0.2882008668858069 -0.6824175730828119 -0.1462320065187675
P 1.7132804050338102 3.2702505974248206 5.940423817705219 0.7203680841846561 -0.3047289464478171 0.5536870657829174
P 6.989358766356967 3.9176385509296012 6.070279243753453 -0.4264408563380333 0.6147805906601284 -1.0887526598099055
P 2.402266316939493 8.641581339972502 10.24070587360277 0.3798270131342362 -0.8266860281173053 -0.5906477021676666
