# total energy = -340888.5477257349 ev
CRYSTAL
PRIMVEC
9.06452969020123 0.00000000000000 0.00000000000000

0.00000000000000 9.06452969020123 0.00000000000000

0.00000000000000 0.00000000000000 13.26685545831182

PRIMCOORD
 96 1
Ni 6.474068529301325 2.134615205446079 11.597380700148735 -0.511253579209055 -0.08059457102461604 0.44418995279133827
Ni 4.641655685450241 0.15248261515086944 5.950078876468991 0.611556941516508 0.8700466544911273 0.5729675112790843
Ni 2.72034699708786 1.5115647442975157 4.617276632343977 -0.4202437263883859 0.46050154546716815 1.293960887752565
Ni 3.6608101009663168 4.659911648624071 5.248022879358768 -0.4304543483728006 -0.4630510513618993 -0.4228096873433492
Ni 5.129581199710877 4.346197334084308 2.8799289520389992 0.20659071011248292 0.2369091585903662 -0.7082026524667158
Ni 7.177702661063269 6.107526134633916 2.5189648690583692 1.4345608927965359 -1.5093285727267296 1.5181245737518048
Ni 5.075910118304598 4.254310194713347 11.625188864907761 1.2157906098987254 1.3755129375944442 -0.03278799306429837
Ni 5.670035664613195 7.688108209420776 12.42346847248247 -0.42681649450989717 0.6265816970601145 -0.5127497041386072
Ni 2.1647457027597885 6.076715797579372 0.2301121554770847 -0.4896190316584148 0.8211897808894245 0.3671730718156515
Ni 2.8911136754551805 1.7568418582601106 0.3656368481326209 -0.5046823537494406 -0.32872428092114997 -0.1388591110934641
Ni 0.7444671195023369 8.841959411151832 4.4460812017134375 0.09781504866796058 0.7858509963788144 0.4973143434201435
Ni 8.561974212287252 2.3244627192061067 1.2029573858908889 0.3567960994567016 1.6423502512028105 1.2613667558666277
Ni 6.829597520167243 0.7982787011217221 4.912345208925165 -0.7061537403574871 -1.0535866534317337 -0.8679440063258278
Ni 0.852676757824199 7.245686635146548 2.553683831396206 -1.1672515246477575 -0.12653992740647882 0.022692299391193178
Ni 7.495350981569984 3.8811416287052865 4.1515972873093645 1.4735118201384365 -0.8300953109091703 -1.1215041432093138
Ni 7.991652121437681 4.118704827741899 12.632249069798197 -1.7418596568540583 -0.42406489990668905 -1.120632539237638
Ni 8.292830191156487 -0.12940069627011436 6.630244033924398 -0.8624950673961146 -1.2104275458145992 0.8584926311049408
Ni 6.9124654523098235 0.5156847305583211 0.4756077246097339 -1.0571409464418955 0.46239773404861656 0.13562954841257288
Ni 1.4316699779548456 6.794554047659783 9.20933392966202 0.5880256911637873 -0.17582411835358752 0.5759299363415178
Ni 0.07784527613730623 5.089978268674898 1.2005154015418174 0.3196603709466688 -0.5807672098291611 1.917124560270066
Ni 6.418376057732303 1.9636309783616916 6.891760253163019 0.73142485621945 -0.7107328750877372 1.114164672125107
Ni 3.8930342919049212 4.2189222700705304 0.4779064893867365 -1.5165096638562012 0.557657363284575 0.2952850274260979
Ni 5.972092993730144 5.389452206776683 4.859118289482897 -0.522274612909907 2.7674976475916657 0.4968008941188347
Ni 5.216528170298453 2.809088744591234 9.566557081162093 0.2986097209239567 -0.37382760101769164 0.28866572233736737
P 0.1888812348750573 6.094237533833104 12.520515142259859 0.5140391123739921 -0.7961302668176353 -1.8823120805765712
P 4.055180602358482 6.098135281680545 12.429664078653929 0.12541455555278402 -0.13958339085399835 -0.3277017531939066
P 2.295791611202718 8.285678277082926 1.494630389579865 0.04222625565906276 1.7253819709140092 -1.4203815159723603
P 6.3516067306526445 7.765292681329993 5.9129976976450065 0.48356768325801236 0.013727119778105392 -0.23202200570139395
P 4.683706039553219 0.8932668161638682 12.675392606204435 1.4983702739430131 1.3236702418915398 0.5856425356435914
P 4.080189640291252 5.843431056645068 7.924770394187538 -0.40257227725055184 0.2689492177450465 0.30904428599371936
P 4.805333901453144 1.0936717878725353 3.9477523265120835 0.7366418816440152 0.9731154953588597 -1.162623796067759
P 0.02335748058903931 5.52302711905551 3.6905471976833306 0.9699574093458523 -1.0034385718224332 -0.043973834477788784
Ni 1.6176741310466987 1.2697049580988404 2.455761528032626 -1.3987438830979266 -1.8754863159039892 -0.6716014563039143
Ni 1.8408247275776557 6.573959648554357 4.9195487908190305 0.17563102850617493 -0.6608668434952296 -1.476797947088876
Ni 5.69562483245814 5.824667479798083 9.396834636636694 0.8751487516043831 -1.8329237599514303 0.09039998715081206
Ni 8.458593249031278 2.346761462705422 10.195154128142864 0.7332855635772726 0.4358125273609204 0.2352767651932658
Ni 2.178496594584366 5.1527773316680925 7.030637915420343 0.27452645472250786 0.9046750431982741 0.9192256873189396
Ni 0.38001772478370394 0.25949029681093927 9.367567989020335 0.4106234296898025 -0.38318050298750134 0.23481268107265366
Ni 1.514565103687058 1.299273454560128 11.643961506284624 -0.8352758266688454 0.06866850901099143 -0.7117428044094903
Ni 3.9698652471489053 6.916045941611542 1.5878436696719433 1.383253243661495 0.27885824932864234 -0.05475575558464118
Ni 5.431538818999171 7.732334050694419 8.029327026968659 0.844646726360784 1.1343087511731498 -0.3963352952019045
Ni 5.299713360986754 3.0267734296058952 5.063945845318928 -0.05879084488596327 -1.2108646333520179 -1.085242589774118
Ni 1.0230681646545798 7.366788754313564 6.9349971542269975 -0.7523757474395042 0.634210931470598 -0.01801494852018188
Ni 5.247973024444439 3.9098761884178197 7.441008218499762 -1.5709982818223849 1.7341962267715294 0.30571753561333154
Ni 8.022815975157457 7.416779636589468 8.849762158470616 0.898662261345291 0.5781621681061462 -0.11253281449410941
Ni 4.584313469443464 0.5036370638977762 10.585584278397166 -0.05590889535247791 -0.49791726711146506 -0.9559857776571086
Ni 8.258620655397781 7.040991421446733 4.962255416885159 -0.6134623860693371 0.34726142049338904 -0.21562350973871253
Ni 7.069454045262932 6.111668624788056 7.175007776330608 0.27855048828023643 -0.6809330181174853 -0.9804174283369115
Ni 2.378487317277619 5.354037088544233 2.6535305344528375 -1.1495296818879621 -1.7432220844192237 -0.4591861690898543
Ni 2.18173263175073 5.357998288100819 11.148788900386709 1.0658901533894352 0.4801884823731343 -0.49493273056184445
Ni 1.1468805782550486 3.202163018210879 3.702593957890888 -1.3147647118717938 1.2287726239806902 0.5392536639664068
Ni 3.528467964750866 2.5922198672655727 2.5587780971875134 1.1874660519224196 0.8608354203055045 0.32515738950549805
Ni 1.0718081418073524 3.164173573493142 8.00808611410608 -0.8926852178262498 0.3050207666566231 -0.5038251479554678
Ni 3.6238268190650125 2.249825380192543 6.78420598035132 -0.34932061701526296 0.7148803215972075 0.1549156503356945
Ni 4.081123286868662 6.924693503114935 5.973335740776387 0.5626908119434244 -0.4981460952928195 -0.31807811406121345
Ni 0.920203879601639 7.9469005374311275 11.292641176640952 -1.3985181402403657 -1.4989693409795926 1.932841713895007
P 9.200316535339613 5.627994375040094 8.005167335485437 -0.5891819162554176 -0.6694602415911954 0.10150303904250907
P 8.506979709518818 1.6668854637531152 7.982853182285329 -0.31414046956970415 -0.402318766478849 -0.16465601755190998
P 1.5438525997221348 3.2978391310707478 10.209694540519797 1.494669428052658 -0.6409503070769607 1.3419736681864178
P 3.972847477478692 6.176398432645216 3.6980698510288925 1.172047146264188 0.23267198058056704 0.9525384425384564
P 6.900409627572388 4.048762915205021 10.337574208676422 -0.006283776126182726 0.6796338396900876 1.353037125089431
P 6.308858407749078 7.898305592756398 10.037105891647045 -0.47303747315064987 0.37372115734681444 1.5149171225581004
P 2.5904885420589183 8.583384631858546 5.710770755430907 -1.5156753408803638 -0.3289667359492593 0.6086112286246228
P 6.981564363568068 4.11947531278151 1.5575019688120817 0.2275020063438533 -1.1303448814293953 -0.06204637570878347
Ni 5.5188664998416135 2.628713664553477 0.6335082092685468 -0.06683171291256877 0.07989831628853983 -0.45006698039740556
Ni 1.5137039733486697 0.7510361843047572 7.232983602975841 0.06907294353826168 0.3617241328859383 -0.8233428226766852
Ni 6.825590997961269 0.8645014370497508 9.121852151811657 -0.8208887047092379 -0.9178046386016968 0.3772425402365116
Ni 2.741023189739055 1.8209371490258268 9.110496108780785 0.08031226389750684 -3.0335847132975693 0.9108138091061605
Ni 6.586695313032625 1.9496625378200472 2.6704984279310358 -1.566440230138057 0.4518837218911702 -0.20599215729653553
Ni 3.764163870632657 6.986024112267931 10.198351187830754 0.6299590981727795 -0.004777881004617578 0.7624930383791643
Ni 8.013878348697974 7.221620308321068 0.578792894020348 0.55781111525362 0.428497738867062 -0.9456288599028165
Ni 7.563924150095319 3.9368522293340646 8.238743954281805 1.7879489950129528 -0.5147873033939264 1.8676094842590736
Ni 3.183481022132794 8.423486324814673 12.605649206871881 -0.6145921287984061 -0.6862896544437084 -0.009202749545190602
Ni 0.07188262838370872 4.751744400815765 10.248168031133007 -1.322309099877955 0.7596391138701368 -0.5222093068896103
Ni 8.831943105636894 1.9474145344103602 5.811559263141839 1.119994905653639 1.9032465167363932 -0.7075542202494395
Ni 3.3706001123996123 2.8080644527150462 11.511505156992714 0.05760633765955886 -0.17438892856895774 -0.7486913566093816
Ni 1.2682093106690084 3.8410038904065185 12.591227539836346 0.2775017353007479 -1.4168488202287535 0.632725348064007
Ni 3.1904516456087992 8.163488414330578 8.105332203540778 -0.9321871325756139 0.7824016043776332 -0.34301755761537056
Ni 5.909157962788783 7.7840834517666115 3.445309967652198 -1.8987787107730265 0.7472006309964679 3.2634300230626185
Ni 3.300603812683468 8.607097442018794 3.4951929820225573 -0.3172489332916988 -1.79606416792092 0.3359634789820665
Ni 3.297476549875637 3.9578728741206146 8.903241071843487 -0.04712060763688659 2.4757702556098393 0.6451401767885921
Ni 7.560524951391155 6.369427596392341 11.030037213817002 -0.16203246388613385 -0.17014815101473277 1.425707556170964
Ni 0.257011147889369 0.1372968082466403 13.738890387019847 2.2412668782474885 -0.8842257742049868 0.12975971989535717
Ni 4.642625590147163 0.4376998606608972 1.694323795693127 0.1734065100510304 -0.17901460026642715 -0.36062010118848215
Ni 5.934910292171529 5.709665789238807 0.5387258590546262 -0.578673560524926 -0.3591913391617556 -1.1626744468000363
Ni 7.693619443586461 -0.01637688613016816 11.54847937436414 0.07776892865036285 -1.7444135336241637 -1.7142321249447767
Ni 9.220077210473155 4.582473369878276 5.956114946914599 -1.0335958121321038 0.3572992643453653 -0.6529969538288496
Ni 8.079043253989267 8.825606999252333 2.6251123268330385 -0.2004390886887903 0.1823189820493118 0.14436744250620298
P 8.371156793830302 1.6747987983364092 3.6575133314497714 2.46083137491182 -0.14674031361375373 0.031246873829423604
P 1.6850689106879233 3.310357246831949 1.4619146883450151 0.47856097407204035 0.4586225832769004 0.06317226178311056
P 4.706430815956789 1.0898193626744828 8.247658919416594 0.8082355347216017 -0.60260307475733 -0.1649313827004837
P 8.49558559546246 1.632757508763309 12.488183777091827 0.37356869092935024 1.6707537420461676 -0.9268040138868296
P 6.2005463402395975 7.810570008069457 1.4708831342060813 -0.6379446874814175 -0.15405664476950887 -1.7863927062694267
P 1.9765569979673927 3.316793063045166 5.790717189593881 -0.32912280191114934 -0.5001746956870741 -0.02168674094481426
P 6.986105693036831 4.087985135986134 6.293358968111078 -0.18585836266113798 -0.46011819398582043 -2.9601280388693145
P 2.462878090439663 8.72673110734561 10.188321285521003 0.2790850206274677 1.0440260063264923 -0.5719701803628214
