# total energy = -381169.3681029111 ev
CRYSTAL
PRIMVEC
9.30386745138419 0.00000000000000 0.00000000000000
0.00000000000000 9.30386745138419 0.00000000000000
0.00000000000000 0.00000000000000 13.61715046443254
PRIMCOORD
 96 1
Ni 5.458243949320034 0.02906900269192504 1.4511250981819928 -0.9790136060108493 -0.7029619728930667 -1.04531721433409
Ni 3.0691504093616504 5.982237750244761 12.176823244004892 -1.1861889849822087 -0.8506538517868123 1.1176125214643913
Ni 8.917393864135569 3.9706579259526023 5.227678303432669 1.2333013650889793 -0.5847953571519476 0.550657020707342
Ni 1.9775741896618344 3.1479169491100305 8.841016557485155 1.0593109575100206 0.640043221881659 -0.4454806465783037
Ni 2.4830625987179666 0.20220187632949566 6.761133322502144 1.2435194432725616 -0.12885212047942327 -0.9132139339072207
Ni 6.038181903741927 5.974608579137547 3.4638623235543196 -0.9065815161923676 0.1419269513855104 -1.1056882592229798
Ni 4.358247729800671 4.371412701894217 3.7546565537862535 0.8109035684720679 -0.6945176987804554 0.2278583612420076
Ni 6.617524410662769 3.5774858017821822 9.302065975228487 0.6715204665543338 -0.9826704860371462 -0.2305351367432223
Ni 0.8805654419016499 8.566619462813408 10.283794226011791 0.06394282140054794 0.8117294068074731 0.9800772713886733
Ni 4.731537489756316 7.216088707226909 13.411939526926774 0.33559581123000265 0.9351819535378798 0.4874734460703218
Ni 3.5012778255148804 5.889096735666326 2.049503317402054 0.7696820999284357 1.4265984434163494 0.19943147335988237
Ni 0.16693463730631963 1.1982729687943612 5.284516558568133 0.8719222742472854 -0.25611324232264276 -0.38011883334304214
Ni 9.20531133862805 3.514480013077242 9.511579760793543 -1.1927075028270167 -0.9317847549308726 0.24740183059157392
Ni 3.1401482199947575 7.142932399402493 7.022935772139946 -0.6354255206039895 -0.7374674628691041 -2.426351853077712
Ni 8.275436330932349 7.178119625167715 10.996025728979653 -1.2247300784802004 -0.02039681848879713 -0.06874255678203645
Ni 8.293318363698281 7.445242956459438 6.97086388817305 0.15938474185064164 0.6058611766833113 0.49586398412686217
Ni 8.689784056858889 2.50434054301333 12.180894616293328 -1.0020373205995323 -1.37880394964089 -0.4946769057972964
Ni 4.476769694111397 4.203933788356467 12.813969747476964 -0.4084035392203482 -0.8513105115342049 -0.5556351906482238
Ni 7.860986262466566 4.654901535597633 11.182090047643952 0.8091670453969355 -0.6551042299798394 -0.24666958041123968
Ni 5.22117210909697 0.4754852980969337 7.334659982033816 1.12356051151771 -0.903327013810812 -0.9654739196532018
Ni 8.000358193181276 1.1288289039843087 9.4519363896961 1.17125138983577 1.6794949785739075 -0.1425769262646835
Ni 1.0824677337071793 5.34482980810426 7.7598281055185145 -1.5795901372564538 -1.6127357707704868 0.49964376288426854
Ni 5.651708563958329 0.8452488923822932 9.487177577891105 -0.9707305400664509 0.7696602455515649 1.3817938855071494
Ni 0.995364928944088 5.365884459586729 10.515748939272699 -1.483220048565136 1.2014852490196468 -1.711603171962362
P 8.733195901232376 2.1361493022854328 3.325090492274263 1.9723004341112613 1.3484009118690004 0.5042884607451316
Ni 7.206626674280524 8.308427844037448 9.018679484064313 -0.36445181622974654 -0.6352298596534156 -0.2027962760670572
P 7.206691801350951 7.69439121631319 13.015013292339571 0.06325685107711686 -0.7784829860495174 -1.0382615930388894
Ni 0.9896895699496974 7.740538397644628 8.169431789557775 0.1054291135697926 -0.5746364143410748 -0.8728558418051483
P 6.0406009092149455 4.756918439488607 5.262646888318601 -0.7635271360706334 0.08992510439692256 1.755309611711377
P 8.51463875674511 6.296503776658742 8.873166070608297 0.3130616346832286 -0.2678451860475903 0.2396003322692841
P 8.003865751117152 7.4472060724394655 3.3474225647238303 0.6974803809532052 0.9828574052369718 -1.5970618116786561
Ni 0.8037099164769552 6.711232961140644 12.2544277307395 -0.26184217438662005 0.8635139955789322 0.9084972451578418
Ni 3.0121921343392577 1.276313806900835 9.780518276576752 -0.5798377560363561 -0.11145217983542095 0.06862634291914632
Ni 5.289322936365678 8.39133460469157 3.3206237056296612 0.6745649098076125 -0.6823041874333992 2.577702668880283
Ni 6.37132547671266 5.898019144314885 9.293445942264057 0.945639401425778 0.3046155607984044 0.009967909845989284
Ni 3.657108297313322 1.2266962831023343 0.43501254537316497 0.4809163616780943 -0.2445563907229788 -0.09180200970466125
Ni 9.190927559930792 1.5921987062082987 0.8467672835099727 -0.09282633720411755 0.7566129254493034 -0.02143785815880179
Ni 3.720421113635992 6.888341377234449 4.380568637609593 -1.2161477361278281 -0.9546773432583299 -0.5166192143963425
Ni 7.415703178086995 8.652857007926533 5.114601892596398 -0.13933219407514066 0.7538747005825339 -0.6623585975494076
Ni 0.8677940233908301 3.8937056403089865 1.5497135270083222 -0.7705225935518601 0.0953763573194809 0.9981423564205002
Ni 4.73622663882709 1.418942091136916 5.2647718915879755 -0.3208798451760667 0.7928729362226022 -1.4195888448677358
Ni 6.90408352054348 3.20989931242254 4.069009106165232 -1.2969837337392889 1.2964026644248383 -0.21622746187129857
Ni 4.283202736933859 5.732940628515747 10.455670147190112 1.598533511128176 -1.0385336157533533 -0.3134766107334601
Ni 7.627412676312176 9.109528025763703 0.9397799047209935 1.169201963505909 0.1715640575256529 -1.101930334842444
Ni 1.7623664373679804 2.5781946408780403 13.342764343878914 1.427752868735767 -1.5137367290967543 0.2827994933645775
Ni 0.7055066677528681 8.016118944224715 4.943093474172631 -0.2259367187392625 -0.8103862625160172 0.43037721527796197
Ni 4.725964473301168 7.77259022016213 8.48280371433346 1.0543744394403518 -0.5270915746825761 0.9419676090011455
Ni 7.683933669575985 5.03531805783148 6.976801616222592 -0.43530550581751487 -0.6955481969274989 2.1370099306089263
Ni 2.0069185868229957 4.3124168799541645 3.7750692384316524 -1.8125012304310206 1.9023815976329366 0.09106487442832059
Ni 1.6107599212801174 6.952686922816754 2.9645898281771257 -0.546636329583723 0.1726053543059737 0.11556774466569128
Ni 2.3639637946405974 3.8184280507620767 11.141102791063805 0.1957401405512242 -0.35052337907411246 -0.02183149405279466
Ni 5.520775240797575 7.615289737345469 10.836718402007104 0.38032117916183533 1.3368034368393882 0.6774064930214656
Ni 2.7069787707146893 0.09958766416403037 4.054873740722318 0.00260658438491164 -0.4024812601986423 1.8774089868479988
Ni 2.7355881623667404 6.1388683546227405 9.038383214028775 0.11010877843364908 0.5775371329276375 0.7427073711118048
Ni 0.8787967767461848 0.8356398583340855 8.112307905699154 -1.3554164239548852 0.9492116921580684 0.982899828439133
Ni 2.2811314649241052 7.363052593580017 0.25528322988801566 -0.06715207236646499 0.23459747973805403 0.48143598162699014
P 4.279174162434561 8.616171859541481 5.513529389019162 -0.24140627512977134 0.4028669256728352 0.5097386852264253
Ni 5.9981380592962585 2.401160655721866 11.661699750072382 0.4219571095350668 1.6981177358814175 -2.1800031463410003
P 6.967870834093549 3.7553292233850972 13.413205783253227 -0.3337415316300833 0.06847310517073368 -1.3873945195233783
Ni 0.1507468387582207 0.17585332440799656 2.657605008236931 0.7546365184492229 -1.7780181090524865 1.3698616528459377
P 4.710603788547497 0.18180035632474167 12.120652076147952 0.8720567429426207 0.6646998440880746 0.14697248422921785
P 0.6635499482100742 1.4817524986305741 10.672128339236172 0.0009772763116047685 0.11686358065897937 -0.3616737392639771
P 1.1924859633935236 5.87994173033767 5.784443115809761 0.45299778089095527 0.28945890766262405 -2.165119287250633
Ni 7.1085266984824 0.980069371260845 2.868262239081348 -1.399600574671267 -0.6163301945354354 0.8942785304552985
Ni 6.229692706267399 5.743416782987359 12.246134263513929 -0.2077579909477067 0.45998603928333043 0.5235987310379692
Ni 6.125433570380282 1.48523214496484 13.619192472761277 0.8403884653050623 0.6592426776282453 0.6753611804566627
Ni 7.101530190345052 0.24395670195396446 11.376271060056947 -0.3001960915744701 -0.9924278225342262 1.4729736882467794
Ni 0.024645944223181872 7.366150781358922 1.142460930211491 0.24699585340240687 0.8160640296270849 0.7142863967669505
Ni 8.501687773597256 2.5827814474095723 7.306785595890875 0.23770671479099703 0.5861770679908227 0.9163784476781314
Ni 4.613527238141804 5.0332898147810265 7.803348805138287 0.5343387431632927 0.7670379774373693 0.2666632499243472
Ni 5.610557559315394 6.948844425661536 5.941298873774077 -0.4358240973251462 -0.1681753435590781 1.197202305373577
Ni 3.5128611401837597 3.5974519008017927 1.5972507061000267 -0.6416385913932369 -0.9957108641608724 -0.4996013396821074
Ni 0.22879884150533936 9.23863779095249 12.57596938130695 0.10935955897245037 0.11847951899584758 0.22155658739369585
Ni 3.1307792257204112 8.16274789135848 11.405820142296594 -0.3125255596741005 0.6391574768425959 -0.5213670134939731
Ni 3.7852132448440856 2.2536013218677082 7.302196928585901 -0.6006289817500946 0.8324915790554889 1.1560276309074802
Ni 7.4185780730530055 3.3249230226645925 1.8955205936303101 0.5521958259493716 0.1680357326574203 -1.5394647299904778
Ni 7.22653695009691 1.7133629688049379 5.601305793767818 -0.5998697349865669 -1.736488879460448 0.6224496771696119
Ni 1.5963575348484507 2.7649325595279017 6.5630167742618895 -0.4477182776595709 -0.22189468745940497 -0.7706393216353824
Ni 3.3017470894596297 4.36717013844923 6.041765753388877 -0.5448175312074294 0.6060956612916206 -0.4700963882444549
Ni 8.375676196187374 5.621191879529474 0.07697182376474365 -1.6154860798221147 -0.5531381352579828 -0.16347793808340877
Ni 5.915603453330292 3.2008838651019422 6.900436404599544 0.14700076636399198 0.20984264139087733 -0.12009005801607707
Ni 3.345670646529332 8.5468952643411 1.9685494384740327 -0.19382338314448552 -0.44283035343965027 0.2239831945573175
Ni 5.4973946225141255 4.84404915585331 1.140682961188822 1.1042870080000786 0.3444738304459229 0.906967695887193
Ni 2.280452282618219 1.5954829713312821 2.4097723152058137 -0.5773191033795606 1.2754931679656807 -0.7992595564752364
Ni 7.64458761517061 6.2976481523248244 5.090144816877455 1.2102725082939738 -0.05667996919054754 1.1863684479828664
Ni 4.9739869652232445 2.1036601980093472 2.8113290845004055 -0.5378850657536542 -0.2996106513846453 -0.19318009313353182
Ni 8.575206932242626 5.270240704730439 3.4161893080014374 1.1424617192975872 -0.5043977326294862 -3.448432208371048
Ni 4.319357564888288 3.573364188610846 9.613408726566998 -0.2079603367664999 -1.0990249882701912 0.24372849550504475
P 2.9378449315127395 2.5812183977193137 4.288625961127023 1.3338780356624769 -1.7179010891559316 0.9914191787640538
Ni 3.6173435688837716 2.1832826935404874 11.872493747764695 1.4178857461337 -1.5291530636518245 0.045627825141444006
P 7.949503255044654 0.3586985050197384 7.346370759683389 0.12774757456133481 0.1382834410956522 -0.4753028721460589
Ni 6.845664538370071 6.925761531128611 1.461951078060473 -0.4810312899894038 0.3004148924534955 0.33688650501696815
P 2.84362466833865 8.60503513049839 9.042209894609746 -0.47688435770056575 -0.8057513348471671 -0.46345625722011796
P 1.71080440532386 0.15227825529998576 0.7339095135529925 -1.2176801136119544 0.32858544135044054 -0.22137121085576714
P 2.368262181288808 5.031382522004223 0.45401755491061063 -0.40956413518735274 0.024396940787125725 -1.014348790977034
Ni 0.5855677244669849 4.295865300198392 12.801346260454688 0.579793275951666 2.0406403561382405 -1.0303135418364064
