# total energy = -340896.96746491955 ev
CRYSTAL
PRIMVEC
9.01424780878958 0.00000000000000 0.00000000000000

0.00000000000000 9.01424780878958 0.00000000000000

0.00000000000000 0.00000000000000 13.19326284230226

PRIMCOORD
 96 1
Ni 6.171631928145846 2.0540947176605524 11.214551104371475 1.0526877957665484 0.26552579388579434 0.7624377596611965
Ni 4.601196686314167 0.44091391186688406 6.0755508616848495 0.07152551884381231 -0.779442264638993 -0.6826901100179081
Ni 2.7476689864001878 1.619752192577365 4.685139166433701 0.3683321251207592 -0.7650412587223147 0.0952244051226489
Ni 3.295942591811418 4.310424088945572 4.818298539146247 0.36148476318162265 -0.12477640774815286 -0.0906342146488052
Ni 5.162216438381291 4.391182736675529 2.725635460041629 -0.359358203756923 0.23283858806541835 -0.2441529846369731
Ni 7.285243110410745 6.233415583859779 2.6160393315713084 0.2629600900411471 -0.7398236218061065 -0.11957429472192307
Ni 4.864331599349683 4.614591858825241 11.506015995985596 1.2755682441779903 0.3785764285565867 -0.6384882186897133
Ni 5.624385947005319 7.852617907309839 12.313972057452704 -1.2786666805976559 0.46712290743842777 0.25781711238762695
Ni 1.7903558500097994 6.381429535832757 0.36933357143892925 0.16814963252746526 0.3721725819127719 0.42840697892546864
Ni 2.604504699845083 1.6796428562136905 0.22293947982950527 1.0389156816831204 -0.4715845427542072 0.5301709849388482
Ni 0.5857900041150261 0.14617324253370306 4.630426286842034 0.04515705615261255 -1.0013757757561335 0.7429626816557204
Ni 8.550906627747517 2.154991195397065 1.4658375138710438 -0.1579330970057796 0.6804280534566087 -1.3690952069935582
Ni 7.071398105376948 0.43936977118643517 4.879053669164681 -0.645849544150791 0.9667157624801028 -0.38236443484410926
Ni 0.9776402656047045 7.429020365829076 2.5748370068649695 -0.6173815186180851 -0.09395916525698013 -0.27542376972579663
Ni 7.545006694698521 3.7954220728603016 3.6679642120005505 0.6736233718299495 0.06971623354921543 -0.48451719165547524
Ni 7.4562794517466315 3.805563101847488 12.540975160275474 0.17802806798344178 -0.21106494383375263 -0.03586148978329953
Ni 7.949530087435387 8.758820257604809 6.960858185142221 0.07778564082091119 0.5642298742957702 1.0510785422978994
Ni 6.668154735854466 0.7900510606873326 0.2644987687561931 0.539226153162581 -0.7457500145928705 0.543075351705342
Ni 1.8573046698212063 6.4359747504118365 9.27599831315453 0.8511014808471923 0.5416077660208802 -0.560668382196757
Ni -0.003620121992225802 4.619576737962943 1.384646182237633 -0.2862823097068553 0.7976320481741425 0.5876744784719556
Ni 6.4270957161430555 1.9852709342675146 6.909364293507285 0.7075675899858782 0.1964111984763198 0.3063374285855176
Ni 3.4879731167127783 4.3364752656326555 0.3565693962870574 -0.15639763419785968 -0.34678139553317694 0.5662646453376119
Ni 5.957949179575844 5.681725578460867 4.727660275620774 0.2037180165503782 -0.0800816359439395 0.6786395940976183
Ni 5.312655223063205 3.075372957778119 9.137864878401867 0.32971749807235473 -0.35001790019260365 -0.27021882848608947
P 0.12119115565806915 5.429894532403067 12.364779063390907 0.6432622430395889 0.6771979765550854 1.0015218144156945
P 3.9356747573150854 6.299201565680656 12.607653552647225 -0.055333739575298246 -0.8136567057371729 -0.05394123010314582
P 2.589261606496344 8.584475687257102 1.3698303642435536 -1.5337478821113586 -0.773305812723952 0.5873949995583239
P 6.231333292574411 7.652880200378218 5.94028035209337 0.48154936727640285 -0.011881839039250506 -0.48539702315726735
P 4.483632864046714 0.9743500650888619 12.468873796313778 0.8836503613174911 -1.050021818898611 -0.3656291243672993
P 4.078595659174498 6.054068105878393 8.137090446759196 -1.0252186438120021 0.7955473977309718 0.26735179135093956
P 4.7921184587129275 0.9687161600959806 3.89686751829932 0.4344578131052389 -0.22693019300078335 -0.7924240216106417
P 0.09113494858964662 5.485413285764917 3.639519752472492 0.9557839460589475 0.6690882029637574 -0.8354727731709998
Ni 1.4329769742533647 1.1811819851875198 2.5847058055628995 1.2482371604632052 -0.467141419381189 -0.5213752410240892
Ni 1.8469382846343045 6.449604293370615 4.769892027447412 -0.35510997000353034 -0.5503921970817295 0.003656880026296928
Ni 5.933349296814928 5.593007349756966 9.244928003187388 0.16360443635894406 0.6903401703639981 -0.03338320344613606
Ni 8.625679814813038 2.370521864804732 10.304690772242727 -0.30222829151315045 1.1706880611331323 -0.7677090353624649
Ni 2.3146785985152922 5.17370960456677 7.045598426208747 0.8582797437631863 0.2182028404301145 -0.7981573245499931
Ni 0.5825007050239823 0.15862462328037016 9.15249680573698 -0.5989299967811169 -1.179899295318755 -0.15274178261282725
Ni 1.3817580171820822 1.0777434895182192 11.263036040027814 0.6082206780544235 -0.05854581875469272 0.8667682408501718
Ni 4.093351983131853 6.643654009821424 1.6777742026056517 0.35101497399855036 1.1493782439117624 -0.07842661683901977
Ni 5.54570057631274 7.897932531948582 8.126205742312948 -0.24296127832171704 0.31703090374362175 -0.34924399814105656
Ni 5.109735486591603 2.868261595991813 4.940995975643213 0.745049131871104 -0.39371225575676067 -0.38753389486019063
Ni 0.8550257601892338 7.355004375594598 6.89448267150289 0.12631187055607276 0.03117334027901083 0.5166989185943424
Ni 5.261319080768071 4.680215584182323 6.968496858887769 0.05442742571094498 -0.7571549139957026 -0.33445192743354657
Ni 8.219155259022703 7.03279909548972 9.23800235645774 -0.17918506440602042 0.8556903857694553 0.32099143105326655
Ni 4.589099565513452 0.5208080932147339 10.238552333325497 0.018669037164413007 -1.8552208807867339 0.28057240380627163
Ni 8.297074418636248 7.033826719760422 4.995312228323383 -0.7120253686469157 0.9485516899765665 -0.8046848412558658
Ni 7.353417867948603 6.218524046182596 7.157292170186017 -0.15807707878281163 -0.05368283423543658 -0.5532373798400084
Ni 2.404505579721792 5.1628925069804374 2.53739452499468 -0.8940440458469894 -0.12105139348808186 0.006287375670608527
Ni 2.3322924390850366 5.231220506734101 11.448916143526542 -0.6019219895299054 -0.8200104158693425 -0.4367561222211123
Ni 1.1081305194878237 3.368101646960241 3.6694290272987 -0.6469098670945053 0.3282527406013702 0.45604299547518234
Ni 3.7721472845537103 2.3798425972249544 2.513171437799687 -0.321602325164388 0.7530146665750838 -0.20412502218080975
Ni 1.106507954849874 3.3350554138339974 8.027137354068525 -0.2616876510866267 -0.33666333326256864 0.6445632212391996
Ni 3.685745717582883 2.782166513452599 7.123320173791342 -0.5562322008022742 0.5072102623776168 -0.7437049591383837
Ni 4.030180133227674 6.892609510770856 5.993237256176856 0.5659121470941996 -0.15856713104535272 -0.027868444275493943
Ni 0.8089818828882125 7.313556863342969 11.27475185813861 -0.5359701081191286 0.33842582447963004 0.44986283480639944
P 0.4155225781325672 5.471423172886594 8.028008130424226 -1.514033948622199 0.39866034379065535 -0.40328215883338286
P 8.615827241761489 1.7285812085438543 8.067575270545431 -1.5172997638576644 -0.35612632708318664 -0.5283534721141352
P 1.7628263366525843 3.195055128322894 10.51177238701067 0.013022894622229183 0.24988243092158252 -0.7095303701392038
P 3.942579671274361 6.055681656268355 3.8274839501061897 0.606446102652504 0.9525608111359595 -0.3673412219623996
P 6.90633821045751 4.055077486172214 10.388282598115506 -0.17853997462285381 -0.4890677871406352 -0.18200736434616394
P 6.243682812318807 7.746961906635341 10.199302494733491 0.9896523166716181 0.27744928479625763 -0.11443517372314486
P 2.4484500386662655 8.466947921981605 5.722604291664414 -0.9009412871874548 0.33139102912003576 0.7972756932759882
P 6.803188170723844 3.743283662494181 1.4683047135455265 -0.017576061210550373 0.7631908357771372 0.015559802111469978
Ni 5.2549820644320775 2.63059193352412 0.2776406408987877 -0.6115152896452952 1.997007449939638 0.8680350233777374
Ni 1.452042108749275 1.0311127846731394 6.911634081150818 0.5290129600750051 0.15029717772707665 0.14952867499216826
Ni 6.834738038683979 0.8905788556811108 9.228595087256826 0.3044677223666305 -0.8083484061503821 -0.6667019621197681
Ni 2.7583508702666912 1.5712375099026656 9.162179910926344 -0.6987304513102224 0.3885019152004148 -0.21593435611091197
Ni 6.387685423936852 1.8415026930971727 2.516509413829869 -0.6706570901127741 -0.021650745500556262 0.932853048294387
Ni 4.068887314090765 6.82753565454108 10.361302953885595 0.1678362150521045 0.737105194433679 -0.15962513999622188
Ni 8.318564385841094 7.124528083021817 0.43528180972360053 -0.09028274484665741 0.07327695431728025 -0.11824452016690604
Ni 7.571193085105434 3.9938887708255297 8.110545289282337 0.7015836044883014 -0.6836982395674484 0.11041011172415179
Ni 2.959756213076206 8.256095647280025 12.312507242154554 0.384077560880474 0.5141404138385468 0.03183977021841613
Ni 0.04998130082244622 4.931812259792418 10.175158732920798 -0.066078379686312 -1.015876797585786 0.2511515274419932
Ni 8.783762681789295 2.3653026152193264 5.883126414146387 -0.9277620069247247 0.3955292543608414 -0.8308399023846789
Ni 3.7370277743900857 2.6675773930213875 11.342815740426206 -1.1786970474805378 -0.35638960804690234 -0.4579304423058823
Ni 0.8205696986775707 3.2196189540918567 12.740549709318502 0.9664735645623098 0.5996938715303349 -1.3129168600297776
Ni 3.064627974175695 8.389695816719215 7.848817500357842 0.3253378809474204 -0.3672481480279611 0.9235466832917966
Ni 5.749458637847283 7.8592974650694 3.6189249000929147 -1.3018919696741837 0.37598604212159115 -0.2104861885121472
Ni 3.0476090739731996 8.22358125478511 3.7160543235949866 1.3952045024861002 0.5174815623966378 -1.333010288345543
Ni 3.311086528432283 4.262928016293586 9.207709976092016 -0.39846519706071376 0.19082007754178748 0.4974881499938464
Ni 7.211001763976553 6.134006457041387 11.518879327865342 0.08972558679160676 -0.30932942133430597 -0.7699176129780095
Ni 0.7333613565117627 9.206161328287573 0.3881454055663596 -1.0116972122867998 -1.0786433392900454 -0.3454575345154309
Ni 4.59086635811922 0.24460432344533067 1.591213083445426 0.5627262931670503 -0.24159576543275812 -0.09237305171678285
Ni 5.905594427257997 5.6192838826437645 0.321142500267021 0.4555879102156348 0.00715435165659413 0.9595310718062053
Ni 7.7971532394359215 8.787647822672385 11.590716574360972 0.26059338958118344 -1.3439547031721888 -1.4955225200815727
Ni 0.018476504102254047 4.911214703138444 5.806249301600325 0.04435178664249781 -1.2420073775034093 0.21667997602768488
Ni 7.8222308773402345 8.823461429931132 2.5525664057843094 0.9073168516964956 -0.6306388978486236 -0.4577931453970696
P 8.518094765068977 1.6658600710391056 3.5403458975266027 -0.6884432104516014 0.07894186591254146 1.222046103890134
P 1.8734852449607613 3.2582540209710396 1.533466007980792 -0.002368500232176566 -0.17236727015323863 0.39278717283933
P 4.697865481744021 1.1804608453484309 8.099304522040539 0.7724308663181665 -0.5151541998150418 0.8674290143626223
P 8.417243358572408 1.5867149736991095 12.31153099909739 -0.3211737222674017 0.44943706012289053 1.343015993408003
P 6.342713340721677 7.748584471273292 1.2863620335682198 -0.24463249537655288 -0.252456619406662 0.32776191700788065
P 1.8657960914264768 3.145350564913698 5.865157412205892 -0.963766707154108 0.4369942063738474 1.139709867584063
P 6.925412359201409 3.858179267357005 5.7089891715024175 -0.03514749443541044 0.0933528991315489 1.676480874337932
P 2.421605608156185 8.454201775325709 10.105155885890849 0.0029274580594401195 0.26046637708501597 -0.02327645402943733
