# total energy = -340886.4227497205 ev
CRYSTAL
PRIMVEC
9.12804763939826 0.00000000000000 0.00000000000000
0.00000000000000 9.12804763939826 0.00000000000000
0.00000000000000 0.00000000000000 13.35982039745852
PRIMCOORD
 96 1
Ni 7.011591058814644 1.8774750756168674 11.367056289283193 -0.7764353594918693 0.3613312683228938 0.6915442179744283
Ni 4.894869856983922 0.7100607778495587 5.925881914642918 -0.24389767409305738 -0.8575302671916715 -0.6092794583362411
Ni 3.0627155374392325 1.91713644220974 4.631863423004533 -2.15946774539181 -0.4534942609113996 0.40239949911811346
Ni 3.7260781368417306 4.773056062465651 4.953928324614735 0.9702749405862708 -1.154985562796211 -0.029418562371433202
Ni 4.024063249022245 2.6707663038071567 2.2219119089606667 -0.13770571421531122 0.1111261639545699 0.6319910410011438
Ni 5.405821446489711 4.684514001257165 2.509441755480542 -0.6119606047128299 0.7857725777323952 0.11989851083056126
Ni 5.469087944039815 2.9553331860931897 0.40790506074469784 0.12539501516875823 1.1007892792594656 -2.0648462639604825
Ni 6.078814136054576 8.205859159661257 12.390084043752594 -0.7837079818938826 -0.08639189443268347 -0.4983420133537095
Ni 2.0729887260317685 6.6797774024239605 0.3820124410721218 0.41760268922111304 0.7983154473944122 -0.14148677852429828
Ni 0.9972118103962229 0.15072140829570965 13.428623089419066 0.2768052234543555 -1.075831066652231 0.6220344440090642
Ni 8.318590546869997 9.10472538578323 6.855966063376544 -0.451121646914165 1.2199154307003766 0.2190813863803259
Ni 9.087509888109086 2.615368183242796 1.2386997850876864 -0.2773024748057482 -0.2976684400566099 0.6735290123439304
Ni 7.241179710723491 0.6290466174533045 4.799489062553025 -0.6021431044017759 1.7627223592356804 -0.6468859558351053
Ni 0.84065757971781 7.61856058047013 2.6474085429384564 1.1961342691203787 -0.022466299423316145 -0.9453910328603977
Ni 7.66727697022989 4.057344110379579 3.6106119865878283 1.6499074947247778 0.2432361292496585 -0.3427907863165451
Ni 8.05651517374043 3.9348365842477153 12.631509947720735 -0.9219150612256446 0.1068229085935257 -0.15951972476660914
Ni 8.85858758367119 7.406662084707885 9.360384654291824 0.21554354843039653 0.639529258359718 -0.05150382430624678
Ni 7.47450173407917 0.8563706007656744 0.37991207733149573 -0.4001585256027366 -0.035960991475641295 -1.049453605099967
Ni 2.1796225774789355 6.95527100544801 8.894313848966435 0.6388967669820416 0.2638607474785456 1.5571729459035184
Ni 0.5230362116536155 4.971326383239826 1.3335356350800116 -0.9046454755119193 0.8407306791358296 1.0323724812479638
Ni 6.269353000556216 2.498985577015149 6.960907574808447 1.1303633933721566 -0.18807851024090835 -0.5497671619032208
Ni 3.8610454478756133 4.835793133258013 0.5184758390990011 -0.5815655373607403 -1.0495412797177668 -0.7730759561013332
Ni 6.417063065966083 6.062757900418934 4.721694364526692 -1.8545652494806062 -2.6170960830762415 0.3479936706737232
Ni 5.358090885865055 3.015970805949681 9.307880124799947 0.05194271161587829 0.15281557327355616 -0.34341067928873115
P 0.42302567150674486 5.7697293180565845 12.50694313406221 -0.33289229625591055 0.5524933025851323 -0.6117711144098431
P 4.012707957873446 6.561843028113277 12.504123480174858 0.43271691915473215 1.3353273665144938 1.0376962074537226
P 2.734790429303684 8.553838588258149 1.541830377670595 0.14164592980998186 -0.27553792670615773 -1.5171177297538452
P 6.434096002689282 7.993130011572211 5.65596007184172 -0.19129521740599312 0.5648330550974079 2.0720633505342123
P 5.03382612479596 1.4535685475218112 12.351246939853239 -0.1958365569197724 -0.6115628550537789 0.19668733495584192
P 4.315859544965713 6.426592747605429 8.26732378062553 -0.4958524141626363 -0.04438521098359453 -0.9625464615937617
P 4.7601763873764575 1.4033551579642982 3.745158494629782 3.3192697557400574 -1.9925830956196973 -1.2799797429821247
P 0.2920308867654328 5.849243740240823 3.5590960246453207 0.22626890526770063 -1.3527396484536702 -0.14828580372400268
Ni 0.6735038602275112 9.335162946113973 4.919045490912858 0.20327758657884992 0.1889657979418681 -0.7315783510781788
Ni 2.2881459347683872 6.460786413717489 4.564623486357103 -1.6559886679218514 1.4730171398902052 0.10143747591189627
Ni 6.4002400743364705 6.059024528972102 9.162084210960742 -0.7723784158136763 -0.17731844351092688 0.05562710244600098
Ni -0.2694307538431557 2.2797572590724493 10.098848264889458 1.7983714758978575 1.6480514153526455 0.07020011516416942
Ni 2.7457440863604035 5.349766106501948 7.171445078681394 -1.2101105287948126 0.09719849812988422 -0.9595457270942248
Ni 0.893565568911276 0.5086951361521052 8.800821647573068 -0.39706266028623227 -0.9492929390179652 0.49865003151243154
Ni 1.7385188078048295 1.1840173034510317 11.332346888484713 -1.0230368056693349 1.999108812553357 1.0061559707535963
Ni 4.4890003508422645 6.947968567410197 1.4556460911435691 -0.8186760133286352 1.8777180334479853 -0.2109479586399141
Ni 5.63513625697214 8.266807133134355 7.832408827188471 0.22547417728054714 0.19800733931884607 0.46288238699451895
Ni 5.554243499608265 3.2511458229574552 4.376636823949678 -0.36309813041532946 -0.10177583308792149 1.5318478368751682
Ni 1.015093655541318 7.68104206593117 6.8755384229273915 0.21189232483105444 -0.016406209272165292 -0.40897201012930856
Ni 5.249421479814847 5.018016346444094 6.9089771995072935 1.0158837395643214 0.14466106248722183 0.12703486476502637
Ni 1.3367386669643473 7.700311374303449 11.37926687848717 -0.025341821198898294 0.15472024649543678 -0.18618206454914385
Ni 5.078626582157944 0.7335390289458829 10.286019792650913 -0.14849586285227975 -1.2658073081364847 -0.4742006402208156
Ni 8.063078239926913 7.470594929728939 4.358133358766614 3.4897058703088546 0.8546948546254055 0.587075411435376
Ni 7.54419437710255 6.850389739129917 7.226594003547714 0.7852557859969767 -0.8323270284531664 -0.9846566632292397
Ni 2.7637811083138026 5.016738419787477 2.693527090366266 0.03854803547652716 0.749697943497025 -0.40230076875672005
Ni 2.56363040974489 5.613110278240586 11.27917509871713 -1.4875788397544638 -0.6624773825154591 0.31157270884252797
Ni 1.1189708366292106 3.3212766122631034 3.5474997530412735 -0.41409621872975133 0.06888576722812007 0.050349141876513286
Ni 1.4636459120139935 0.8482822378340416 2.397860502262757 -0.19728383088926024 1.784980399302932 0.9252865488010388
Ni 1.238347442452362 3.7488891276623497 8.463432579740513 -0.05772640817719091 -0.1380605264515687 -0.9042263856966298
Ni 3.807290375869761 3.190544715291153 6.985743166575049 0.16767757798705313 -1.0804521103640101 0.4034382247952729
Ni 4.25796946742095 7.161519239778496 5.7690775754617105 1.0104057471688856 0.190031263091905 0.5817036056005014
Ni 8.481946085775878 7.43990643387503 0.20618981482618398 0.3110304631858127 -0.24797904325128262 -0.128943651751965
P 0.4795054657054563 5.861192354480195 7.996199773962356 0.21807634215457924 -0.11187846873956217 -1.284203037034853
P 8.683548143904806 2.2873335385366804 7.731087499413813 -0.06684405420774295 -1.185062070466617 1.076822741141539
P 1.6713820180946843 3.486676833819572 10.543836931599682 0.5071956070895975 -0.10082761024203926 -0.23785558166403553
P 4.415108805947142 6.495199152970684 3.533940038409809 -1.057437651746708 -2.1646690870870913 1.3072360075949165
P 6.778999279262746 4.083998009217598 10.38305185088311 1.9090762360442928 0.5974413280507324 0.8874059717051813
P 6.855437549423556 8.112588769823288 9.799869108331045 -1.1083254397355105 -1.3747560048237615 1.5227332761684098
P 2.583903803347369 8.510306929505235 5.555320609218842 -0.8599355341990544 0.9624184206563294 0.9240447059741376
P 7.173769079586928 4.30595561337693 1.3705708623935358 0.8256912683042038 -0.9964729391378775 -0.6976744992418824
Ni 3.0048528440371105 1.7339730401262907 0.14995830352075817 -0.2586195536842643 -0.2179400736870311 0.570593868840585
Ni 1.752785946121207 1.8731392530319158 7.123041780952503 -0.41529075325848475 -0.6832421258666362 -1.6487265870427994
Ni 7.4863225556528805 0.7917184655978953 9.040884734042402 -0.9828404359561075 0.6931035920417482 -0.8450388195928801
Ni 3.0571474284354 2.0068560215518225 9.206238402556382 -0.19418050937358813 0.4737648382349776 -0.18668085856243335
Ni 6.465323053348481 2.184496954869176 2.23813062384265 1.4419127051759166 -0.7087711233756762 2.158502810375379
Ni 4.442118698639503 6.982536483471695 10.289479322671326 -0.23914730389226554 1.4911326185439933 0.883814140588865
Ni 7.629824591143457 6.139771237575221 11.236530686185809 -0.45434683871968207 0.7970206398423887 2.0266982921358516
Ni 7.560597478544987 4.32575434850695 7.976133587039201 0.45792607143050806 -0.6470690183801888 -0.8196905706360786
Ni 3.5940865693082573 8.792947793758795 12.246786476527076 -0.3432037054842476 -0.585045782599857 -0.14842464329471214
Ni -0.21873357776563757 5.018682693915045 9.785307134078892 0.21989102676581485 -1.0036080075207618 1.7113164939598786
Ni 8.863206375730107 2.604533190804191 5.609802273809457 -0.06955116872626087 0.39063207416954016 -0.47712527006677824
Ni 3.5634254575969893 3.216924772702753 11.648707673182628 0.5178528296931275 -0.6085243253377713 -0.04366530209843448
Ni 1.3473910984520074 3.7318379348440556 12.72533532284958 0.73761915795562 -0.46437774059312287 -0.031690646235061556
Ni 3.214779681529145 8.821755911817968 7.719598025966068 -0.17632368369782536 0.3543612647629639 -0.10671595070201621
Ni 5.949907848592079 7.954089352212551 3.414115245452087 -0.8113226582873576 2.156864760551324 -0.7956960074936942
Ni 3.5722340234801013 8.598137003005034 3.6288343079064367 -0.2527337843274486 0.49821140131311614 -0.33387085811909595
Ni 3.468292946059378 4.42740428599331 9.447156787080896 0.29498060881180166 1.069096833252191 -0.6628977578823293
Ni 5.155795096122535 5.008459280662106 11.680009573831715 1.1365157861267976 -1.196926426004371 -0.9565059118266364
Ni 8.09935310087975 8.942921614960383 2.3999042721085897 0.2732871829987681 1.0824244035990327 0.7800631860524436
Ni 4.977606479952346 0.36572526583353415 1.0338417523986485 -0.7496269810497735 0.2825434114897134 0.5621094855186577
Ni 6.25511324638248 5.953878549275139 0.30501005757289107 0.11249450505700627 -0.3906035349244499 -1.8650882604991168
Ni 8.219213493222908 8.734656082121951 11.416420770418808 0.6667086469879873 0.8306123597549051 -0.11655736227247024
Ni 0.13874997393746963 5.52166549791207 5.737401424863185 -0.2427103386531755 -1.0223793745909941 0.3240610711175258
Ni 7.359214493557195 6.3490499836914 2.29950578994096 1.6884943538590405 -1.184170669000599 1.2199606821160152
P 8.51767326387588 1.839858391674582 3.3775893631917 0.2823989154920491 -0.5455099292887637 -0.017430536771621596
P 2.1523479714077034 3.3052751449127453 1.5529592932402225 -1.0425525071047594 -0.1634036332020476 -1.1118897600480013
P 4.855299770866521 1.2628927623069615 8.08520280157198 -0.19734425181355045 0.2839546900149432 -0.6280281996986539
P 9.067446439600193 1.7577242198442784 12.52139831015806 -1.2708541265317725 0.5270216406765892 -0.8717446110188406
P 6.575078697056813 8.012983514987516 1.2136752427368553 -0.17716057777682392 0.28700556102612507 -1.0899042569158455
P 2.0182660809859057 3.4575401060486977 5.642948040063091 -0.6407783002754707 1.5303190589354678 0.5963707206943729
P 7.076418452495331 4.25072179766842 5.751709639393526 0.12624785008735676 0.024785948695428283 0.6687112792403129
P 2.7664099860074147 9.210565097093784 10.001027543349176 0.6378145896614563 -3.6590868041402596 -0.44463938162393096
