# total energy = -340873.61259361566 ev
CRYSTAL
PRIMVEC
9.26935086116077 0.00000000000000 0.00000000000000

0.00000000000000 9.26935086116077 0.00000000000000

0.00000000000000 0.00000000000000 13.56663194565312

PRIMCOORD
 96 1
Ni 3.761279993706934 1.7360937441873014 7.2056316223434 -0.8986553193667555 -1.2409141444392306 0.4936736613437626
Ni 4.721853523111965 5.22753367367949 3.3730174875153303 -0.9519715142913927 0.8268006993182987 0.412953877595192
Ni 4.6550863910128 7.3957089249708465 11.714270616889738 -0.14866786965376977 0.031831799798616146 -0.36068077922308855
Ni 8.87712726246308 7.8554594435029195 3.2261993170263814 -1.9906637671097975 -0.24790705236276658 -1.7848161058109262
Ni 5.633160454279169 4.3815385865731935 1.407008625854575 0.19276023198729383 -0.312900426515016 -0.11395694853514567
Ni 3.0493289850798875 4.018374700898724 10.819985921094865 0.5256198752330561 0.35061799567044777 -0.47242323660541863
Ni 3.7585177272394135 5.612971808754807 13.44419282747276 -0.4978167369778588 -0.15360978704007738 -0.8579195322102903
Ni 1.4297324387576855 6.559687659069424 13.49200135686716 -0.46017475825536874 -0.5900846305753451 0.06120151120998493
Ni 8.414920366032037 1.0967217504618887 3.951512094488767 0.9680306246367845 0.5981200992853118 -0.7225265252885557
Ni 3.1537482191625057 8.782088611149357 5.879520326584934 -0.2543543506500071 0.05024809752227476 -0.5148294694857714
Ni 5.20196880482908 8.850487148947462 7.118804688692687 -1.2289037502419158 -1.1037524756528474 -0.4593923715633895
Ni 1.59203876710093 5.396050466899375 8.984325447844231 1.1065976584111266 -0.12251023742179547 -0.3771821193122214
Ni 1.3596654178583947 4.285053916571776 0.9003431433222935 -1.6287588856716206 0.8349510963395749 -0.41610862117408975
Ni 4.655902093862268 3.400396368270752 12.675520808885805 -1.5763950273579237 -2.574669024260282 0.2853256022205409
Ni 5.369048848711833 7.430227986464294 4.529572895855896 -0.1420249104159554 1.1152219097450278 -0.37105363781698036
Ni 0.8158113008707675 4.670890633721265 11.194139548795821 -0.3981602642257852 -1.1685134220793165 0.8502157358081294
Ni 6.635307020955443 6.569550248067551 13.279018562065586 -0.7922337599767065 0.05117960819760863 0.43700011991111837
Ni 7.951666032987473 3.6078444338516666 2.0870498951714205 0.170296503667139 0.3159474408714559 0.8481488259767717
Ni 1.7463271072079152 1.6343162750148958 8.760489170469436 0.9978988729511264 0.537604558398758 -0.04158322275842516
Ni 1.038621461138333 2.870180246765216 2.8850529197421855 -0.5029142061054243 -0.8373674190905513 -1.1034884233581834
Ni 8.597508033405266 5.065273692089056 12.980105179812657 -0.5068495366040885 -0.19670918933271284 1.040819840684369
Ni 8.322106358853231 2.737795382036592 13.424182153479192 2.643229289828183 -0.4305389376668069 1.7170117445724429
Ni 8.030872633541044 9.249477074544641 0.4387109466261046 -0.22720787214220226 -1.6648851990805327 -1.3206129431224547
Ni 5.92927912733761 8.180099908241095 9.457760308611205 -1.164391172380827 1.2177780726423995 0.45845674712299755
P 7.189011676785467 9.004608640744328 7.650833895168179 1.2196326093526348 -0.4620064121474688 0.99211543350013
P 0.31374527008742464 1.8609797043111471 5.569387322411578 0.405024081225154 2.1705137187933263 -0.0793118476574505
P 2.477206129682872 3.6501868272195677 12.857124071229334 -0.5864812294948029 -0.6516913476435485 -1.137280432206964
P 4.315809621736989 1.2347331109817383 0.37547729096123045 1.076185364667856 -0.7719582975571221 -0.17586114223911004
P 6.666637425855509 8.210336529774827 11.569758660820654 0.6664937027637038 0.8541140424212709 0.15904741311588091
P 2.6696378473531035 4.52923641843049 2.777998409294748 -0.6524907036163924 -0.980304556908131 1.9177441961319357
P 2.4945768926363407 8.507780719963655 3.3241772794033624 1.174278349587552 -2.584536146862349 -0.08913371884387876
P 6.561624953336913 3.957243333941345 13.143623939209432 2.5698813730636516 0.6848629492995109 0.2488455050166359
Ni 8.599658522735686 4.269203327110499 9.185369319121756 -0.18739793923411596 2.214371339408225 1.1408300972314351
Ni 6.0844387863974365 4.627955001917387 9.021050614771468 0.9838251684668798 0.6385884917130034 0.7385403842183087
Ni 2.900481753752884 6.528320176767108 4.5221518537958385 0.005859801214886683 -0.04714323334470591 0.28434138393040065
Ni 2.0129970535304054 6.883558767710941 11.216863361698932 0.7742874599109311 -0.9234404967312355 0.0839092372201458
Ni 7.157523692925843 6.279966467155427 10.314262204579698 1.0125335921451657 0.5650428571153688 0.5291571989623531
Ni 6.826116602277298 1.4006266779925347 1.9510713032298503 -0.014419003638807425 0.1108474563718865 0.12291904282443993
Ni 7.622520663876092 7.774380434135794 5.714794697744967 -0.5535844787667822 -1.1437845518740688 -0.5946074581463631
Ni 0.3110710624502444 3.406866374963133 7.207340890587062 1.1857225868687515 -0.46299345865108643 -0.45593346648051153
Ni 5.561026368204519 5.079548491954767 11.474738548208055 -0.23244238106826418 0.17966817469002608 -0.9071615570655537
Ni 1.5325295364919278 5.554389513202019 6.5731958836436455 0.11477970154675717 0.26676609405079865 -0.06444650050984385
Ni 6.472537225084091 3.266546946153308 5.760052301864664 0.1810383155646753 -0.6174388542185817 -0.601075839479526
Ni 3.285187610133791 8.318343002524998 13.523272437923628 -0.16779893405626584 0.4740466311414545 -0.03558123953871937
Ni 4.975277567481143 3.691880366048118 7.396418957223907 0.008916071542707224 -1.5639017799869195 0.4491717222766458
Ni 2.597754033743631 6.520042646715108 2.1634840329718523 0.7208676495288939 1.1435557236927145 -1.4847565398143205
Ni 8.623508561732097 1.4548245707294254 8.544250979750435 -1.1681388123487173 -0.23444141377616398 0.05473672942124767
Ni 5.167579514243505 2.9182510987805257 10.159059906507286 -1.236998097214276 -0.7674043596378526 0.3914327156939646
Ni 8.296541490002822 8.584901716640742 9.816543499210004 -1.0419485549721732 -0.3742423199576071 0.5553652248162888
Ni 0.9850816922913553 7.915450680341153 4.793958874199873 1.0202075637506558 0.40770137094700104 2.9272703689093458
Ni 3.4316062716135107 7.894974684949363 9.106574277733145 1.3999854688145115 0.16381680948006627 -0.5341816487601381
Ni 3.2620420417801026 3.0625007322287026 1.3330883359265984 1.8338113047627063 -0.3564906524011409 -0.4305919023919294
Ni 2.8676497140617494 0.8454231681766116 1.9886103191364453 0.38283237561946326 -0.253698205123247 -0.29404729836425486
Ni 1.6937976975722118 0.9422387539930985 4.126060454119443 -0.1645205204153102 1.3770861956188347 1.1400726502401204
Ni 1.4177564378313878 8.57316671882906 9.789627159047631 -0.8079953936863374 2.0395946884825453 0.3835754244330749
Ni 6.462730252189336 0.8937007267094569 5.375954514880634 -0.6695404600098275 -0.2828694273705645 0.5583376771810513
P 6.819544632728733 8.995839835112534 3.5792299486663097 -1.4054503485838248 -1.7678005450895362 -1.0032326264592142
P 4.279065916108626 2.1563012132212425 5.1706634271755325 0.3404976194069942 0.5617934969401358 0.048994170510515626
P 5.000619971918061 6.506175698274133 1.3009311049563879 -1.2827084547671972 1.2148423870528435 0.44477436453989855
P 6.713836958917976 4.6274266489353435 3.8226699755449967 0.5859376982865071 -0.48499927349821637 -0.2940503836880484
P 9.364361405411927 5.949541927666469 4.980689941274382 0.06180983421794516 1.1971575681785704 0.5636395490099391
P 8.675917469810493 6.823502645418772 1.055893968975843 0.5201516530296332 -0.0568144378858828 -0.38993504810251556
P 3.8809380401137266 1.0257092558052583 9.623598259518628 -0.06347642328709067 -0.2715254631126549 -0.43914647683015984
P 9.093807601203896 1.1302211833934983 1.7491051315713912 1.2370610892417275 1.67947620952083 0.5340057853039062
Ni 9.033547553199359 0.10000238853975409 6.517396247129615 1.0653203969288942 0.3408799424470775 -0.20991360383812882
Ni 8.919265730118614 0.8692815495885291 11.6415942738072 0.20950479843548434 0.4098269019304361 0.04616004349583018
Ni 5.464949549627835 8.727232594522555 1.4845828937741514 -0.5750776156435515 0.3506102823609639 -0.008570258167514274
Ni 5.472281605922496 2.789453472719453 3.4177059535105108 0.02032739870344241 0.2659446265907678 0.16172933082341823
Ni 8.685094126867021 7.330573198570619 12.31211128542144 0.628590242849711 1.4102182022861132 -1.1920883811857792
Ni 1.7512491323564168 3.527608935385697 5.0514540173359475 -0.5218125856718239 -0.33031887910177954 -0.05931689259276236
Ni 8.123241711892867 5.473069500720278 6.895986186009615 1.8440455808962046 -1.0944697647993409 -1.2073584199709722
Ni 1.6661564941958806 1.498714945641205 13.498391647144706 -0.8355365365293997 -0.20795545167049348 1.4507943239362626
Ni 3.6733880116766287 4.460995459591943 5.732688252070141 0.25067587335715535 0.07705596174373826 -0.7297968336977237
Ni 5.789163624240152 5.532152341203422 5.834167248154446 1.1452778485901438 0.14720414062404968 0.0768466739464096
Ni 0.2383539342252347 7.640568089420598 8.059474141635613 -0.41020819652925483 -2.2092592149926404 -1.147759991582049
Ni 6.684657043348329 6.6202072488897 7.910797466358954 -1.3214974026099369 1.8615817900077554 0.16979616699195277
Ni 4.433882609197654 0.4684766851512803 3.863926001027013 0.19019632791485952 -0.596076843603038 -0.38920845434913615
Ni 6.054202164863704 1.6585370880337935 8.065606743967532 0.21385613342564458 -0.07637590495757814 -0.46478731732671563
Ni 1.1892205997215823 8.383654846585905 1.3515046816234777 -0.9464508415834798 1.186397501448589 0.5441814402853272
Ni 7.407592232391523 3.151671884636584 11.245435207871703 0.8515791918145591 1.4325394914911331 -0.997484154011211
Ni 2.20621666599842 1.6327775628215788 11.32167932398561 -0.25553345855977283 0.6492464856474819 -1.9995153039631564
Ni 6.5841494752029375 1.5842339739276 12.815026388716273 -2.017831585773841 -1.3205918600765323 0.2763151711918144
Ni 4.548887441622248 0.9025381255354105 11.726643346020095 0.07302421487652584 -0.4324598088386036 0.033082127265949474
Ni 6.691349514454201 1.2352243865615322 10.2367963880617 0.6969761876232771 -1.943041280135828 0.9732404509724982
Ni 8.572554941691958 4.002848538707123 4.972861974724647 -0.06748605866711603 -1.4555578067631771 -1.3958832737206799
Ni 6.831548441706718 6.860098041438139 2.311984590587831 0.38997258620867037 -0.6074668306075345 0.8621788217072764
Ni 3.9791282706185807 5.5887324570347845 8.051537723684302 -0.6508925058913371 0.20587697187490994 0.7827723574534906
Ni 0.5222509685674805 5.267011837723686 2.9243688701515445 -0.7696479042563906 1.1214030988550752 0.1352726792937864
P 7.454115102862953 3.3407202893516312 7.7483641479130085 -1.5379470077943707 -0.34634713620923574 -1.3305816242993924
P 2.638261095700226 3.660253341930062 7.608817782940067 -0.73269266718828 0.5789831213455449 -0.31881627777881866
P 9.298178242398176 6.351544392196349 10.119757860123771 -0.16108886902594194 1.3984057830322174 -0.2503087198257237
P 1.8470849478184843 9.014424882989644 7.573829692308174 0.04887898508889001 0.18239688647509877 0.07653711312579077
P 0.22308082530398035 2.6544175737300533 10.130054254728206 1.0353485331571524 -1.2507930941158394 2.359854897796742
P 3.9164952688701336 5.938687518158192 10.164988583126837 -0.22357824580941493 0.5465702522324781 0.7580905384360944
P 4.1083615561560745 6.797427962287443 6.3619223570857315 -0.13294068872650008 1.4405343367711514 -0.9669235076155348
P 1.531055709752546 8.88781482366124 12.027185353166795 0.01612904435137867 0.09473718107358522 1.0147357420028071
