# total energy = -381176.80216767546 ev
CRYSTAL
PRIMVEC
9.13860337944259 0.00000000000000 0.00000000000000
0.00000000000000 9.13860337944259 0.00000000000000
0.00000000000000 0.00000000000000 13.37526979000393
PRIMCOORD
 96 1
Ni 3.409092093137278 0.5873956249175554 12.402821384893919 0.3019662961010155 -1.4995128721878885 -0.9052810522133893
Ni 2.4533586541383348 5.863163558354402 2.1649744827277866 -0.8154148260788602 0.34485435371379314 0.05587187146695539
Ni 2.627997368441655 1.250060444313806 0.9582712292115039 -0.6030159939250324 0.6378544417604562 -0.5869638255581762
Ni 7.957466478061683 1.2314085544188256 5.952168987865505 1.8895065414424812 0.11352346054215288 -0.7754984494998967
Ni 8.503735645314181 3.125320174950638 7.7678349707345 0.25420908332139447 0.8401102719430111 0.7531187962531158
Ni 2.8326289796755604 7.936858927001819 0.7685647853350122 1.6324335063097306 -0.8667612988716363 0.8783867989257066
Ni 4.840709174660088 6.157216405562038 1.6020492966009168 -0.9088212041561639 0.08884498395886635 1.353147168304734
Ni 8.50691587935801 5.237936856220653 9.548417854482068 -0.45606922072742745 -0.9145419086900249 1.9183149810337412
Ni 2.2157915156229446 8.643291260496076 6.186169329405877 1.7232322715608581 0.8627053836347077 -0.20507093103384685
Ni 0.9451600746635723 1.4856810602678876 6.977183094420957 -0.2196565421575056 -0.5019898945189419 0.6197320211281326
Ni 4.021945126031535 8.357965779701818 10.054043082338229 0.8327800568301852 0.7413724543504652 -0.29524183289298833
Ni 2.057721089599683 3.530845708556594 1.1725294454504918 -1.1825537022224666 0.2748218744757396 -1.0708747510882202
Ni 4.7580413667277055 0.5698604723793446 1.4749980326896257 0.6653233366046865 -1.8703497660083723 1.4438299768032874
Ni 4.067418817416847 3.948836297437785 2.124380805651107 -1.479449011558478 2.238756967341441 -0.3290472114782075
Ni 5.486543427853699 2.597383046468022 6.633545098079968 0.476156992616238 0.14973719145854858 0.07092002404932948
Ni 4.864286771881572 2.4748709269520455 0.32448805255121416 -0.7555672577936084 0.6649703241406418 -0.18554494518577724
Ni 2.844335530854135 1.9324765276150155 10.45326846264012 0.10442381223372985 -0.2026836617485929 -0.2293143769622438
Ni 7.959349030397972 5.329514802637899 12.07594267364769 0.4244875892664044 0.7816184463547055 -0.34099461364807077
Ni 0.12045045054963256 2.6816501100258927 3.0360661754223157 -1.3988570116370231 1.2159561889423125 0.6127514760452415
Ni 3.2322875297868685 5.273604825970829 13.31126986127914 0.7809525306359325 1.374667301764697 -0.058948453509750094
Ni 5.639286047993191 5.240011319232001 13.031231062652568 0.23558272646945877 0.09369305607978702 -0.4624355292650874
Ni 1.0908933858616383 4.155752559565245 6.738795309304604 0.5733662893793996 -0.32217748094156773 -0.5905356020698346
Ni 6.09011163951655 5.297849541253231 10.568630538719626 0.2699684030381802 -0.5565157934809641 -0.4999790347365002
Ni 4.921796004174131 4.3042548676463 4.522660182187268 1.1299959827304087 0.6592113101696776 -1.2924979300537933
P 7.895652963485667 1.8485384537858165 12.911830637653614 0.16918578710146348 -0.3340413222586892 0.1011202017817936
Ni 5.915445509402507 6.560831971020983 3.7030233969173767 -1.1107816145854872 -0.1778087528837841 -0.5393089426843743
P 5.090019418768349 2.3810722998662643 2.795003521039787 1.3382941624523015 -2.2026447949999164 1.152132923838764
Ni 7.524369777472309 5.976189807360339 1.2516487336150053 -0.0178820224867434 1.0965942673415112 0.3842837633540091
P 3.265213918464778 5.968275776665066 4.202764277932099 0.9559955478491214 -1.0710971515116716 0.895169160590368
P 8.880876676218614 8.612064652082971 5.005172967743872 -0.1157207253037878 -0.12613703554110534 -0.2684756205427376
P 0.4330793372425831 4.6405372019704005 2.1263337252349173 -0.328124442553622 1.8787097079372934 0.17573798639768443
Ni 1.520828129614333 4.0333592418957345 9.760897698465513 0.22216259640881095 1.394230311498289 0.09672798625136889
Ni 2.159250975309253 6.152482608910592 6.319093059973962 2.2565330603779397 -0.27611822468965996 -0.14039020302600982
Ni 8.028153576708265 0.6640173327252349 10.880969731679274 -0.6315657805382671 0.03535164002641654 0.08997446957761923
Ni 1.6432945561124381 8.69279507605762 10.548888413418242 -0.7920064744572488 0.23446763902840909 0.602209181753021
Ni 8.097150033693616 7.134288483906783 3.534441749063049 -0.21365995825443845 -0.10660333638355189 1.5743407159320564
Ni 3.311409559532454 3.363600124544817 5.697049333465113 -1.3686758600679525 -1.1676058226633825 0.7821133837132531
Ni 0.2588564294018901 1.3242841825436107 1.348334245569882 0.11633907561407707 -1.3447936541337162 -1.8045081849232147
Ni 0.5059706670712665 7.809055556016371 2.122000199420023 2.1053974459099676 0.8041562224459052 -1.7145969644833632
Ni 4.476608931056065 3.819488502448293 9.211802874987866 0.8242817895511868 -0.009104790514745609 0.021159407686434525
Ni 0.9377121127505841 6.398512094335709 11.113712601367833 -0.0844342564856804 0.5898285487004811 0.12449178662819851
Ni 6.893376616483228 2.8085213434467717 9.752323860592181 -0.7742712619610149 0.2720720796447443 1.0816579577466532
Ni 3.696912412707297 5.883378149460573 10.465440168740622 -0.6919309118898858 -0.26121225411210497 -0.06498051863644293
Ni 7.477717206225922 4.782039339713604 3.8616540193397384 0.8509176469711603 -0.12424521783503119 -2.53893120453904
Ni 5.994896528876765 9.070731165473008 3.647329091294658 -0.33196207113215737 -0.46591551739388787 0.057705582241584494
Ni 0.8054710358694945 1.3116729096111885 12.371669713030123 0.5434856997698834 1.1102080014702043 -1.16941639350956
Ni 6.376332703461081 3.213169571109603 12.130393215323958 2.9853585313013293 0.3812210652682854 0.10618938877458486
Ni 6.669124423375474 2.1995796328822803 4.443438541662723 -1.2818350510233087 1.2746950975444176 -1.869888767211554
Ni 2.4623601786589404 2.703838639504096 8.162807244932948 1.9958545672821177 0.21641592373302082 -1.0796311571246118
Ni 2.5419848316011078 0.19900862845468903 8.505641958019764 -0.2763239129425628 0.2821178939165206 -1.29682561089487
Ni 6.306943286522038 4.096890813943702 1.8277170594023164 -0.051810299803072064 0.11226747664786471 0.36750525834408965
Ni 8.448410539275862 5.6265559732143045 7.445411328730701 -0.10154314825182512 0.45366318238909614 -0.9505314394107567
Ni 4.8005632891585455 7.344713969806743 5.607260725627699 -0.9879571883573823 -0.29471347119334407 -0.7332863349082209
Ni 1.1009824042075758 8.269038028321095 12.85289852478455 0.22224512882028818 0.017480416172950538 -0.565729084549116
Ni 5.585742969651844 7.4279940641785975 11.737574909987952 -0.23748945657386838 -0.5097826510904833 -0.21521856099081
Ni 4.942988425862744 5.047022288951649 6.827419659046662 -0.2963132115802961 0.39860557929331997 0.9183954781081602
P 3.7833361867086834 1.3004598430256225 6.658303402883242 -1.2929617570640894 0.2679747696469192 2.2018837484641756
Ni 7.166383259659439 4.3062653604326275 5.920403201841521 0.02737762068200446 -1.2648791398952601 1.6442664943889165
P 5.902185395616316 7.553695556341977 0.5947997215333874 -0.4370700539171053 -0.9304665503400815 -0.7948884239907342
Ni 1.6557504727840981 4.210346577317628 3.9016198743508688 0.4899363057885176 1.3364910478052918 1.2428648404076983
P 3.2237520740485484 7.51486562975512 11.86001209295462 -0.9582619752857948 -0.5846431478447995 0.997875733022675
P 6.637541409422975 4.2628113004372175 8.258212438527076 -0.6283585864548792 1.4339080897038854 -0.5982993051756536
P -0.0406393700945507 3.0448730476867905 5.1970151032756595 -0.48337613607249647 1.0992214205517135 0.6469314643610601
Ni 7.0611248236915864 1.920596342968531 1.723296633382221 -0.2874886713101307 -0.8297091312143453 -0.6804789612992023
Ni 4.234554738185733 3.591206185164309 11.696446624602181 0.015550289029773219 2.3438744632080857 -1.598235520271783
Ni 0.18405970072798203 5.774555658098777 5.025396697453618 -0.8125544738119296 -0.9470403955383625 0.8035928937432676
Ni 8.090067615923596 7.791482021343148 12.722088553223182 -0.4686961654628186 -0.8898662603202159 0.08995390075232895
Ni 8.332140086001077 3.93842742796675 0.5687903419008035 0.30483976099406856 -2.003459633322885 -0.728025600729914
Ni 0.7508569131892485 1.7170248097492347 9.396929964613316 -1.6206288003653186 -0.7590778420500282 0.4685192735653221
Ni 1.3623281892230832 6.718929812854967 8.693965731175476 1.1052802251512837 -1.359587267503123 0.5906901253698279
Ni 3.9260903131415543 0.559836338118784 4.797441542177592 0.46249286486558416 0.592731838390205 -1.409494179635895
Ni 6.169919064530202 9.16108453901131 6.271691123234489 -1.9353886486865768 -0.4882458054599721 -0.21623620362204693
Ni 3.9140456336307343 7.486810116782269 7.766042890573595 -0.3056982523396219 -0.7653590470730497 0.3734581334934149
Ni 6.146158695237233 6.63384941357899 8.410664451072908 -1.6104408040887233 -2.147534484289334 0.5654719742329875
Ni 8.248019240100392 0.5481672552148641 3.215374716152062 1.0131563133308292 -0.049724106698004686 2.5617379180209108
Ni 7.840099392357991 7.329278868369887 10.473946380947504 -0.1536051590543871 0.29343434737060436 -1.1001434181453504
Ni 7.119456530305825 6.761661923168013 5.854730454976113 -0.2730681250094265 0.7308504717732187 -0.16891967792427037
Ni 0.35637446814237816 7.58769116163807 6.738809017209965 -1.4384149764353034 -0.09017758672736081 -0.1907365166890457
Ni 2.6455160714934323 2.300232212648726 3.085808508537146 1.5430740446082907 -0.9339303405189657 0.8394430706726576
Ni 4.639376599316475 1.398964850952126 8.760922451843062 0.10821336118314913 0.29541512524605895 -0.5143090782059272
Ni 8.810628230543596 3.2436559526331963 11.093047477105452 -0.3419875736889594 -0.529990493496926 0.6260582204564765
Ni 1.2606886402706223 1.3376813753834154 4.732170893869449 0.20447957730675106 -1.2878437191112335 -0.7257640583892468
Ni 0.6319316955761529 6.133044799108229 0.32234230843198763 0.46438648234387114 -0.9169543747862594 0.4092486608294629
Ni 5.182611750182333 1.447975181920661 11.238556892515952 1.0401225575070279 -0.8799623709429426 -1.429526672806738
Ni 6.307418493907897 0.15796350436144302 12.991894857427702 0.23736115852612025 2.9941707302763207 -0.5519963083440558
Ni 7.140274269247895 1.404228686610876 8.014395409027278 -1.1708325571307965 -1.631150782942565 1.0862643461704131
Ni 3.6993981128794844 7.922867724929691 3.2954526438315104 0.9655268843783242 -0.005085899163339628 -1.1194454609080722
Ni 7.497173293235434 8.189605286053988 8.01292409385183 1.3094492131961513 1.1348630810147229 0.13404497753427239
P 2.026037551007867 0.2597090611153647 2.65911065817044 -0.39329213750020653 -1.5725777104943628 1.305885921324925
Ni 1.5932515629400161 7.402058707234965 4.189429227596599 -0.7015892609152562 0.8202742110536906 -0.01107708374976802
P 2.6094734189967137 2.699442971184897 12.46601939791143 -1.1275225814892518 -0.923587563832061 1.5536057973775501
Ni 7.473952101553344 8.336261596213049 1.6790246683669183 -1.2589180372158189 1.1261820083009573 -1.0411373719247876
P 2.983717512568119 4.985044279511298 8.23435154459479 -0.4378683814486846 0.8011811989779815 -0.6624475577187882
P 6.040717487197898 0.005412794897009755 9.551493908445151 1.4764585614715862 -0.7727903065401142 0.866280759690792
P 0.39714360640768276 8.593092911062893 8.648396084452635 0.06538161072960354 1.7267284576395745 1.233516823533895
Ni 1.4866314750396061 4.455252014503116 12.150697364745158 -1.0618069844589972 -0.8620826624490444 -0.15747415509149007
