# total energy = -340860.037070536 ev
CRYSTAL
PRIMVEC
9.33609402252297 0.00000000000000 0.00000000000000
0.00000000000000 9.33609402252297 0.00000000000000
0.00000000000000 0.00000000000000 13.66431730881065
PRIMCOORD
 96 1
Ni 6.146604269922883 2.0346710028857835 1.0019309461846437 -0.46617288482033264 0.4086477940206704 -0.33288689693927187
Ni 5.540701099192556 0.02055807919918919 7.108915633592722 0.7464701805883467 0.372212691122088 -0.8858028888841195
Ni 7.9763946878739675 4.503489053419477 12.73977632707887 0.015012414248432209 1.6474490058819562 0.21101660709432044
Ni 4.825201519870366 8.235219224494822 8.96774130418208 -2.6043614091183924 2.294035942419404 2.316339233902295
Ni 6.4317379197060065 4.592863482199602 1.4130271775097563 0.012813349714584383 0.2719111285868479 -0.3338865418483798
Ni 1.0205004373414046 0.4064580597782654 13.240504663381158 0.1124857633062579 -0.47175012179779396 -0.8289923076529787
Ni 8.03595896820586 5.980748558309078 10.35182752360393 -0.1526682490624145 -0.6411331125117281 -1.3880828038396547
Ni 2.70911044037417 7.6164229078180465 7.492377960003357 -1.9611307906476874 2.1532289635709496 -0.579059483109435
Ni 4.930568677836783 1.8292022440230424 11.134096047071825 0.6365370085006135 -0.8646648213539238 -0.003143944945620392
Ni 3.8932352628404567 6.883427488160125 5.454823037651347 -0.34070999252811646 -2.114628220479616 -0.18531483145284214
Ni -0.049394473033219914 3.0817886444946216 3.9563257859123735 0.1703119302861067 -0.395602530800938 -0.03559435216484192
Ni 4.337437283829658 3.699352596750737 3.065972367486744 1.0209220733191773 -2.281365288930271 -0.2206081074374975
Ni 6.362734848243151 7.305092178001805 7.985290118328549 2.2694199436429363 -0.6946321128711327 -1.9881428004601567
Ni 2.9050003666945097 4.763583298837375 10.21432366254058 1.4891243298647128 1.6220444497659225 -0.8322419249385279
Ni 7.265507139035157 1.128920498077183 12.594866142569236 -2.460209939277737 1.1323832520156625 0.9034933641853472
Ni 6.110436241395335 8.552627751567499 4.33236778473558 -0.9498236147104544 -0.8108007243456166 -1.0280915944844229
Ni 1.3854296833622526 2.744727639350059 0.773662511930286 1.8219482347765334 0.07106889092236793 -0.7675498840767814
Ni 4.736275223606843 1.8302292143735923 5.414663828897799 0.8783688012035775 3.2867818104146815 0.9679164676564234
Ni 4.043219614491217 6.2440077396254905 8.228734373535804 2.0758829813906186 -3.998417656932663 0.22491984743897395
Ni 3.014531422627701 4.808023106733896 12.748794060366109 -0.8915770723637355 -0.5382049109869183 -0.7888406751347575
Ni 1.3803041677035992 3.827583849158032 7.9460598509375435 0.06466941515392734 1.0986542351943338 -0.9413037501649015
Ni 2.630369822769283 7.040507271323777 9.98704485426039 -0.3968772837483036 0.046342848930597605 0.9739408194736324
Ni 0.5294302903813355 7.5343866489973035 3.536420949807772 0.3941395731021664 0.5773291306818896 -0.32514350554842714
Ni 2.815663282290767 1.9239822712846997 12.460190184407537 0.2062382118690706 1.4399206144465524 1.168950252506419
P 6.455909067320311 3.2689399867411915 12.109071822382765 -0.6854463326068067 -2.3046795381761793 -0.554228282998368
P 4.010263202332662 2.6980938493409985 0.689719822695159 -0.19618519850844277 0.4799092605698187 -0.3602334072730248
P 2.4900950089782667 7.5243783561264905 12.238159194618655 1.8940455669634155 -0.4352841656612762 -0.09506525383696532
P 6.468979599054582 9.290580637190347 10.993585963709593 -1.16207383710156 -0.5120958726046921 -1.5618572387530651
P 1.6059855702839807 8.41252098747021 1.760906848492657 -1.4296734827972475 -2.6275165070786164 0.8399413504653147
P 8.651263585690765 0.6798655753769283 7.908770557509078 0.3939585674396119 -0.8409605357584485 0.09253734520878902
P 8.886962617236057 0.9538967420611977 4.376872011681364 0.287053383544925 -1.086832045748425 1.2708266157279469
P 5.810308824494185 5.953515171831316 9.60788740083738 1.146743634502393 0.48159487580235777 -0.12315198477085243
Ni 6.825048891778414 6.318929894745151 3.1388984656887 1.7435920661641326 -0.21129120091194578 0.7038364050782201
Ni 4.166259998581187 8.688337215345616 11.118614002232583 -0.4695754827439784 1.5473767857487029 1.244654071097637
Ni 7.74529835071796 8.535841454383057 2.399167054140581 0.5855085811688884 -0.6248063503272464 0.6872062527207068
Ni 1.0115938035739085 5.237109991381823 11.373194350477435 -1.0261712375332588 1.444952520443505 1.0006898054327025
Ni 4.661829209286074 6.498957797196543 11.28687655890431 -0.1640230119536014 -1.1358658112476243 0.8293833724438103
Ni 8.201796007631472 3.1450686902766853 8.009503278366285 0.41571241417693566 -0.16199903954503714 -1.5854535380157664
Ni 7.49805057077603 3.286725245993896 10.188196603213182 2.8478237954462435 -0.3972914884675867 0.7642197912622839
Ni 8.039413323021344 6.965855862932897 12.375457661611893 -0.6034733931774252 -0.8112457823028351 0.2732825550130777
Ni 5.370364062412716 4.821597787549346 13.009140380324595 -0.4902558939114653 0.1915836951806894 -0.5815760788837017
Ni 3.8723410842538146 3.747928294331746 7.791312224079051 -1.4277222726081478 -1.0467593460972553 0.05016068001479103
Ni 8.355234714097719 8.53546801061922 0.2114522615688084 0.27352115338644506 1.0041600233694898 0.554238310300697
Ni 4.788230587250571 6.902585153244929 2.689615742292505 -0.17340908115419168 -0.8801891422417679 -1.3564134977608318
Ni 8.839675300640282 6.019175921607836 1.5839673259681915 -0.2368173702075083 1.5837362982143435 -0.9251621074080325
Ni 1.7011297052153782 5.164951320114551 2.465999483726138 -2.1377802331160476 -1.3447676859917872 -0.29871076527819523
Ni 3.783918937071471 5.01460286079405 1.2459166948494624 0.34209581713204956 0.4837111508144121 0.039632012569325296
Ni 5.45255903483309 9.065141973056459 1.738128646117461 0.26652261058142485 0.47883042568334316 0.7804192838402817
Ni 2.5803096862270247 1.2267534281082018 4.285266256412315 -0.5608475880870987 0.0476386849238857 0.5309477152038727
Ni 0.7811556610516617 1.791260357617273 9.193762540587553 -1.5985419957686084 -0.4973716790206402 -1.0077315427708322
Ni 1.4921319027843838 5.921314983294529 5.844420111492403 -0.6334254594548252 0.09413477160289595 0.22904106869619906
Ni 3.136712886060848 8.056769121945639 3.5283041496007894 -1.9748537966607345 1.0326838418407958 -0.9222863285221341
Ni 5.452232271539733 3.973273597524675 10.239000826454884 -3.1728276900930132 0.7442286928523376 0.43236107847721017
Ni 5.975473665144891 4.36604307613952 7.941700828604165 1.6704554940794585 3.309887028973577 1.7008266501721483
Ni 8.13041223217416 6.936671232789088 5.225153255673193 -0.980636229215937 0.37724202601587936 0.8894330294375393
Ni 5.944701899004778 8.29278558069019 12.89015186107225 0.8315790945435486 0.9096624691105365 -0.8424957414560522
P 3.3339098655546144 5.530095296299604 3.5664551645143074 1.024213085365623 1.7554687629970607 1.153707981635368
P 6.805237700106898 4.0080132036555485 3.376069799272915 0.540545643304953 -0.5221074912044233 1.2972195038991787
P 4.839728482283599 1.07690911786888 3.4456078289274656 0.7743350253194148 -1.0734677086263769 -0.9331965476767348
P 0.4112969573481745 3.978940606640891 9.840740790902236 -1.7105919570890282 -1.2156440570185323 -0.033866570840457806
P 1.4164535240429543 6.07679829436778 8.488506523707393 -0.5075113385578034 0.6462051277179968 -0.8548406361746503
P 6.051600176402924 2.574231888970589 7.149088846487414 0.5108779410371911 -2.796714121254622 -1.1723667343871358
P 1.946827693537386 2.8224319505103006 3.113564974359454 -0.06958176485388017 2.1326956195042883 -1.7160534944242318
P 6.077545181895452 6.607256488709074 0.3856703126643169 0.7180803165917439 -0.8790473153278409 1.3223826334283677
Ni 9.31452771854635 2.609064856042421 11.924385208977515 1.0007083173754638 0.42680698142820045 0.35454895529373776
Ni 3.7597571255512614 4.292894778898082 5.28833713968607 -0.6015862034570413 0.03527116449746829 1.2410532411202562
Ni 2.6755191738170936 0.6436620696918166 1.220155610410624 0.570985447852049 2.145939114777756 1.9802081189941123
Ni 0.679384766530989 7.987373934530755 11.37245586543445 -0.710776583841479 0.4907068654059548 -0.08518013351276943
Ni 8.530771955288978 0.6838315481488699 10.844207524565658 1.0824331453497809 -1.3098148240656862 -2.403089540115661
Ni 8.082602094309015 5.931706056023275 7.680740193654166 1.7883876252122684 -0.9274120797844737 -0.12009108645734155
Ni 3.3855851463754645 0.8075982803595018 7.369317036506376 -1.2353690462512852 0.7544678540818426 0.2173934571549417
Ni 4.039662562640676 7.609952994609583 0.4151574322568324 -1.4728644163624247 -1.4186120827767632 -0.07300236049965492
Ni 6.721857043736343 1.055632159424306 8.87230961755253 -0.15442791206599857 0.5005374783431314 1.0011677735103854
Ni 1.7476421260011912 6.508984762255548 0.3582856814621998 -0.4251676460525646 0.9798142475352737 0.46560904189706265
Ni 4.217851254555174 0.47947565170236106 13.478537718450424 2.969741393589363 0.9324007912483168 -1.8001385951006095
Ni 7.284907542566453 2.4788076712163143 5.265530929028586 -0.21730501120619353 1.0646555096513857 0.6424533739850484
Ni 4.015958219731166 9.13137222457283 5.4111245156260415 1.2735067336632713 -1.1807989243148889 -0.23376161410032
Ni 0.6268776397261934 1.2387129646450599 2.5094926116813348 -0.6601276513363599 -1.8125050870857626 -0.7308353022645672
Ni 9.141333836973162 7.9628946958112845 9.111366842144118 -0.2093307347514653 -0.2598822224467718 0.5566903713856154
Ni 2.3396531887168073 9.163572413109616 9.284739976723946 -0.29295175130723095 1.6572752479437585 0.9839884335176214
Ni 0.5419901377685603 2.0545848915923552 6.201345524044829 -1.2236062492884023 -0.6030856708207033 0.2180370042762116
Ni 8.946834988673114 5.2837064370145 3.8630806125200836 -0.03648986739591781 0.4902458666091364 -0.012230737738237001
Ni 6.1018190265448125 4.759073965389051 5.681705061932463 0.9917441662036406 -1.5239987731443947 -1.6519214398310131
Ni 7.47968647368938 0.08813272826537055 5.879509821151873 2.3031553882221685 0.25152253762816684 0.949776820632919
Ni 0.2575744336214126 8.00885628704544 6.899577997336637 0.25798063454868475 0.4711942492943239 -1.2411573707982881
Ni 8.842410776210384 3.749029953435063 1.393486732567021 -1.7378556779009877 -0.9965639561897869 0.8179815583647719
Ni 2.5501354301090506 2.705786790876027 10.275771966661027 0.47363062664995853 -0.4720054323417097 0.015238414216309242
Ni 7.298799650581164 1.4354244672458392 3.1373272010523583 -1.5744790412821337 0.5144458608941076 -1.2389724473318275
P 0.6535191178382761 4.726547013558908 13.431518347755203 0.5840057713711168 -0.5939320293458932 1.3368959965531941
P 8.7522521155262 4.6087441782567415 6.005126033602903 0.40115765629121236 -0.35756974439793254 -0.15875893534118463
P 5.953123055879288 6.775969045116226 5.868551113902096 1.0063207784662347 2.2784545430413794 0.1008234964769812
P 1.574541605368963 0.9703469398581873 11.08597034922624 -1.780189148561876 -2.1096734475775025 -0.11540782204905932
P 2.5245825405685505 2.6996436409609195 6.300971917751672 1.2119678937185256 -0.013408817206738198 -0.3142672249555555
P 2.085188608038741 8.510195203901597 5.663558495838246 -1.8965091980125592 -0.9955481133307627 -1.032070376626513
P 4.0453762522273715 1.8977011664047188 9.065399649253505 1.0568259863046379 -0.37244923261292634 0.8019885253706253
P 8.69284654879394 1.5413331186698185 0.3183225306846661 0.7104317989075507 1.0029441486845179 2.4628833723448422
