# total energy = -340872.8671977557 ev
CRYSTAL
PRIMVEC
9.21324403947535 0.00000000000000 0.00000000000000
0.00000000000000 9.21324403947535 0.00000000000000
0.00000000000000 0.00000000000000 13.48451394075102
PRIMCOORD
 96 1
Ni 3.1939276644930987 2.5928371981756855 5.633492413836696 0.5856664469029913 -0.4026170144455582 -0.22510753796974783
Ni 8.407122020730588 7.431669810170579 9.244699877188227 0.692693243977207 0.5514142105883407 -0.6329999418816324
Ni 1.6737147615506358 3.3170166045930443 12.981365927001509 -0.7749307499218847 -1.2337410237295592 0.14384422301288127
Ni 2.2982252941655092 7.724162668056279 6.2285647891606 0.2250314333161737 -1.1768317121370249 0.07860376584683237
Ni 4.400715219137654 4.755038157637932 1.8295245377856828 -0.08272884375879946 -0.35796235185066094 0.7356689762077847
Ni 1.069851108783366 1.9472836162203724 6.913388902424446 0.49446607533807097 0.1917266485164569 0.40846858813032877
Ni 8.74319352282832 4.173839085158526 3.6921946422557643 -0.7013491198799922 0.3000677935267219 -0.18863412563406223
Ni 8.490778276427257 2.6587026796707836 13.473051884561075 -0.2302564291605389 0.8146272971805583 -0.4296429082150988
Ni 4.323038358809613 8.033994851186598 3.85057030695023 0.17127583686127276 -0.521968651633714 -0.2510016321276903
Ni 9.121470895779186 8.018866704506651 4.901162050435324 0.6354851701973314 1.1699966914930624 -0.10274873852415209
Ni 6.718435737648334 8.228652270829686 5.32475107879828 0.0003980067693670565 0.4793554449488777 -0.831311956925091
Ni 6.371004305674611 -0.008063431165828765 7.358769095542223 0.7953427379193334 -0.2697866260446773 1.114662437697132
Ni 7.775452797512597 7.976992510438218 2.7589989753909943 -1.1588676714594364 -0.5949902954070785 -0.035419517149874485
Ni 1.0005122342929327 8.213376712245427 2.281390854693157 0.8484930966900677 -0.6959765427141692 0.6409837314180574
Ni 8.712292302387063 6.324385290936158 11.388130694609634 -0.3166778912795772 0.34438692715907143 0.619126783443966
Ni 4.4562250143548825 0.2300196928385673 5.718027613012821 -0.4782115611524216 -0.3987914700518809 0.6547923551663756
Ni 9.168854609771254 3.290519314793086 11.081775589772256 -0.7865145981047422 -0.3480096115133232 0.7806635386406039
Ni 0.4843347101564427 5.787465069214263 5.184512606280518 1.4217580846049127 0.16904026266253466 -0.14075915632965436
Ni 8.737978826713308 2.811495118489458 8.83510760913963 1.4278917083064764 2.016500011446611 -1.062400137958306
Ni 2.406554617346284 5.3177370361262675 7.3120994079616635 0.8140259161511335 1.218406707365334 -0.2376676340229455
Ni 2.516514684718504 1.3996391784598292 9.507485551057592 -0.34507829679914115 -0.6273759108266356 0.26280890917526356
Ni 5.484137436361681 5.713482719738023 4.312779411593946 0.08479935313458299 -0.7224203387279946 -3.415335425817079
Ni 0.8776342774810327 1.0024562287810381 1.1138655394375179 -0.17910227488422703 0.8550815485408629 -1.9941766653590625
Ni 8.809012938103322 4.196733996546876 6.6746590086898845 1.0234031878698182 -0.48161724439986087 1.9764198555962733
P 7.608960264836989 6.429950640911097 4.515734278800958 0.33254931109419505 -1.0477407361739182 -0.5131842205728645
P 4.690591515721829 3.5991906291769538 4.110498032524759 1.1316345467750961 0.24633816521375 0.2778732597075537
P 4.71332980196185 1.8913960779983465 10.191919022775012 -1.0019851272053584 2.9759616634674617 1.4026023376120682
P 1.082390333893847 7.560351189390334 10.842897362808982 1.3416288832524894 0.33665536284276865 -1.1055273081650832
P 6.07155544855422 0.4276400917583121 3.806745669122879 0.05109450468297007 0.26356635616657836 -0.41193212119889694
P 6.33843548806583 0.06337790560984469 13.036234480434983 0.259348718540805 -0.2348003397774795 0.3250414327529241
P 9.030416405134893 6.847817323413569 1.0714864595968197 0.31544710419626965 0.5253583940415533 0.48113850499122945
P 4.28981540087545 6.405544757503556 8.04429433667595 -0.8831237993900597 -0.3568809458610241 -0.49575008425681716
Ni 3.0697792013309155 5.1601997766375725 4.635395892125665 -0.5335203610270554 0.20289372087686994 -0.16293543531637747
Ni 3.3223602861243293 4.860907544665511 9.658377297635052 0.0772955885583701 2.1557141918866485 -0.3851857063429882
Ni 5.45089605193948 4.00306239401387 10.335812389195295 0.26932177059311685 0.23641036457707673 0.47774104927390626
Ni 7.280489689055309 6.481581660396134 7.039077819986683 -0.1615339269831605 -0.3709243113279676 0.34125223818483164
Ni 2.882004074970363 0.7446604478726118 12.221324889562815 -0.7516563527749764 -0.7033962322170079 0.4121596638286708
Ni 5.24609485063097 9.212912342672297 1.8246838993778602 0.1415816522309497 -1.4720534904253553 -1.114824674306609
Ni 0.866430972753373 2.3759574339576677 4.429851182024785 0.3915360740410483 1.6372165295206706 1.8092973787817421
Ni 7.513336005159045 2.122224693661822 6.844739178586668 0.48875976898191303 0.04685347001842898 -0.6469569182823568
Ni 3.173308424377554 3.0010852539218447 11.355578460840087 1.0181475958978334 0.33787997927848906 -1.487073617983271
Ni 4.593290445632345 0.2458821350668664 9.00602342026898 -0.6343058051772495 -0.636476073355691 -4.456200517917087
Ni 5.683751581287235 7.3259754747793675 9.494729814712654 0.6494735140566233 -0.9171297240218592 -2.094102846832755
Ni 6.5756949480548865 2.1665311841513906 9.100105382898066 -0.6787972027214051 -0.9704896277002383 0.04635364756387501
Ni 7.13912167282076 8.003535866458273 11.284232020477814 0.45057888703681753 -0.30482073483067507 1.5096371051060837
Ni 2.0589757734682497 7.916461497230386 8.656505188524848 -0.895111310769239 -0.22085030535529063 -0.5370862240014428
Ni 1.0800870228889827 5.516604908286247 2.5240852073292914 0.5746657249171135 3.156930302136466 1.416724121725431
Ni 9.252768836300467 8.477529631527279 13.05532892866531 -0.47912353144372966 0.06428992032732153 -0.6887699976634009
Ni 4.86805702202461 6.921689113961576 5.9524558431146986 -1.43682063536499 2.3702218428533635 2.7042639364430006
Ni 3.2783946856634807 8.157369401851147 10.500619819539743 -0.11368235471752033 -0.9457802978790162 1.8501635208684848
Ni 8.78730653519348 1.017934478733726 3.2219497461782773 -0.3399376331384662 -1.5091108002889688 0.04286851722875197
Ni 5.3769874084153955 2.481909740181423 1.9685100091167995 1.868577247488982 1.1932934572374738 -0.6633924381305607
Ni 3.6064045992441884 5.285813145598849 12.0786458287043 0.1427227078139284 -0.5983558694452018 -0.019698249759875754
Ni 2.877065776175934 3.263948319040972 2.949818157575576 -1.8111575719189326 1.711579774923594 -0.6895413286117867
Ni 7.564229965122526 0.8017189894095109 1.2262099943619726 -0.4236722924539607 -0.29344437467293333 -0.5238093043868786
Ni 9.300861970082032 -0.16566610468706208 7.546095536919028 -0.7321375660157585 1.5487721234343326 -0.22755882772371777
P 8.750748382924275 0.8541699876122797 5.58332998544836 0.109556762584921 0.5734861027867156 -0.50630086318947
P 1.693173132919729 3.3629906922501345 9.538432837718949 -0.9817549162014124 0.9903056339849009 -0.3931514981572842
P 0.6922610438363521 1.3523660233959953 12.178147942790032 -0.3385633784987589 0.10919783658360549 -0.004892552205610929
P 0.20065616282415588 7.085390033699286 7.0221411135057155 0.9202656985476796 -2.085201430578067 0.9572471608680353
P 7.103374286025267 -0.0724262325613534 9.533052303211583 0.4220291004235828 1.570035146578167 -1.424630006836069
P 4.905766829796248 6.686023545187885 11.261888061081828 -0.1301728961733758 0.15524860819508102 1.0237384597220498
P 2.266190844709857 7.119967338504309 3.9474024229191254 -1.036677793491537 0.8250513207273598 0.43073485572769693
P 3.1048632345570084 8.528718415299382 0.6640408774047554 -0.11542453421960766 1.2261758097877915 -0.013947463319027591
Ni 4.077468552715006 1.5221200444544905 3.5701596972716447 0.5536598120894078 -2.6091652582649387 1.4097613172543526
Ni 2.06847462805231 0.2816322858355654 4.866264124738424 -0.0934976522395293 0.4752280530440654 -0.8837074398076716
Ni 7.4817622179043655 5.4670560819496075 1.8188454666427303 0.44083132073175046 -1.0217052313421047 0.9402465125449807
Ni 5.282431885043708 0.06201987344137672 11.011710711653091 0.6930038332390904 -0.33306096062329094 3.379403230696845
Ni -0.06429923001179039 5.079473332539091 13.362802521326646 -0.2430615513450072 -0.2977671704180033 -0.2522954112384494
Ni 5.031518397417816 1.8837675119502362 12.52343176758282 0.6105439268709615 0.6908780451453392 0.7516638089741441
Ni 7.115434422446737 2.4971208060575467 4.016915427721526 -1.4300655760293437 -0.8134654156619732 0.552530583580971
Ni 0.6223187018626443 5.534073218947137 8.711238307271236 -0.3613117279388681 -0.24975927508015697 0.33747760163374785
Ni 5.152958166838279 2.081925964320717 6.8831160252253145 0.8068833915690812 0.5376012159646484 0.5511146770700508
Ni -0.043513230179493455 0.8513866665940018 9.81734629524437 0.4093371067782111 -1.4178325242982612 0.8093004856510063
Ni 3.585407616123846 3.302551811482497 8.039723646317897 -1.0603165159563996 -1.2177163661665287 0.4318802821860497
Ni 1.3811297712247401 5.026911775408088 11.048954329277343 1.1572725590581747 0.8769541802442381 0.6694399298762213
Ni 7.183759840095029 6.91278912023878 13.34946635060848 -0.3514592606248206 -0.0925136910597052 0.5345431458646149
Ni 3.380182605590442 1.504937344358203 1.2089581949355392 -0.9098879548577813 -0.2493738667162802 -1.0546662596491578
Ni 3.2360874691261343 6.800949551086592 1.9522744305057125 0.20047122747830634 1.2424676049692795 0.9893831221706316
Ni 7.668496247690721 1.5513720942162665 11.624648488455124 -1.455825458602267 -1.6777340300187427 -0.5155609483351573
Ni 2.0918117751535945 7.130516502906588 12.798664534122471 0.08829039700697697 0.9711007789216759 -0.8980369690564662
Ni 2.277707399734178 5.288107243359694 0.569384008348854 0.192298718969843 -1.7157953556668386 0.04578851908902437
Ni 0.8065200108680499 3.5920227253298163 1.6639616214316388 -0.47799661692813805 -2.4257656415569384 0.2608492143457314
Ni 7.5423300840882765 5.2380793283340426 9.69409796602289 -0.887693163928297 -1.261669117598395 -1.0956650706590227
Ni 4.7358377571013826 6.9346152953208735 13.477569138103815 -0.22981882740248807 0.608021931780056 0.121903457075732
Ni 7.04563488575533 4.4625821527283085 5.418199170238829 -1.0576464253234044 -0.4044311848361616 0.26261787621037996
Ni 6.011024435346387 4.247968846539076 0.14844655161469697 0.8962521092419016 0.07671503346455175 -1.1607800579908008
Ni 4.695437682076064 4.715236943473878 6.459608073409729 1.087589749850056 -1.4472248614174494 0.7730067934262945
P 5.635778219677923 6.495327820473164 2.0237563055550716 -0.322927728844031 1.6106567767542714 0.29974177764587084
P 1.6118938941800796 3.958258388347251 5.901645723671796 -0.9806089755224272 -0.15186992153083523 -0.37813728413663905
P 3.7969160590785207 3.5580627078740976 0.06338804017826609 0.4622871766126813 -0.6708069854270771 0.3072663681576902
P 1.8407785153554497 1.2858095485994379 2.936549243538754 1.0541312130812943 -0.051718768530530285 -0.31874300133872197
P 7.867400972826777 2.951333736216777 1.9903011738716192 -0.5688411478155364 0.30973745540600206 0.608769351469042
P 7.40347728347104 4.574182177535991 11.832755401717815 -0.0822642454175551 -0.8703150776611657 0.19638548744470694
P 6.402872916737913 4.097166468428604 7.946356631424719 0.5399735728515669 -0.07520682435014145 -0.36155983939393216
P 3.0148314139988743 0.7500188705943279 7.528660393936607 -0.32367206320922326 -0.4149583096197305 -2.1251437752989593
