# total energy = -340868.6467409623 ev
CRYSTAL
PRIMVEC
9.25470638214517 0.00000000000000 0.00000000000000
0.00000000000000 9.25470638214517 0.00000000000000
0.00000000000000 0.00000000000000 13.54519827032331
PRIMCOORD
 96 1
Ni 2.3752573424912984 1.5450824401188554 11.353165374941447 0.3711881065123156 1.0691369424615071 1.2918055319724593
Ni 8.119810756266931 8.131814110094306 13.064018110939985 0.11348103733999167 -1.2673756810648689 0.5531995846235376
Ni 0.8192469453952916 0.0842474406795405 12.406358334261713 -0.6803630045466283 0.7910649364795861 -0.021570527081924144
Ni 0.9759365236377959 7.186205258385815 3.3157020681892444 -0.583694153667969 1.1694593309323538 0.007164121848607016
Ni 3.192707023959623 3.341383877650283 0.30360711230125687 -0.5657882199218256 0.9748070241286695 0.28089379170143236
Ni 1.1868512759322338 2.7572268278554204 7.682660085709497 -2.3552680497570084 -2.5712923944785655 1.0269374262753217
Ni 0.277896613251271 6.487761842812803 1.074695343501087 -0.4907791134047871 0.7882765751011714 -1.6980876539744303
Ni 0.23545545649185623 6.730660859430611 7.330240876961265 1.848340865837449 -1.2845125978554714 -0.736937301397247
Ni 8.47159139029343 7.321777448221762 9.176979537332949 -0.5909125257932791 0.5670359762859977 2.516632026821208
Ni 0.3993359413834512 -0.024138124481542483 1.647569981074706 0.1509342970904433 -0.4667179586905252 0.014476853459936358
Ni 5.9683322075658705 8.163104271459268 7.819940694293734 0.7661920844973062 0.6722830557519712 0.48332060024421275
Ni 1.2405285713823322 0.6186428611803286 4.185885990554846 -0.16386514621949844 -0.25364781150128574 -1.1231967004203882
Ni 4.5247183652599245 5.296153647938959 1.3572692852214063 1.36242859360666 -0.20553424382351052 -0.7385331851294571
Ni 8.407872738711717 8.802465643212724 7.501032776377365 -3.037267047245163 0.8392921469170901 -2.093801256431936
Ni 7.09650864674748 6.756157574769408 11.13141613820159 -0.17850732161270547 0.39303168474996825 0.2649323832761695
Ni 0.7741496879817082 0.051139655034164344 8.889049897185567 1.418288123778441 0.1059199371632821 1.4207885216027916
Ni 2.594445802049941 5.5588114621060685 10.979114216126826 0.758861612274164 -0.001316404818578378 -0.38271487620499245
Ni 9.29524172485685 8.227961251892767 5.187214651352372 -1.4317391070770245 -0.6326443583144266 1.783162115147271
Ni 2.2748715452935024 0.7031299987481722 6.883086794567277 -0.45876605083330024 1.1028626168487263 0.10050982189130431
Ni 6.249554962193825 1.7466036657095263 9.769880433462513 1.4612707979875543 0.26675169587309544 -0.21165424067831934
Ni 4.447349022162886 1.4577457785391006 -0.153330119923817 0.04541956578537984 -0.44159365281907176 -1.2308215360899188
Ni 2.002163120288667 2.662088449023177 4.613819899295254 0.26214016524301303 2.0856457172043372 0.7355512196829977
Ni 7.399396668383827 4.2020345272498245 1.2236581676106109 -0.0015848279886166254 -0.36422684470313405 -0.8250549202717854
Ni 3.673840685314745 8.383653172816388 8.061668065117752 -0.48775755296964385 -1.1315833818221868 0.6524313111333666
P 6.171500770844492 1.5143938346511787 3.5221310644311545 -0.772803933386869 -1.220492386249769 0.6050746762262741
P 6.5328137521664384 1.0629862893280762 7.8511484887742995 0.5788139427575321 -2.078934623732749 -1.948828062020934
P 5.774038907448738 8.44750139028367 0.1481261986769911 -0.2137581743951996 -0.09877792680186215 -0.1467138312511925
P 3.477761226917981 6.148308477327605 12.904537313334076 -0.9529166518134815 -2.7630609519765508 1.636349039314053
P 0.1868293796377344 1.0777660549890773 6.465068377955358 0.2667074728987213 -0.6460169229665905 -0.7754082037789356
P 2.135588218306609 0.7641638600867676 0.4513973651463793 1.2061116920480646 1.4712312516343757 -0.11005607081884271
P 8.194820149305388 9.048539024026976 10.827598018600977 0.5343834803582991 -0.28722641878767957 0.4283802394525913
P 5.221199783137174 4.366129721323221 8.523600062231518 -1.8873414154703623 -0.4097975913543975 0.22849316661252905
Ni 2.5158640924522198 6.336373360231303 1.788724609637463 0.13785432397803354 -0.3429141992682868 -0.0913122145524363
Ni 0.8640850710377367 2.6196926403237115 13.448363279363079 0.5418607625719507 -0.8152808716041573 -0.14162947474974963
Ni 2.468331921860546 7.915309515308168 13.424063197524577 0.5179965543598434 0.9916837452793502 0.9234782919477064
Ni 5.993764139961883 4.7646466212157526 5.822552076888292 0.9025590252965358 -0.0016084821377004557 -0.32640386031808943
Ni 5.667693079514758 2.5249337044420637 1.7581933341736913 -0.5470618471569159 0.5871108926590017 -0.09137340680767488
Ni 3.4943364055647272 4.751134750292106 5.597200908529612 0.7597041627801174 0.44824586802826677 0.1375416778336212
Ni 1.7081688712260334 5.14318261061229 4.113514188758334 -0.3650082029538488 -0.5584148102758899 -1.9839609011683252
Ni 4.768774220141742 9.335962431750028 5.88593015528508 0.926049137998676 -0.9132874674576336 2.024153157116495
Ni 1.3831343378634642 4.914137889044276 12.791867744713707 0.7395855376533714 -0.6207424646705181 1.3375058622230513
Ni 4.742194704187831 3.4511817109640703 3.945634745355707 -0.3124895642298425 0.08470705053109283 -0.40766563261305916
Ni 8.311771870443817 5.371857143935821 2.995751144894044 0.905294421949828 0.9121165870779839 0.04693111733389982
Ni 1.3099481219290887 4.800814012701783 8.986073459652841 -0.44776301485457726 0.0782569240303749 -0.4404729089510673
Ni 9.155467898446016 2.0255867814583564 11.291940866656942 -1.6750485127667798 -1.0749615195630844 0.03272191571305332
Ni 2.7106293825810677 2.052073750351146 2.3143456432733824 -0.8871627453461236 -0.7213978110007511 -0.8014511648099165
Ni 4.486755560788148 9.568440649285627 1.84600753858883 -0.7607696279301543 -1.085580175619195 0.512809096621633
Ni 7.381257444404139 7.17907913467951 4.082522954400792 -1.3167231211497452 0.9310879859741642 0.48156299412315773
Ni 6.876311424222619 0.732797810131686 12.471118140281034 -0.6678754136025788 0.9078477844993009 -0.9273341753586867
Ni 4.861469356560395 0.34091375810968644 11.070327674096932 -0.340399146155917 -0.11235309438313552 -0.06488487359884308
Ni 9.000423806950243 3.093033839132458 5.723361062249567 -2.412709836814245 -2.236445545599445 -1.0051907786268495
Ni 5.125098914869274 4.752819106804506 10.882632053967107 -0.05861292454720229 1.068565129118437 0.3558352782053291
Ni 6.54355846596257 6.1624774323852085 0.11832789593729688 0.5993696554216967 -0.0020275719529900564 -1.8808614641729735
Ni 4.265799452362097 1.483732993301838 7.761114080362871 1.400695864617975 0.7385241862683926 1.462422137983178
Ni 6.907370217934779 5.202921738565805 9.344222256955065 1.5376341045396422 0.49134912697564403 -0.7236632099961602
Ni 3.8659036012588643 6.438369476292602 3.9951696343500354 -0.023427892005637073 0.3948797937023006 -1.1167134066888895
P 5.460924435558535 2.5866070659730043 11.443036900525302 -1.9165918276950475 0.6869321731237138 2.3202280274337395
P 2.713988840899755 0.9590281755710149 9.385589867805479 0.9792365206549329 0.5948136606198982 -1.8161082310559886
P 8.646505335811852 5.4830802019908695 12.74215701630325 -2.008769732681889 1.3837864904571457 0.951396358514213
P 3.8577224410557807 2.633158237716797 5.911869245576034 0.33898426808626136 -0.673006564181557 0.1032966406078221
P 1.3401277185606006 3.525311906921879 11.031967842732946 0.9440771991449806 0.9345407204094551 -0.551486715697489
P 8.102134267592847 7.651661447587065 2.0870981856323354 0.10376123894906646 0.8291560869243526 0.02983430975261313
P 5.289647589542162 7.593032884367001 9.816584307857154 -0.3676983481915022 -0.1902577772804143 0.14759546252519742
P 2.7770596630536204 6.462755626897947 6.922015790357156 -0.6824736231317279 -0.1992718078535665 -0.5743739047083075
Ni 5.508447351444096 3.80465595620908 13.316839097980559 0.3462026402115715 -0.3047464299493139 -1.370678749430594
Ni 3.6874543580056236 1.0957016754342996 4.292933325212122 0.5309639131537888 0.10605363452766897 -1.108790552297387
Ni 2.763112820942707 8.473784755641992 10.70467516107903 0.3896805088895482 -0.6271026025605909 -0.07176103189338609
Ni 8.3470600648492 3.1808702548422647 9.309966887751791 1.168953852050845 0.80092228888964 0.08989168005582583
Ni 5.246307800819264 8.423938908522297 3.833237265095035 -0.03472454796537891 1.021345534009841 0.9334117490113344
Ni 8.059831005954502 0.8069724286788322 4.243236478860831 -0.012150519319604881 0.7307124035334577 0.07160933680687022
Ni 4.91002879953051 6.651875546298423 6.220469271824761 -0.8530089822825503 1.849294745110286 -0.10280813100717777
Ni 3.0978833051351904 3.692414880481702 7.6901508448366185 2.117668807078153 0.6966316597996648 -0.6833426560002424
Ni 2.3566276190876696 8.20574995722376 5.531967261557352 1.2954667828741302 -1.8555340411517784 -0.6686485443231774
Ni 6.976225231408699 9.706891052722431 1.6504685550290115 0.4650840226315281 -1.4225592403499694 -0.16261996095848769
Ni 3.603791814752367 5.691098231272224 8.867201386996154 0.37465446779436123 2.070694238100827 -0.27920020604909335
Ni 4.898192030413151 7.228286407077471 11.934592286433244 0.48449867971271393 1.0581447051160615 -0.04047584862685932
Ni 7.285461981437937 3.5327249265176595 3.9911327315439435 0.40915712955692113 -0.6184102169929157 -0.864121290145628
Ni 3.4783257639908185 3.3589585645571343 9.926733820003198 -0.12594908790001536 -1.1547029985587856 0.47497454227236263
Ni 6.665628039580984 3.14717386988816 7.652210251659511 0.9578148604460471 1.286962859168177 0.7108750570925563
Ni 1.2789263470413768 4.4986015846116185 6.226443184620112 1.8218947558307785 2.89832617507117 1.2931293929902052
Ni 8.603489461802877 2.1272127092751716 1.8837852489383646 0.11283286223303149 0.44640701504731506 0.24876194416389416
Ni 0.988976404549725 7.1339624423830905 11.894552725909916 -1.2706360969836954 -0.6236107873572486 -0.20318734085788878
Ni 8.684458885577516 5.744081423763917 5.3182649917819536 -0.3038627417927799 -0.8594555092388424 0.7564483748469811
Ni 9.055174648309341 5.40947752428145 10.61902840883534 0.5867897618741572 -0.28301315203728034 -0.20330484027235957
Ni 5.921133206394232 7.149436311002498 2.0832787684198775 -0.007041994448445936 0.4838936991388634 0.2038188037943006
Ni 0.6675308462174225 4.3210037743206895 1.6549654167288739 1.3408660369445358 -1.274136139717154 0.29120340115755655
Ni 7.378360721391056 4.067286006257854 11.522412663907438 -0.45111316227373277 -1.2083503515705964 0.975399920517662
Ni 6.130261800409038 2.4319516721339367 5.640586045312459 -0.9187657169633853 -2.7746298877610727 -0.29266198798095405
P 8.7063462655326 4.4150686072439305 7.408803151676151 -0.47720728825762326 0.7318781417067847 1.5035181366925399
P 0.21348478418176425 3.239091610993398 3.5498303998246277 -0.08553931662440106 0.7137567495157255 -0.44083877693091816
P 7.919992396600883 2.4530061285389317 13.276447858624971 0.025445179545981987 0.8204359334425355 0.45627799430412386
P 2.7683880034265957 8.566859335011241 3.243397825747351 0.7685937519602634 -1.09403216304129 -0.08974846960974221
P 6.063850029348709 5.078566252537706 3.0235458037604714 0.060578018693373085 0.7053006483285724 -0.29139391990180785
P 1.449379524213775 7.165622791992536 9.671745380791174 -1.2058579241660456 -1.4177582194169003 -0.4727808770551535
P 3.2198418222802587 4.093634154558963 2.489228122791025 -1.6064018581326591 0.9560983919755727 0.22357104672056335
P 7.09819300325988 7.159894128909156 6.313999182734723 1.2595857527068048 -0.5469181224902 -0.7956780097715652
