# total energy = -340887.9862229106 ev
CRYSTAL
PRIMVEC
9.10616788571623 0.00000000000000 0.00000000000000

0.00000000000000 9.10616788571623 0.00000000000000

0.00000000000000 0.00000000000000 13.32779716630218

PRIMCOORD
 96 1
Ni 6.404731960038046 1.8735393584696847 11.179675725604916 0.5775517882156569 0.8792239501150212 0.44941829106981307
Ni 4.633454864359085 9.351214628888831 6.038558388672468 0.7604132730320001 0.42264590807197533 0.7821974587866272
Ni 2.951263406870832 1.3911674453307539 4.6194140644483985 0.36126390542006814 1.6890525403553556 -0.0662429302886343
Ni 4.029114941619181 4.242490662163457 4.990566888288952 -0.8920254727550637 0.03310115342934299 0.4193446116128843
Ni 4.055759588184243 2.967791101168709 2.670584001171948 -1.0733093286716417 -0.1658063291062693 -0.45914914520433175
Ni 5.292932632263534 4.988886800356192 2.409266129145873 -0.04697714008048683 -0.19688222457546736 -0.3630233113133361
Ni 5.1750532919406576 4.376879484448898 11.472181311240249 0.44658570671702447 1.0412535857876775 -0.8706889160608166
Ni 5.723654362450641 7.912057680004461 12.610401273855455 -0.7664242551127705 0.30989737802263406 -0.20232962084328382
Ni 2.137590902026461 6.916489476206867 -0.020586313222705963 -0.6661103512823561 -1.5595332186055788 1.2467801163017043
Ni 3.041441785180407 1.633400611180801 0.3879946809226051 -0.21425979662196648 0.2242287349092203 0.10221986260387557
Ni 8.542996718471143 9.114727454830497 6.597565987581138 -0.5999196143878959 0.5126710283818718 1.0882849761448676
Ni 8.605683576623532 2.6476546710110362 1.2310263809106596 1.2553187499003349 -0.6144347772849353 0.608287783846933
Ni 6.931851581044619 1.020701226531556 4.793701560324004 0.17542405470169142 -0.6102407938082458 0.019925021058701167
Ni 0.6920468871473078 7.621680205750624 2.101127074876604 0.2392799728153879 -0.41911038411489115 0.3954042987472029
Ni 8.061799500959996 4.1468576894272 3.1877687932644796 1.1025581982344301 -1.1748082539490927 1.5408639243308497
Ni 8.0463190159427 3.7615028865084255 12.372513571211439 -1.4202606741237798 0.5520482446279138 -0.47985886694785745
Ni 8.429634037306254 7.346209527951679 8.83767503570949 -0.3493679253134305 -1.2727361740458338 -0.014132325636324047
Ni 6.718439435829713 0.9004160367136379 0.1950031166790439 1.3926966484625822 -0.26283333465529574 0.4904690383635359
Ni 1.8776826647537253 6.5823022293540845 9.148186246653468 -0.18591312715847336 0.33343814145705153 -0.4802905551686373
Ni 0.20871700517083638 5.015012395364793 1.1590175389275608 -0.09273069216651772 -0.09253734520878902 -0.34927587982025654
Ni 5.539782625115799 2.550755940970423 6.38281523572062 0.3923914800628081 -0.6982069747065847 1.1502282506168837
Ni 3.249226318783143 4.710265388547843 0.38289978011838344 1.7944819110354642 -0.7345310059485994 -1.4777603110021453
Ni 6.286278931152763 5.961152321118927 4.5360889879176565 0.38354020031976527 -1.3494182973899211 0.6756825683518234
Ni 5.423132617426648 3.0463591157153127 9.15870204906404 0.11634627470292866 -0.22525306240867657 -0.10928011188476663
P 0.1510412710802216 5.876956694960154 12.500593640543949 0.46863034522188973 -0.40740209453902737 -1.0674276730798842
P 4.325056284311586 6.24598413926951 12.51482749120897 -1.276871793480762 -0.19014490585163385 -0.14413501478042273
P 2.6270656259380334 8.620936407449399 1.4549424905181831 -0.8944963028930595 0.5954700632569745 -0.561426343408704
P 6.704798396679179 7.969353686903769 5.876878381918302 -0.6786640195776505 1.43530111339667 -0.7709578813170658
P 4.875742667215077 0.9415139925842605 12.565246520293536 -0.6937967614540309 0.4376395532673302 -0.06010467860138036
P 3.917027123926303 6.25137499052259 8.289530184199133 0.3185504257119417 0.6444061268360451 -0.4871988522526964
P 5.01159758249333 1.3645319049333484 3.709805351484784 0.006568654356453203 -0.9061094616519555 0.9098583871714265
P 0.4388335043361696 5.814543021837481 3.320140599413843 -0.16737033115927952 0.5925462047419602 0.6028313887180521
Ni 0.6047105437635547 -0.04806144227810847 4.576565903154056 0.9473777242731232 0.4504593307398178 -0.3107712959871551
Ni 2.2723712895211623 6.264160049913346 4.829580771510266 -0.8917930450292834 -0.1880283737292633 -0.7846466916580681
Ni 6.3766303266478275 5.737987470343127 9.1056841197301 -0.8456378866294597 1.2516454148138056 -0.18341967131265832
Ni 8.59033057795344 2.433905597592813 10.131071380138069 0.08284891427643151 0.05884072428729221 0.3341701345270697
Ni 2.3724753905771214 5.264521389172969 7.041234866943298 0.27703405163571 -0.8967694151979523 -0.42662803264817495
Ni 0.49547750963121984 0.06613354261065248 9.209334162471787 1.1829121140031498 1.3636717219851417 -0.27277013415303347
Ni 1.3519744997340244 1.1774001595772163 11.4463917338182 0.2232753698570155 0.9853740010112386 -0.5968520312061656
Ni 4.014244569834919 6.985696350401836 1.6522603950156955 1.5637349153917521 -0.13683616712616434 -0.344548135327284
Ni 5.654848159632591 7.758327357615059 7.873049589611173 0.8601759323446347 0.600669862290359 0.2003421580996098
Ni 6.1060951917191 3.3938322611799983 4.3259495993587604 -0.16067877807171682 0.10782075373042076 -0.514476971242359
Ni 1.0645292114658171 7.326913558686003 6.565059700895115 -0.5953114261919231 0.3927969430313429 0.6880403185862279
Ni 5.085785530396805 4.714891321717718 7.323357600215853 0.6121464954713909 0.5188959262456612 -0.6791255325951013
Ni 0.8178130792781144 7.57746976177476 11.214021458157703 -0.26805395962428674 -0.05451510032874482 -0.17459101727743478
Ni 4.753592534260957 0.20183729550579707 10.414927017115795 0.28771415705737546 0.739180846015785 -0.7988808329795789
Ni 7.944430106025923 7.617099803419037 4.047398305041372 0.3766293321325449 0.5726805761662846 0.2848772018292126
Ni 7.494667379267543 6.3118945807725595 6.860669579084797 0.17813116922020936 -0.895663069507651 -0.30368559278496726
Ni 2.301866166562939 5.579558365442591 2.188263993188664 -0.491198974551025 -0.3207690306298153 2.570463985039999
Ni 2.319122354273395 5.560672173721491 11.355935617395078 0.007555957970386986 -0.7940651567584904 0.5116446439998865
Ni 1.600144886896587 3.1905188558969635 3.7642365580391273 -0.8384035736645497 1.026364327380671 -0.9205590614183823
Ni 1.4514138505510055 1.2209185348111313 2.345305318138236 0.35910829252964604 -0.13230896867977213 0.06992192180211829
Ni 1.1090128404713988 3.2759347085218065 8.395285572903171 1.29593035277411 2.079363483740051 0.4426999985093731
Ni 3.4882632197855012 2.9638117059024984 7.559819277004746 0.26199721190724556 0.5252696909824889 -0.30350124468830314
Ni 4.436834492304117 6.852791833444525 6.017553191737529 -0.9303513649184558 -0.42567621025786684 0.6234313243565909
Ni 0.9009077697671285 -0.15385234503600936 13.334993604209712 0.08644100250306404 0.9726025602781831 0.8738642284650048
P 9.409585163571693 5.455860183986742 7.643931126421073 0.7835200342527926 0.9733335249069366 1.4812973776211262
P 8.815016158727998 1.838881284366257 7.9818446170791955 -0.8010071352939624 -1.8046231132345243 -0.9601771900306368
P 2.131316752510628 3.297561856707734 10.587294932849256 -2.3679639000571218 -0.22722972651907317 0.9466110213104277
P 4.108684634608079 6.147555573062481 3.9027787033930306 1.041392168248071 0.5050086267406076 -1.6305961959906754
P 6.984612716450625 4.0925849301900925 10.128219328427823 1.6218485317050324 -1.123646386363297 2.6570119454345726
P 6.565637942541349 7.862893480823062 9.89848802015439 -0.3290875777978397 0.18813893116519856 0.7339635634809037
P 2.5700974410743855 8.755880705961928 5.813452102952144 -0.8159953811726787 -1.4234167032542582 0.6991076321439831
P 7.051215226695625 4.147467802660233 1.244369648378803 0.05193499830639443 -0.2109818972016431 0.18454324339414024
Ni 5.360891961489462 2.913318006243143 0.3229347554787404 -0.7981462688063996 0.8081116075492275 -0.6364891859818136
Ni 1.8495355005252192 1.3958844401772006 7.008142143060149 -1.1226811942365504 -1.4992089677942244 -0.2718591923029899
Ni 7.0099733933760175 0.787497736530421 8.827519837538144 -0.4115899073681299 -0.05300123478737969 0.05022984268982962
Ni 2.6965638974980335 1.534352825573081 9.323686684061016 0.342070620321069 0.1633979767750928 0.45844851959288135
Ni 6.537108319271239 2.311846526315266 2.3463452424846922 0.009430035064648276 -1.3800774170366747 0.31395637858335607
Ni 4.343906051362057 7.013187870559022 10.383966047081204 -0.07665358409899702 -1.0121834078945988 -0.06534304418218424
Ni 8.067427112572165 7.659625606378313 -0.18563469139328292 0.36621096501269834 -0.3558123953871936 0.7905751413273611
Ni 7.800616400215247 4.015665131989448 7.9892415570671655 0.23201917748791653 -1.137766113594131 0.21161901656500978
Ni 3.1339695547455486 8.668179205255122 12.296264897567132 1.4670138711189185 0.23129181240358876 -0.058535277231731436
Ni 0.056127685588885194 5.006224943575563 10.261483539007594 0.07184896362150206 -0.15361852879082574 -0.12219167774011212
Ni 9.159894046410372 2.7680017827690238 5.623210601341068 -1.540340704837528 -2.2437721611678456 0.5659157466386254
Ni 3.998900677332482 2.4928407146704235 11.327480664699758 -1.0541425259352037 -0.5903450833255832 0.033829289844619165
Ni 1.2249434609156282 3.44239545329602 12.801508772010735 1.0476731161607764 -0.29087764238702163 -0.8490140021905442
Ni 3.419101876428819 8.554270154030798 8.250652312003345 -0.5248752837575477 -0.16792928898654302 -0.7248878264318807
Ni 5.349454614911979 8.113203817385074 4.123713453709576 0.44731204336008773 0.727559973947405 -1.6037870462176316
Ni 3.0217815692084415 8.369351207415372 3.687028094323748 -0.21728675637374834 -0.8689698764871809 -1.0296023747019947
Ni 3.519114915808206 4.448217201875658 9.578780490493374 0.6180870293255419 0.7990608102008689 -1.1033632106342288
Ni 7.235278193551269 6.317358281366898 11.372555283986294 0.9037106224024759 -0.25259057388136497 -1.7201939989551664
Ni 8.259840435169492 0.29721256369735516 1.999569629462551 0.12287996205638839 -0.18044053407967633 -0.26761378676307457
Ni 4.701241176399526 0.21288034502372313 1.7250432612496593 1.0328450500090083 0.8241059260949548 -0.023537935220940106
Ni 6.24637570447877 5.444941888965721 -0.1493657362312908 -0.22586961294675292 1.024286618916036 2.0730712229734363
Ni 7.97902443695575 -0.030667751436028283 11.091685559383373 0.09814132165912774 0.258889005295567 0.570729623087501
Ni 0.21226749994039137 4.984078743833173 5.301530675765494 -0.5078530381679384 1.2004647781749325 0.7926633913149574
Ni 7.479350805268078 6.186903323509384 2.292168098007986 -0.6605212872303527 1.1957504034183986 -1.5179240277052246
P 8.685999975360325 1.6456757251827505 3.5746616279005594 0.2786798147692491 1.59385847425001 0.6259386641594769
P 2.022416093497782 3.3655120797660047 1.5724138745300162 -0.05740913404708822 -0.7482990062669693 0.024489757611248143
P 4.852075737473928 1.2502859255057068 8.22175753141018 -0.42709391654099993 -1.2375508843939524 -1.1291675732918425
P 8.69743732193781 1.567034861294889 12.74106749480262 -0.06077470808521147 -0.13475280223457436 -1.5007426308299314
P 6.6897276892064585 8.064658837604368 1.4420144642952097 -1.5243301883418843 -0.44188367325566474 0.6185580554246894
P 2.1715842258909106 3.2257688308981116 5.842799460077874 0.4275456593664378 0.9443286530341541 0.3085930573889137
P 6.992316534288644 4.305405174507277 6.009063511630691 -0.25612918316224276 -0.11649488446565098 -0.7703233330568604
P 2.495854856164967 8.653117603950058 10.255366926192231 -0.5391011975489425 -0.4060538080412491 -0.6593164682889742
