# total energy = -340866.5230256513 ev
CRYSTAL
PRIMVEC
9.32584178629175 0.00000000000000 0.00000000000000
0.00000000000000 9.32584178629175 0.00000000000000
0.00000000000000 0.00000000000000 13.64931212477415
PRIMCOORD
 96 1
Ni 1.0404468681189687 2.9784127526745716 4.823121151647624 -1.1853950283260035 -0.7479493362370345 -0.7477256502620026
Ni 5.513297794389979 3.529374161361811 1.0799595273120315 -0.12352042385386468 0.0008996289961339346 -0.9669049956727735
Ni 3.419301250399616 3.734962344210373 12.435983950176702 -0.37015992235811734 2.2240901093578858 -0.5930761091035012
Ni 4.247594543031085 9.308243953165196 0.30793929678655096 1.167092887582706 -0.4357392509208238 1.9583470572549628
Ni 8.794399394908316 5.522474422737586 11.434875348008823 -0.26999437118010916 1.0602159858227933 3.1980360710378406
Ni 5.866187648732895 8.05513058825881 12.022286809436531 -0.588792908347115 0.1963651757297328 -0.6269758471747396
Ni 6.447057032126207 5.701036316001429 5.925071013963371 1.846225362156343 0.12903646857608744 1.0257254082450915
Ni 7.594937597973251 7.868679032818061 0.9107132174388636 -1.4577015925790573 1.1244472849980376 1.950621920696563
Ni 1.9660832976328728 0.21945384446159175 2.1869611981398704 0.19869639496607072 1.2916008721608208 -1.9425473712185448
Ni 4.002623330190712 9.046467573371176 3.191290946071227 0.7862168643586653 -0.04749881691191175 -0.7912734529459663
Ni 1.3191962800193322 7.2712283026747055 5.1843501737430095 -0.2615930344902914 -0.16623390356199114 -0.15233631964429248
Ni 4.5326855273667865 0.8634601095379619 10.739496750701127 0.9237600848541833 0.3465163147972484 -0.847165893238212
Ni 6.483474444420315 0.5040766715380962 4.141010429492508 1.2036881702082367 -0.06120433942346234 -1.1644798754398913
Ni 2.6921933414790526 7.081633938541739 0.9203318906885805 0.6752737629491791 0.16933054020944385 1.2717308727097711
Ni 6.820398457573087 0.8490442232577484 11.417799731642496 1.3465029235153392 1.4207473839522111 -0.1079127992235948
Ni 7.0261451797325325 6.610044769556205 10.285848636202513 -1.329047189932737 -0.051707969897252876 -0.004598675114275951
Ni 8.265903939157441 4.360288015543765 13.89964031768885 -0.4125365875521153 0.006789512118007662 -1.8672544149125003
Ni 8.584316156304117 0.8161771589432468 0.46968669725493195 0.0746254979253747 0.4409169384670213 -1.7061570612461263
Ni 6.670429595319164 2.1303766529172057 5.749076524951659 -0.11824040640184796 0.43659337139100296 0.8848554373691857
Ni 2.4900184167353934 6.570465896886243 7.60893195620335 -0.7711252601328655 2.0810982070429707 1.0171248110602742
Ni 4.671323491813451 3.76883380168853 7.753014347102589 -1.2838024591623245 1.3905940002972825 -1.5556279700139013
Ni 9.046215775642127 2.304303602798162 7.359641013433495 -1.598013634068964 -5.0699894340879075 0.3337780412949735
Ni 1.9916454300523743 0.3380906759640373 4.98769055184973 0.15326500210614893 -0.2853328013093925 -1.0969645061967366
Ni 5.914765958755947 8.433134934614026 6.612504926627444 0.7045378020206189 0.6191630359985402 0.0914004033908684
P 8.135090355994967 9.750913686677224 6.526459114521726 -0.3874400495948037 -0.483604964253851 0.6288085295081042
P 4.963903127127942 1.5144887335022872 7.416353322689049 0.08087662104140911 0.5069958323739656 -0.9217978189214898
P 0.5184263443414114 6.99514608153391 8.965413884389925 0.36928291906980276 0.5200763197070075 0.6107496151238642
P 4.082172760886935 6.388584003935665 11.748973430731107 0.46783150346967817 -0.13290957837824852 2.212851303219273
P 2.647746379380788 0.28120770380323873 9.567676748910682 -0.4095913888808624 -0.7265644428033552 1.6499951693425778
P 0.9252270250581521 8.136293389589317 3.1000730220939823 -1.6413243810414568 -2.3231256606965087 1.8170106882655999
P 4.9646771719987255 4.048898157285045 4.965278688795901 2.2567631741108745 -1.5341091221055192 1.363124077011788
P 8.645465701096043 6.057749765489181 5.142064009193668 -0.5297038154944426 -0.7218521249293504 -0.2225940275192747
Ni 5.702136765335797 7.692028937126636 4.383462732458198 -0.08516470689380172 -0.7943693182624707 -0.21580451540126705
Ni 3.302970699578434 4.141792867620928 3.6902691798881477 -1.395695068969274 -0.015500666738760402 -1.466360553805636
Ni 4.511655754070189 0.7401295818491848 5.225257046287665 -0.9931415607717992 0.16830235605524563 1.8624274258375022
Ni 3.7574096454631056 1.9527380179932132 1.7353461171572881 -0.935700287935195 0.09386249177811577 -0.471526178712446
Ni 0.20629601424244745 6.692960829148246 0.3623621118761111 0.33470672375683 -0.721783219364628 -0.1859648063320152
Ni 3.094622067552137 9.257567328733392 12.070946254283387 -1.8266302136332346 -1.884076885786478 0.66588229443195
Ni 5.186277825246515 2.6144158207279977 3.4783496830302467 1.099312437603623 -0.9512282083674649 -0.16673166913401608
Ni 5.1406837846048 6.975477881142546 0.24046776382710158 -0.03970811722289936 -1.3884946945660925 0.8966976814197525
Ni 5.38084286306777 5.739141705664356 2.5969046875488306 -0.08700047455095984 0.3832314108300948 0.5323991029384186
Ni 1.246678534052881 8.191576979878556 10.722613246676223 0.2943033802391189 -0.86622908051725 -2.67347446186597
Ni 7.507330639947423 2.7013792956684757 2.0109256754241644 2.415024858100667 2.1925149056547664 0.18506723421841031
Ni 8.373291007676434 8.232004504153835 5.0165866727186925 -0.2814419508954185 0.9729915681864855 0.6281536695329246
Ni 1.048289901086791 2.536078749467942 2.3297193195011414 -0.3904760082076501 -0.286069679475417 -0.12396008249444457
Ni 3.2174154267522734 2.9381903969192598 5.914083307134966 0.45695136622206467 -0.7291918531238731 -0.45785176654914694
Ni 0.46638348408346625 0.5220391754611906 11.962093163430813 -0.8894361147613328 1.3129148031472484 -0.2874632173888339
Ni 2.0502023908192655 7.09390674637248 12.445784477341844 0.7714237652098908 -1.241902476494429 -0.999771407383491
Ni 2.1731076601212025 1.8112836493179134 11.090502784997076 0.91010521307491 2.039561521251765 -0.8815541409100947
Ni 3.8872813186020974 9.03274926005885 8.053381060334 0.7426932300444177 -0.8198458652670203 -1.859355728890714
Ni 8.324955169540617 0.4133884553760388 2.6082197314249997 1.51403189173967 -1.6931940733275552 1.4158748863512585
Ni 2.6706040176734542 1.935569143208718 8.087463281837216 0.03899437898532639 0.31079032215054864 -0.5838610182631363
Ni 4.808954265343915 5.23033310198848 10.093775463314671 -1.7405010859436347 -1.3091231973153004 0.6175170157546848
Ni 1.0288455208990273 5.2065055761468795 3.658902643521949 -0.9763957087720282 0.14304023905434718 0.10765157514240814
Ni 1.257636398187472 9.164542056612078 7.046579964321227 -0.6352861668126478 -1.0409674220058267 -0.10846867172706481
Ni 4.751796180849525 6.641500834003844 7.880334469920539 0.9285832172744395 -0.12743595685818698 -0.19687296860408676
P 1.0169643984245855 3.627985612731314 6.863651711918818 2.400115287978686 2.222413492986411 0.5861552136139518
P 2.615012674604265 1.8910289226922865 3.691988865119143 1.5660908172184385 0.4593468630374347 -0.17875054797176312
P 8.24491146922811 2.2631020336520993 9.72412520605883 -0.960000041022824 -0.8447290016619452 0.435206004125173
P 3.56635112416492 1.8456960056214378 13.048537881142162 0.5407227923127655 -1.507845303312984 0.39564315423088636
P 3.931541763864028 4.990658967299978 1.1863216858153716 -1.0357665945311774 0.8975741704874349 -0.07951290792466306
P 7.403692559838732 6.422147708633872 13.0507080045329 -0.6985900690776162 -1.132779716123133 -0.6933812711831672
P 5.98024269415081 8.265633489744758 2.3079481417801175 -0.39494638527417786 -0.25786724889927204 -0.10455776670843282
P 6.0883198749642355 8.621265141581777 9.816790500686023 -0.7984805122173667 -0.4551672777384484 0.48821058134666245
Ni 0.06577796008554149 5.833090236125523 7.194115714445179 1.5278279170824978 -1.05111170952868 -1.4021284832994432
Ni 8.808975685667775 5.077986150071305 9.374729744644624 -0.3009838775830881 0.7921152321209713 -3.017090829407604
Ni 1.445216380488038 1.8757811713220258 0.018577076898813126 0.7241190665866563 0.29307670692086946 0.2436400495562965
Ni 7.156818875267758 4.014998722281438 10.485114830883552 -0.5443665597129399 -1.3973413463234452 -0.25124023050105765
Ni 8.227425515821848 8.327034832265735 12.447831499620603 0.16771820141700147 -0.6708892607282381 -0.6031139529554774
Ni 4.404231382183929 5.917209329311914 5.184213083868304 -3.123628345550227 2.8513279519447607 0.18013200170032204
Ni 7.174108985995869 3.4783151774155248 7.897587277281385 -0.6792450888921011 0.2325868770659285 1.5575293008016724
Ni 3.8796248024706084 7.745839044408841 10.187846162303636 0.2709598204171721 0.2420647346493767 -1.0596516286788913
Ni 7.9378488015723265 6.844850814816404 3.21420826975152 0.17581486238220687 -0.4174916175645455 -0.9813885340009292
Ni 1.8723399356916732 5.401023984759051 10.14399139116073 0.5060563512788316 0.48156787921916416 0.36745486472212846
Ni 2.94340354249478 6.639962070104092 3.1933790020539803 0.0559168657722779 0.36214116581869893 0.761380779151592
Ni 6.0827430215578655 4.668572368477533 12.34387820605851 -0.7035618112605948 0.8363410347085661 1.4997681827318041
Ni 6.959502714110585 0.7790332635716188 8.541029328927847 0.4306651788320261 0.2856382483649532 -1.1122949659062198
Ni 8.186028103997636 4.007556700511732 6.054165844479034 1.5603145768562934 0.8137325532804308 -2.0889914937481184
Ni 1.6118598479101724 4.431789244752199 0.7800852185285397 0.6422140042807327 0.37146964230847634 0.32945601688085197
Ni 5.527417118900423 2.5883873962176627 9.339814725467178 -0.15655190038753683 -1.0885382298062543 2.1042026542709182
Ni 8.31600236139661 8.62616120853553 10.111847079587022 0.19848042230052268 0.14823438166077696 -0.803911453424951
Ni 0.6575501851467247 0.6971682263523161 9.037345967490289 -1.0706567215401432 0.6982542830047522 1.475294365960156
Ni 7.838677799693823 7.26799223556432 7.967048944884512 -1.423548343736116 1.0281872395220226 0.08171325801009152
Ni 2.182545412039676 5.089624800658513 6.014896589757386 0.32289867537830846 -0.2946427658564087 -1.6760273317402812
Ni 6.301284798689786 1.0563847317836632 1.5600613247078243 -2.6946166431612237 -2.365087606950591 -1.0669831293432979
Ni 7.191137973153115 4.2723173496870865 3.8699893427056216 -0.06152649864957146 0.17278764552010886 -0.2725562183700145
Ni 0.21914422651327822 3.082918136072212 11.724895972328818 -1.08197163233233 0.3004696569508309 0.22479154939122578
Ni 0.7241963811053984 3.2005076755386455 9.260416373408386 2.2360066582898135 0.39683074678108426 0.03875372372943003
P 1.3520325690558388 8.817480853404582 0.012988099898080845 -0.5190540490900802 0.12891228429339735 0.4830390644480519
P 9.124329026698582 4.299987122357156 2.1336602818208563 -0.4175091010660422 0.791976649660578 1.0798982947430693
P 2.912376466770708 3.4623773137508302 9.653421336325723 1.1081014966501626 1.0219901095723753 0.5985281333570079
P 6.268467161336914 5.254030066044646 8.624932062584092 1.3749802050194255 0.5327166341788374 -1.0340943490350771
P 6.920716537995041 2.65060008697669 12.83203193527882 0.21135753537350696 0.21776498156174753 0.7837324073739147
P 1.2455501071930637 5.098447047017086 12.424819052353781 0.7848276973206225 -1.117026309943618 0.19177961324157938
P 3.345179459640698 7.956071496482107 5.668614094341583 1.0250556358715766 0.22836718255762609 0.5448694674912874
P 8.261306299141822 2.077275309613068 3.959938019611617 0.08854930709531847 0.8671762749218678 1.043079583252823
