# total energy = -340861.68604760856 ev
CRYSTAL
PRIMVEC
9.36905251499297 0.00000000000000 0.00000000000000
0.00000000000000 9.36905251499297 0.00000000000000
0.00000000000000 0.00000000000000 13.71255539403518
PRIMCOORD
 96 1
Ni 8.473099207369216 6.272571153027333 8.983725674980972 1.669514213212112 -0.05286779453330895 -0.867838591096215
Ni 4.317709019326901 6.030128186380799 8.640116618387667 -1.7994935053174426 1.0297486704718717 0.8664026299806368
Ni 2.4527991568624445 7.422022704829968 11.489174221303951 -0.8653834446875032 -2.2409367486015794 -1.5929279920159407
Ni 4.992440059593681 9.021853970265 2.22224270688262 -0.866176887123076 0.12944013177240934 -0.06217930174222194
Ni 4.789431434123298 0.785684042257413 6.329043115830673 0.28106554139260626 0.3632973909103292 0.3575183223347068
Ni 3.2905985525986745 8.539741276455926 5.376788566350033 0.9171230391536399 -1.1789227903380985 -1.0113935650034518
Ni 5.111070999953013 6.354138122445145 1.5142496571020423 0.5076481212459838 -0.27654682758664634 -0.37718803284949237
Ni 6.553989377286791 5.665925015903126 5.30099949149229 -0.19840457475726475 -0.9498112734152805 -0.9283567030859302
Ni 6.588898466196826 7.846253393462927 11.833811999840982 1.1113732254228987 -0.3538007642738035 0.43569785615992707
Ni 8.243791652062422 8.607217191198297 8.556620561099061 -0.9133787416198592 -0.271727551821132 -0.5240990677131554
Ni 8.259709671938468 8.519260528104521 4.7417467054822575 0.598056593037228 -0.5390821713855489 1.3675216918588513
Ni 6.624051150466943 1.0384376509719815 8.541372428463237 -0.32187820453359406 0.2549804142697802 -0.6130895761109506
Ni 2.8270553204696047 0.6729556048538845 7.718523229499348 -0.7298158598611172 -0.06240735859262801 -0.11265905565932856
Ni 4.87006149831003 3.852554310200373 4.490600826144222 -1.6184865572113352 -0.7021957841510035 2.56330860494214
Ni 7.24736483165206 2.5297003382294796 2.296249787990849 1.3856965629956652 -0.5602932582455253 1.1087663839276711
Ni 5.514586713926796 7.060030630697643 6.869510015052322 1.9013755249659257 3.7023391870709914 0.6124023202359389
Ni 5.6726145192530355 8.676876095129085 4.53852633942965 -0.32535690711081383 -1.4692813269968568 1.3292037701152593
Ni 1.1415534407046306 6.223814604801937 1.986482685249378 1.8260522296425779 -1.326760193670773 1.5400486275184058
Ni 1.3801832030606702 0.2835862229641755 5.169523580414855 -0.5887448287179989 2.1446561343002744 -0.22208880574808204
Ni 5.96162167588424 5.068694776351271 11.99264460676072 -0.27988849036536956 1.59285497268616 1.0328987860650791
Ni 9.257485635881583 2.111746914644755 3.985265999277604 -0.8054134918917742 -0.2616156601981107 -0.2220911197409272
Ni 4.170839755302822 2.289609003712955 13.507264341429039 0.40728845177929857 0.2816738644005665 0.4685179880137415
Ni 8.689655482481013 1.1101202702019013 1.2056490013732657 0.480351747423876 -0.0509194125576865 -0.9739716727115677
Ni 4.466798748748638 2.16565644164109 8.629722591754067 -0.9778956903563222 -0.9708020167343345 1.9618879805286857
P 1.0170855807556716 5.599882566164307 11.743294774750666 1.820388346488581 0.41140838748494307 -0.6917725319351505
P 8.56079353699829 8.915374690752774 13.052062376572273 -0.6604019880436691 -0.7206987280511974 -0.19095866000218079
P 4.186851465701976 4.507535388195991 13.267788553649336 -0.47711627120571376 0.02764167297666852 1.2646410557425252
P 6.545144991905397 7.259272897139085 2.898737939699524 -0.8503987983532129 0.9628907323070579 0.8493017086342922
P 3.3423813047204582 5.404425396856427 4.116097319556057 0.3317512406729319 0.19835263847340676 0.4366756466921641
P 4.5799300554015305 0.7193839435800469 10.615601910034629 -0.16315089376129321 -0.07355103391427333 -1.1839917202205739
P 2.461484268354555 3.608912104858056 9.746500510528021 -0.714811158922169 -0.48003087374934744 0.6554716406215872
P 3.2647961825347354 7.841475176784419 7.370292419401125 0.15590655349405408 -0.6098227324342207 0.7040354084629037
Ni 9.31458064066359 7.439027534774067 11.43413197588324 -0.5413809947220548 0.5295192102874622 -0.714125445709054
Ni 9.251011620734822 3.6214385277975936 1.359297711649438 0.43298662787635106 0.21169666388048058 0.938693566235564
Ni 6.4070170536872935 6.650677997134232 9.694132192636813 -1.1066331396347522 1.0124132645172177 0.8053880379704775
Ni 1.4507696431702266 7.861337567683313 3.677227486687475 -0.49986822019024874 -0.941700728493004 0.12737630726484517
Ni 2.484082422528201 3.6270880663410057 7.547883742857542 0.3320867696354797 -0.35999429467902516 1.7252156205394737
Ni 3.8638065420256424 7.237180671790222 3.1831636297507475 -1.504252443755403 0.17718243215369486 0.7303035981308132
Ni 5.766070816053253 0.8322922667879425 12.291015194271335 0.9121829215395452 -1.0663470384211957 1.704348804392794
Ni 1.6170515835822796 6.203989690112287 9.542073410537784 -0.4249421603053197 -0.1849404788325589 0.83081059180864
Ni 0.5540286024415317 1.3981249382358494 8.823919623526145 -0.3436919579745758 -0.32273463899661836 -0.27929739374859
Ni 2.134251378295293 5.220276673687681 0.2009052732266092 -0.19035882163465281 0.27661444759978815 -2.427788842634554
Ni 5.676914914263692 4.011509651705381 2.440436692338346 -2.93735217862538 1.438004628370762 -2.7098964521384294
Ni 3.2139034903824775 8.930262114874632 12.632677361794459 1.3616580339892226 3.793939879398124 1.0741737335544659
Ni 9.533010726237547 6.64784854333637 13.754104204325031 -1.272996883906388 1.0185096072229427 -0.8848757490841599
Ni 0.9533479178853087 0.5276134963564663 12.150366044076398 -0.5987291936242205 -0.5042568361762476 -0.17197517692114253
Ni 1.96174838714887 4.279698774101991 5.496128743969293 0.9638834352376301 1.7497444589187736 -2.0338624139844583
Ni 1.9255088928107011 1.8092389536336908 1.1029520082789093 -0.3187877385337284 1.9158978869518164 -0.7453075277388131
Ni 2.490884354505841 1.3383035392314004 10.550330533300988 1.1361879704737337 -0.2885345960761418 -0.8539721175267679
Ni 0.8486600011749077 8.723149844492118 7.4879049437742715 1.0423275355781467 0.1356290341919406 0.9040592639911463
Ni 2.217429824710563 2.6107707478748194 3.9993073979757976 -0.5578003166203425 -0.5165212553658975 -0.6330973866914452
Ni 7.335855530727553 5.351237286888024 1.766546992969075 1.431956108183837 0.5272430126587758 0.959689708871257
Ni 4.11050305842128 3.9250239298244 11.213620086885822 -0.40146541733961827 -0.10116930985217416 -1.9315330223859122
Ni 6.097313660501535 2.7661658495017245 11.100642432690828 -0.4764310722132311 -0.5712227606738356 -1.572740461324472
Ni 2.580452494597075 0.1541818093526567 2.3895365049442394 1.0612603679269077 -0.6508907061191241 1.924646322568408
Ni 7.944909514295636 6.910069579411001 6.550021583633168 1.2434124853810522 0.8176198041499789 0.8487103549071963
P -0.031620551548945185 -0.02501724348029435 2.902605484493422 1.356592189430541 0.6243237542638732 0.3644155636751724
P 4.499862134353446 2.957828552623731 6.755914940310045 0.7042629510926774 0.919664317518255 -1.6883223470575506
P 7.935025164107743 2.142964596944336 9.82298851668815 0.7033805484877241 1.476764008527147 0.6798361855088808
P 5.907159374801568 1.370045888460386 1.1380775222973243 -0.7055335902749849 0.7763890796349662 -1.1950101828182644
P 3.583418913520373 1.1920245255029025 4.329794159902599 2.1114418523318346 -2.6045179893009145 0.9027832254922
P 0.6152769081129152 7.569969409869787 5.702105485211736 -0.5709381395538813 -0.14560722845057503 -1.2241340967674144
P 6.8993420145151365 9.168076769679633 6.60773775658338 -0.020294488582977954 -0.19323614318244786 -0.38210578186608385
P 0.8837564711311591 2.611164248071873 6.284669410276267 0.038166226657076203 0.1407499003582737 -0.12906140827675194
Ni 4.840033685653921 7.16546994540337 13.08387593059882 -0.9889573474871226 -0.5335321881015973 -0.6278165979084801
Ni 4.761521027289429 8.723908737729294 8.59793620797922 0.6974402717438892 0.3823816612352898 1.3411257183638257
Ni 8.817992761034333 4.986603140004054 3.8807626528977255 1.0878440319527072 -0.01197722696653421 -0.08841895216504127
Ni 4.2302301779009746 2.203338770035122 2.47013846197404 -0.2661431157548191 -1.0931302200523108 -0.2541427488598333
Ni 3.2505364849176996 4.615438763659458 1.9981115529775413 2.2719943892383325 -0.30964206747871836 0.6096134446368919
Ni 5.470093084502814 4.1372517027686095 9.179445177753555 1.2121668971032091 0.47139453823058813 -0.79866691719656
Ni 0.10417636645423148 4.188837704791866 9.305724075514192 1.2817692307823796 -0.2887017177816254 -1.5164932087959688
Ni 1.1493203850702824 8.8539699219078 0.6666052611976252 0.08526292303456284 -0.9951956150873505 -0.026715304507657217
Ni 7.17766845151203 0.2507720541508346 3.185727939368213 0.21229881624085373 1.4099325527248945 -2.1845200603747474
Ni 7.905212839654782 2.3599986937239845 12.352132333210367 1.1306971225624916 -1.386468151054367 -0.3966877934453168
Ni 0.5745477639074116 2.6349429028366798 10.888180433438848 -1.4063394360569974 -0.2690335499287366 0.2320225199220262
Ni 7.28818579257021 2.9806890402620794 6.944531764525812 -0.3266918238721535 1.1299131932086155 0.8821316106801195
Ni 2.1873645358452105 3.434272969784771 12.270104406418865 -0.38553383371102634 0.33808361064886294 1.2278035751992016
Ni 6.493390346940545 1.8402411477301233 5.02588476562754 0.6481679078713225 0.11435675507672564 -0.8821349531142292
Ni 1.524232382339198 6.488143677646498 7.2053718022898305 2.705071777056277 -0.026757213489186173 0.9009970801260547
Ni 8.001611018880588 0.08952129482968035 10.655437246649683 0.41030564133906755 0.8729712843370901 1.2063592892824966
Ni 8.677616250261638 7.211874861498755 2.6011759014033307 -1.3129060613965 1.3115312925361606 -0.08320938293964379
Ni 7.488655404864367 4.581785127759069 10.389070404927523 1.1069612123981323 -0.7200423254141213 0.30202157481898306
Ni 0.2203245079512014 4.962665211349964 6.626221959887354 -3.5312685242419897 -1.9026585054434069 0.3367723480366071
Ni 8.877861005300336 1.0939680240180847 6.366094907004187 -1.8720472083154533 -0.4245233276003463 0.7390458630998175
Ni 6.833252719514763 8.8206535718906 0.8962070047469792 1.292921133634141 -1.178461277320648 -2.0593998961339306
Ni 6.846266333174463 3.5461675615326382 13.946902436587107 -1.0520447628659109 0.561636145426665 -0.1809573258150948
Ni 9.084860847055118 4.53439646117105 12.871646283844148 -1.4029391521261967 -1.3761762822100556 -0.3531129941781596
Ni 4.135359154201828 5.64415133833283 6.286768077993886 -2.6073775702368964 -2.728248729393372 -1.7564977184822073
P 3.4360530897238224 8.098112257681814 0.8483948569945121 -0.28152962551321836 -0.21672008523700095 1.1454501125019498
P 7.327357800281659 6.0483884693345455 13.552214243700556 -0.30381131972955416 -0.1991702492786957 -1.8573692945883047
P 4.510505377778514 6.716645494454564 10.807687157415852 0.17057623969108687 -0.19517758317953482 0.403782238398253
P 0.5017164988641879 2.373040414540616 13.280362758755658 -0.007668572288851309 0.4420009155598194 -0.1027417965456166
P 6.692510815701947 5.487913021997953 7.842814014359632 0.4912203147072637 -0.93538249958446 -0.5493473007569829
P 1.4326873722103852 4.165077788131681 2.8809526676979353 -2.724670525123811 0.9057122262135369 -0.2711649944494427
P 1.0464388216454032 8.638163170980866 9.930193897754464 -0.2664534479063863 0.5805376103168582 -0.4862393165529045
P 6.98361664005077 3.9421974027100934 3.9755165634429868 1.333958768301741 -0.7668945098809695 2.2254705346451797
