# total energy = -340862.69290037674 ev
CRYSTAL
PRIMVEC
9.37955140795632 0.00000000000000 0.00000000000000

0.00000000000000 9.37955140795632 0.00000000000000

0.00000000000000 0.00000000000000 13.72792158513215

PRIMCOORD
 96 1
Ni 6.92814920668406 4.324742220225576 3.1730852832388075 -0.3548505456945566 -1.7773069419180747 0.09233011429398938
Ni 0.18287498539561747 7.978537005419214 10.345567108558527 1.4636143585190664 0.025562421850136623 -1.4729094106677472
Ni 0.45569611485037237 5.14634400641688 9.829837176338241 -0.2865340207063452 1.6589387516891105 -0.48365767186865743
Ni 3.849696091277222 5.131674388361019 10.201094819586256 -1.415959989865897 1.9299121989530374 0.7669176498094211
Ni 0.1923145657098241 0.8749714324431291 7.11872292769365 0.4158862207506386 -0.9643796581477584 1.763629444430982
Ni 1.3863351835860453 6.44448327019521 11.785612416104469 -0.25706789292642823 0.701858712526559 -0.12708577260761986
Ni 1.8744657864397232 6.845777988163232 3.8649040955711955 2.122017570965152 -1.6839203613351126 -3.345795055724096
Ni 8.848040159520547 2.3496150904511293 13.009306182114658 0.5647919174468273 0.0421645491831919 -0.17117067874197617
Ni 2.159107026299847 0.11064493761775342 9.549320125134871 0.2559021547531012 -0.12025049485334129 -0.37395024263848503
Ni 4.024652859561102 6.245195946133259 2.1080325562233866 0.11062017085242884 -1.4148603290438149 -0.016840211485790353
Ni 5.9506874184248195 2.3893656283799927 6.3923657940268 2.350973279036396 1.5188869058391261 0.33669290094892335
Ni 4.898770752846249 4.173018600230935 5.237586404450008 1.1473483579659272 0.8468275360621867 -0.0869264267799148
Ni 4.844116108081859 2.2126267453706565 12.50118025204136 0.5251511631267536 0.15476086992538507 0.6918807753782408
Ni 2.6970899437103686 4.360150025955037 4.10088703774053 -1.7996053483049586 0.059363943780613895 -2.4244196690520052
Ni 9.375124038452226 6.546973626011323 4.829592811024509 -1.5481949107746242 -1.650929251121073 -0.7400012850345514
Ni 3.5322545609175156 7.626850733677185 11.067202576158037 0.09897204509053922 -0.6578619952306347 -1.491963856196037
Ni 5.7081791224949585 6.152141418810879 3.881844502969336 0.0893095823001107 0.4095649065183011 1.0221582597191234
Ni 7.933308809597369 8.629365303155868 8.761969646011718 -0.8665034172245594 -0.38128714261953045 0.2232190626977833
Ni 6.060606378780729 2.1838409027789436 8.8357435679149 1.6241072458322223 -0.14644977895652841 -1.4296937945122217
Ni 1.6669807346406722 1.754885888361603 5.270547085274882 0.09293766597100124 0.2200604624641436 0.800298539262712
Ni 3.7639482343292125 4.276990925134532 0.3989348228894693 -0.9144593762785477 0.05934208940374296 0.9186957829573985
Ni 7.651378260030176 6.588646971933442 10.826305687122035 1.3593466122472266 -0.5964766501446179 -0.8093825038418513
Ni 2.1260722470205984 2.196934756235454 2.8098996817419923 -0.908279472720081 0.5057262216329226 0.17717163352041745
Ni 5.904877690429405 5.951775446362467 9.328273180275097 0.6843165898777376 -0.3125368725280101 -1.1462309565320326
P 3.1900416358739654 0.336814055380536 3.402067328402455 2.1065323308453587 1.7527179397248007 -2.044889361222581
P 5.879102683768594 1.8971549207601384 0.6301567048764799 0.9293982569765672 -0.15226252898356357 0.6703853245086261
P 4.657838221515739 3.9458552500423716 8.029790624923336 -0.09439728123566324 -0.2583948392679679 0.1109659842276218
P 2.2053013158939123 8.228351971723445 12.82903027035285 -0.9375787359048304 -0.06849033156191431 1.338100815494573
P 2.0057232257451756 5.156661512722154 1.755402701631985 0.31918008887614063 -0.3024627761214597 0.2879167599864848
P 3.2434206616769763 1.6222496550317183 11.190150671067268 -1.4111666822423117 -0.5169046068472453 -0.4777204804486159
P 0.3725229447030877 4.331139074134845 4.717545630504357 0.8057513348471671 -1.3903008945368958 -1.195449327238212
P 0.21845912668738723 3.3466332429344576 8.765895926138434 0.8144360071053587 -1.6082150000819981 -0.5725602485383365
Ni 2.4133585203153465 2.6036789934428968 13.196431042152929 -0.47634905402238603 -0.9851480010433615 -0.5395064034071612
Ni 6.195503083946587 8.396517944948219 6.68568968442037 1.2260094594132562 -0.2906832669880284 0.8917729904246254
Ni 5.826708510840178 5.930080544467832 6.489407568558609 -0.6661270634529044 -0.04272119301761029 1.06730708834162
Ni 6.1254941138897125 7.069630356782921 12.441848025100205 -0.3594155393574197 0.5873978277718013 0.8949135929361361
Ni 2.7057472694556117 8.18625654599793 1.5194338287894302 -0.2798242127863374 0.6518970358964515 0.48696539608565165
Ni 4.605415909933763 0.5218594689207355 9.682399073280763 -2.9851145336113234 0.20220286545743243 -0.8385786657898332
Ni 7.350566673924333 8.807520498394382 3.2908296031497075 -0.7664409672833188 -0.1119453174217556 0.7306039029800513
Ni 2.545441360125221 3.1152397151607323 9.04013805759796 -1.0526569425286127 0.012298614861694947 -0.7827258204862713
Ni 0.8395561230727183 2.9987738280765672 10.97128634776862 0.38298895580198555 0.3883875011097376 0.3938444104592507
Ni 7.786284344747221 4.617224764877707 5.4098446758574985 -1.5687786484632467 0.8104873068702558 0.38327897623857865
Ni 7.70347228732062 4.040204155428505 7.985462866015409 -0.2488997552933391 0.7840962184712367 -0.2047847672519957
Ni 0.9025144845026162 6.76717734921942 0.8943402056434835 -0.6937296556615213 0.47132820376902695 -0.26485884972575674
Ni 7.279901135284396 0.4782173552045471 13.22757959368855 -1.3810703770775634 -0.1543492363092632 -1.46796080841322
Ni 3.8140162785633493 8.704448610404699 6.407946166502881 -0.7229057630048453 -0.5651359310498073 -0.1505342334385472
Ni 0.7060035075919017 4.981282664634877 6.652770273620717 -0.21148583342125513 0.13432908443359448 2.1386081283339813
Ni 0.8030987455654749 0.04474890075620865 0.641308991237362 0.4157625506885807 -0.4836437879115864 0.036978634106878246
Ni 1.7686175512988034 7.273204135737155 6.336821967809919 1.149893235874968 -0.052456160917187085 0.722719358025652
Ni 6.49166241266387 0.4957627436542241 10.643504800180791 2.6016049294191776 1.951185506509517 1.6892957667144133
Ni 4.57070219099211 3.07246896174978 10.226738512530453 0.8750852453562994 -0.9693819964583563 0.9183520264647345
Ni 7.325842176996423 3.355947137262764 10.993992365281171 -0.640071246906117 -0.5638614352127579 -0.43449817942487107
Ni 5.399863895439825 0.5752572538261194 5.256421481187844 0.5416789855784477 -1.8289264658665794 -1.4482311911947767
Ni 0.036088761145609514 4.095365295956972 2.5176731988372554 1.349020033510238 0.33742386557767695 0.516930060768542
Ni 2.872806455640364 3.819165652164799 6.2110196754746 -1.068438630842902 0.08902213296667894 1.9192650036518368
Ni 8.135822699267514 0.8110150867669756 1.54312845099705 -1.157431196123226 1.369736440121983 1.0225315838981421
P 3.3671744600331386 6.157178237798089 5.145252226658759 1.824405438067774 0.15207792377658325 1.8377147535821707
P 2.130096074479655 6.832862346179267 9.397846939156913 0.10142462039608985 0.3399957400699112 0.3100318467179693
P 8.533102969327667 0.41250984732185325 11.314991559405959 -0.6640856075428433 0.5104395679481919 -0.2276123066694725
P 5.792088587410392 8.05150053409987 10.12003111050084 -0.8349189575500587 -2.082771738090652 -0.09891085283530061
P 7.302149430699041 6.959645739568706 5.326035572139761 -1.2406022696257668 0.398431772719617 -0.8392556372521998
P 8.38654748203685 6.2547724678947905 8.362280707206846 -0.6292075647187357 -0.24298750357396212 1.1414960129502083
P 4.658926249453386 4.120174208845562 3.0909100973377788 0.9205711456032403 -0.4452790720904589 -0.8461431084006523
P 7.044858962099077 1.7694429518032253 4.404260179275438 0.4480995722583896 0.24762063147059934 -0.058765905185298783
Ni 8.892452334389157 7.51027229197878 6.701119984077466 -0.8825206185884221 1.38133494359286 2.400463415346724
Ni 9.408815386314538 1.2296497810136868 9.510854585718574 -0.40370407686214993 0.23712538836623034 -0.05657635373314772
Ni 3.806859681007964 1.5128090517863257 1.3687175725922314 -0.26971489226647744 -0.7311525763946698 -1.4630057784007902
Ni 8.374785524848837 0.16907578968987344 5.383816421314649 -1.0499007199397143 -1.2812077018519548 -0.9543240736839692
Ni 5.979810924859251 4.655812238459431 13.63797622812806 0.3596114574183097 -0.7317575569685205 0.3560106274409288
Ni 3.9467275483027264 2.1190751018353855 4.683074841938438 -1.316585052909984 0.7428097010176239 -1.5682618567278281
Ni 1.1367078083055455 0.7109493449326023 12.066046927257398 1.682200807540845 0.3485150903948321 -0.9413793405978432
Ni 3.8164174436671217 1.931352764386527 7.013156079088328 -0.39300263128424573 -1.244927893584314 1.4593054467310675
Ni 4.913843691603136 8.351327267331119 1.1030689859298792 2.640710637171388 0.26284876127426343 0.4891210089760738
Ni 1.8001328432858206 8.873130458944734 4.5312302257334895 -2.260576634319694 1.331744534259242 1.7665337625619704
Ni 8.7781531236291 2.464955431392901 5.78946231307814 -0.8891219259550236 2.1817368412026554 0.6353530154948412
Ni 4.215995703767993 8.947744788634237 12.770069473638685 0.593263799634275 2.7383241113515036 -0.3786692453807092
Ni 9.121163310523512 8.199481713171053 12.573059504604844 -0.5603415949849575 -1.483214392138181 1.6324124232638082
Ni 4.065838468821516 7.63650229184821 8.63140347962872 0.5602822025019318 0.8424294069944912 0.25441091491955536
Ni 5.50173520087762 1.4981488132816507 2.903702697249065 1.2648012354694733 -0.28270667654045506 -0.4324335835863584
Ni 0.9480099975332791 4.557158119078642 13.281681782888048 -1.2738268360068514 -1.0444944613224787 1.8314263494702974
Ni 3.939167630046317 6.702739832567394 13.360095768763246 -1.1380098541738208 -1.1398006275256563 -0.001241842826901087
Ni 7.785280732770253 8.062071288287182 1.0147417524055509 -0.07590230775526927 -1.3836918738608106 -1.2952811492258853
Ni 8.296466272440624 5.291492561029706 0.42407483393494627 -0.7205246643671784 1.4809754755053333 -0.5273301730559435
Ni 3.202525818503346 5.7160298068381525 7.618282513668214 0.05156578789243377 -0.4804049692593146 0.13920621002023767
Ni 7.953343530931972 6.416429032596054 2.6720849982019788 0.0653571852495713 -0.44248736827793467 0.26069931903142846
Ni 4.67300495578449 8.14192878709 3.437265970140455 -0.5070174296405203 1.1789636708783633 0.8484185346983906
Ni 9.114241201747792 1.7035891229220201 3.6475639493403715 0.28805097157150394 0.07704773421362214 -1.5852419362255925
Ni 7.740043157397222 3.238946615760962 1.2248624580880398 -1.2807032514117105 -1.3459347097166947 -0.2769772302558456
P 8.79331985789785 4.685808043154217 11.789154134632533 0.23066652011476405 0.44772470541747406 0.6095365686523697
P 5.994086601765275 5.016803024978578 11.564180909646044 -0.8922568720395795 -0.0965148417992983 -1.8710244234778939
P 2.65669221674963 4.846620448248685 12.278142966419786 3.752045038936551 -0.9924363071746587 -1.0955280308605264
P 0.471445319247813 2.051889376685682 1.3421471799907962 0.24596972613073764 1.3983111664358823 0.06997617207882142
P 6.165554177007734 6.3925955930308715 1.1497669574226659 0.3244742473955444 1.1430582152310056 0.6067934586895937
P 7.429673808632221 0.9106559349325956 7.400996768834273 -1.2517359176450829 0.268894196137395 0.25108082210505794
P 0.02468604076804493 8.052466627872091 3.2631955694437105 -0.008883418532558893 0.5820895281850104 -1.277368787721839
P 2.1718069386065197 0.48648073979995254 7.239625342489083 1.8403437065645853 -0.46466621836781913 0.4239373731898892
