# total energy = -340868.532345529 ev
CRYSTAL
PRIMVEC
9.24523814749968 0.00000000000000 0.00000000000000

0.00000000000000 9.24523814749968 0.00000000000000

0.00000000000000 0.00000000000000 13.53134055185437

PRIMCOORD
 96 1
Ni 6.196722516364792 2.7057206198209895 11.689684567243436 1.56541461708702 0.6993488016205117 1.3948815719290428
Ni 3.281976308940627 6.1727403688022005 8.92306648875628 -0.3021581003968474 -0.007633605285857822 -0.2702890196023926
Ni 4.2501653757090505 1.0213214499766785 12.608854457222492 0.7311767447643859 -2.904619207168733 -0.9841087611455697
Ni 5.995943681123156 0.8691568500967912 7.4663091178998915 -0.837078427095223 0.5757946963152342 -2.2298203269734436
Ni 4.190857173467714 1.9863394000859003 4.178031254688384 -1.1679233539038016 -2.4519669825426544 1.3882486399935574
Ni 3.107694326017568 8.252715540096245 10.646119998985785 1.3360686155558925 -0.6222696999483219 0.6407466757065869
Ni 6.069092004760483 6.463937632402413 5.274461943297773 0.003948700235102877 -2.478357556721041 0.19251366319412652
Ni 7.032399585826111 6.929028578926598 0.5913531628936208 0.045822457650753344 0.3027008602741948 -1.0138080879822153
Ni 3.235750118573257 2.5286373297616676 0.3363334403987199 -0.6976819554410502 0.7131725948774814 1.898719061179685
Ni 5.332865961255523 8.659422808186443 9.086457581228787 0.3383211805809657 -1.6676182817409797 0.45447256566426897
Ni 1.5332395273430102 2.935760633565171 12.056898027331366 -0.47631614390192156 -0.09795928755530871 -0.03386528528887717
Ni 1.252008630386003 7.056317016722188 11.608009360530943 -1.058243692587771 -1.4292597922985966 -0.09850487564613358
Ni 0.8979039933624514 5.771737412603336 6.915070118483267 0.3528003480337472 1.0382155702923024 0.09383652363618677
Ni 0.3931297114554931 3.7133313817347062 5.87304858046008 1.8117018744581768 -0.4901949587665429 -0.46599830691568134
Ni 8.039030352504039 7.236229349631993 6.901755126609849 -0.04833519677027805 -0.37004653670870463 -0.2042162963430354
Ni 5.31955281842972 7.779803122161901 3.349845601638 -1.2486631922570302 0.7491148173000454 -1.1651506762546708
Ni 0.7004978209700188 5.928000426521194 9.388571621946156 -0.35044650308958997 -0.016476143278152267 -0.06452131961183728
Ni -0.2597653031980151 0.9863652048208732 3.987118012994952 1.0989542829332557 -0.4452608172580138 0.7887028640053126
Ni 3.938859719299032 2.934050264521578 11.492925561516145 -0.5127425050497556 1.5279104494939753 -1.2391786498053625
Ni 7.681711146202342 9.061378023906874 8.504690805693551 0.473083753007553 1.3499114349762558 -0.4649140727125671
Ni 6.057868285739285 8.702071091419379 5.36413428094382 -2.404541956291472 2.174410225634255 1.8620147637801157
Ni 0.06016800938216913 3.46675163707708 1.4880552753065206 0.8256853547669327 0.6178792841901101 -0.7564185500503102
Ni 1.560087698708379 0.2544197065439324 12.021932536937488 0.28850477127947083 1.2618449810546268 -0.14112271031666018
Ni 1.7809841719978945 1.8034778362306567 2.6903282229524623 1.6425345992994744 0.040223109186104916 0.13943812352538565
P 4.245126720959007 5.866399405237638 3.6872089615581056 0.7729193759188108 -1.054922341524022 0.8479979022212042
P 4.816611867232732 7.427504080134098 6.925786273934231 -0.16385177648305976 0.8081298623816728 0.4509347277143395
P 8.432045423007422 6.263658040016744 12.426140817176424 0.10690621233595138 -1.323864360180217 -0.28517082181023146
P 3.4268676800281126 0.11892242186290408 3.081302869413029 0.7899915009097491 0.1983958330065164 -0.6197199369432747
P 9.207267880706295 1.3338289873362486 8.799661050951547 0.5395213158054967 0.6693116318284731 1.4400216588007908
P 4.940192964560859 8.195016009279694 11.953708227098094 -0.30394296021141204 -0.3754101150134631 0.6709764211254058
P 7.717185124690261 7.113951830872226 9.162882417239352 1.6000671741638828 -1.196795042632829 0.09243655796486662
P 7.903337993299661 0.45576897297470176 6.078724618309235 -1.1816982962007068 -0.5589621981389277 0.1486778969560988
Ni 0.9676805786743821 3.54230372261351 9.471004938180673 -0.8230258056568988 -0.6855460914094645 1.507519544542449
Ni 6.867085483834322 7.458623551489413 11.319182575972771 0.9567026012184751 -0.7548933716550353 0.43859831763617363
Ni 7.921255264686054 8.096711392844444 4.436615016460609 1.5041115473021642 -0.37971002794039765 -1.3182408433458523
Ni 8.383933204073063 2.7388555530763203 7.374296810497447 -1.4560339750686473 -0.9997816917961362 1.1677976269592145
Ni 1.803209724326526 2.1207744069122865 7.7442838420074205 -0.18127691393804263 0.41834959468946664 0.5375971021995902
Ni 6.630000598678153 0.7369434739794608 3.174574378241079 0.16042346752780115 0.13519631752989617 -0.26509719098880796
Ni 9.033337216830027 8.697078662859703 10.448197017785047 0.23413982337534514 -0.8063375463679403 -0.2611340925760019
Ni 9.392052454080819 6.101274678494246 2.445884128289809 -1.889675720030494 -1.265874156818678 -0.34728533175278903
Ni 3.278342930377752 0.3484964756081823 8.75932407723698 -1.3462334719040363 -2.0961165348286737 -0.6332362262621546
Ni 2.465612541814795 7.946254388436727 7.244517705564863 -0.27328101235118096 -0.7945413250639607 -1.426263428674434
Ni 5.249862213831873 3.924973371712674 4.82213682150544 -0.4826485138778527 1.6153045599389277 0.3938161283244766
Ni 7.3212762946698815 2.293383001744047 5.07181741901291 -1.4564281251832725 0.4195706115807612 1.1019485896748893
Ni 8.899752771906401 8.393437308812594 13.007772612235788 -0.29725809199206876 0.27982138457286004 -0.2273690803104149
Ni 0.46039066748763147 3.9982696191591764 3.644436792134985 1.009860673298693 -1.2038493783764492 -0.054284986595809735
Ni 8.250820266291184 4.542518294068447 10.55348456253719 -0.6400347372412268 -0.15394197356851555 2.1805777878975476
Ni 7.638101358209764 4.8885213289682135 8.451715591532546 0.30179377507889316 0.6242864732680345 -1.434364974735646
Ni 4.698503950844101 3.3197061255184748 2.514840660984622 0.11280329454667669 1.9528724072936365 -1.6368043816839166
Ni 5.87071693141795 6.253599220992805 9.552841936559451 -0.7927281831146218 -1.1328774180432617 -1.0401120159840667
Ni 5.53939533457886 4.393827130132763 7.30082120543232 0.15362829898283864 1.4123344772981676 0.8454324554868731
Ni 7.398649692106786 4.479151432312856 3.98765885942225 -0.08359530552415281 1.2722317236055898 0.007279821490864881
Ni 4.832754052909018 1.163716606784326 1.4415609730350196 -0.5463272829837366 -0.6796634073764424 1.2525283316393911
Ni 3.201006513893142 4.693936803235805 13.070625438754492 -1.057434052202282 0.8668677425425135 -0.23028214019215182
Ni 3.481349867995095 8.15386545461466 4.997069669188873 0.6806813071179955 -0.47863450762245313 -0.4399031524905263
Ni 1.6594277818078578 7.659494839111782 3.2194174809926577 0.5087727217687303 3.2224224703020052 -1.6828983478285018
P 7.75766077697593 1.2490409089644179 12.854272999978091 0.39419408048918564 -0.2562417974807071 -1.56073983731917
P 3.0165640143273342 1.2710168398650656 10.48965728792554 -0.6546049217459178 1.1384780520594908 2.8603427538488613
P 1.5017132655124636 1.9403258501942198 4.890280697773596 0.8582620031513735 0.7884807206921776 0.901787437237834
P 5.11564909271925 3.7073497127011685 0.2100758466483215 0.6270390963125072 -0.11542890509498185 -0.6169868542828277
P 1.348075899207472 1.564146358222634 0.3510629536973788 -0.7545231327998102 0.678777148116747 -1.5213088850170575
P 2.079466683200004 4.836544600519143 11.040856532818449 0.3810696272920856 0.8174542251063922 0.03488575613359153
P 1.3338937040027627 7.931018236091642 5.196670661099948 -1.3960095148858989 -0.43968538005276536 2.98599539355438
P 7.968248809813522 4.915129124143672 6.255024836703734 -1.6739151704932849 1.0617823018686487 -0.08632761685365133
Ni 4.872258955196973 5.717680505587734 0.8790122738831145 2.5775879976792897 -0.3393840746278413 -0.17741280299694606
Ni -0.07777833886452251 6.152964804563039 4.732262013145584 -0.33558964058241564 0.2675808766426101 1.229485847997631
Ni 3.047905371396411 6.21960448059664 1.8305876478335048 -0.996570126837374 -0.4885062582102103 0.4236347543478059
Ni 3.402561949132949 5.794434472073715 6.4947048601871264 0.1550298073160556 -0.48163369946009316 -0.8015357541039229
Ni 3.171652883009861 7.228139766317704 12.89877772701618 -0.22586884161580453 -1.0214077547063443 -0.21079060712644343
Ni 8.357602766039808 3.9079436431813352 13.01494414340938 0.1880414863553858 -0.0387048727693656 -2.149078688848002
Ni 0.8886652269556288 5.516115825109852 0.27977939457947176 -0.47130866338500116 -3.6586579441329574 -2.6087237998521458
Ni 8.73081453658981 8.369224030298165 1.9058891874181436 0.47369361867741 -2.1961206207281534 1.0988799780518945
Ni 6.590467960675978 1.991174659598327 9.369844467704528 0.7710995491012527 1.0310213665367083 0.028505049418228325
Ni 3.4330342538231196 0.8037773000126047 6.6770265021388795 1.113066811075238 1.4401173038383908 -3.0326028090002737
Ni 6.352726663616593 0.39972618882091676 11.10721422909081 0.4269165104228712 0.965442295084318 0.5759224801423501
Ni 2.8692781265788194 3.39886385390356 6.021730499157689 1.1370796290500675 -0.3391102521411643 -0.8132563849749607
Ni 6.841716550560709 -0.013512839968189675 0.8346009237495672 -0.23813146103324148 0.8415991977837118 -0.3508018295464797
Ni 4.09158180703475 2.396282501501813 8.796182992388307 1.3847066882785701 2.164334329455492 -0.22808024744482652
Ni 0.599036880256485 0.37349097673981946 6.913013053011919 0.42582276313806017 -1.4764354215431348 -1.1707927050317966
Ni 6.309292535147412 5.337747446958317 12.392380905827327 0.13475485911710341 -1.1910776805330778 -0.06332627086247158
Ni 9.007145457367875 1.2257059280669693 1.6506882582570026 -1.8990432772883228 0.20984958336941278 -1.1057342819695666
Ni 4.720415165078235 8.090535573811364 0.7852184091039129 1.1789533864657178 0.4506467641602755 0.20007193515735866
Ni 2.5090744059981964 -0.17348042078208917 0.7455757527686635 0.48097961081586194 0.28976204072533973 1.6723264858499263
Ni 4.289984616091504 5.434424901492636 10.964810751568896 -1.2834589597799768 -0.2787713460417908 0.7365367235247186
Ni 8.871314419592395 1.8198049266684122 10.896693686491155 -0.9312180837941253 0.6669063648210902 0.7650212041176567
Ni 2.115051604544806 5.677944472347942 4.058076139732673 1.127793575762451 -1.6855689526821291 1.3435461548798602
Ni 6.807657093498031 2.4980818179288358 0.7674620048599987 -0.02002503697167519 -0.8240223652422132 0.9715782327787268
Ni 7.208207033031294 4.6952311365660915 1.3367514070912736 -0.42770583909338605 0.8822421681160548 1.2588036231251418
P 1.3674261824952532 7.22789014488972 0.9988472007438705 -0.2896360566704367 4.379858808631554 0.3982661936760302
P 2.171456802031071 4.048600695231169 1.9421129547138225 0.05498381243504724 0.4750563033528915 0.09590626168102193
P 7.81940047683059 2.6438607318713747 2.9446221942585957 -0.6217616499636518 0.2406915084509339 -0.5465234581549426
P 2.1128974640736864 4.294440820842918 7.9061189609121625 1.048949925990671 1.0477579625650986 -0.7116798123820388
P 7.102885280898278 6.933688178915629 2.6846858541562217 1.5243080768546975 -1.1525270739533893 0.34259512536597125
P 1.6350850699604003 7.83515436250779 9.140258395149754 -0.5254224145102693 0.31217254721005594 1.0597716991965234
P 5.092591468964007 2.5458427178164027 6.581644305458654 -1.4457174236339876 -0.9157001906641842 -1.5889355830270957
P 5.702999067527057 3.9588201882996628 9.978389150795774 -0.14055835317275792 0.7267343927223162 -0.5428573221572651
