# total energy = -340856.84609903506 ev
CRYSTAL
PRIMVEC
9.41023509085657 0.00000000000000 0.00000000000000
0.00000000000000 9.41023509085657 0.00000000000000
0.00000000000000 0.00000000000000 13.77283025660900
PRIMCOORD
 96 1
Ni 1.9798193412000762 3.4977184770601264 9.653706948984649 0.3865977561991664 0.7563797263925747 0.0865621014619606
Ni 5.1980161978837245 8.547419961142557 6.237452876301008 -0.11434364245060306 0.4784488739742082 1.1338148422558667
Ni 6.6543535763877655 9.103113158236273 10.518531070875612 1.2884296735216907 -1.6372265568229996 -0.3763172002087648
Ni 7.481023900479901 1.6780236945836609 0.5300145478315516 -0.02025335093239738 -0.8501463160227746 2.169694822436457
Ni 6.737860001758788 8.104273174623264 4.505629927211073 3.6070006249679816 0.013523231297415419 0.6543866350875246
Ni 3.3871011646602645 1.6172053457924822 6.739527495400409 -2.2205784966602016 -0.41095073112223424 -0.5937926755545515
Ni 2.7472428257456754 7.399371291403456 11.951704214908917 -1.6696268275305761 0.06378778387992241 -0.5500674667524591
Ni 9.24737206075349 8.401693061965673 0.07924923505799022 2.319656471200986 -0.3286679737619178 -1.7766813925189338
Ni 5.307316077383886 9.337042190048113 1.6824615614086522 1.3824875691400642 1.6987918791303065 0.18036082988167648
Ni 4.287472449255651 8.97529393626032 11.713227216522611 -0.7999640387414286 -2.5199261241914472 1.2867528000399002
Ni 6.904383520280945 6.3766387211308775 6.8623404723574986 -0.7515725348119185 -1.2433327811830521 -0.31142384196948947
Ni 3.4358838228891786 1.297916072315042 2.501132244729105 0.7211959794025903 -0.19001583647293727 -0.9975193781245206
Ni 7.898659539919991 1.170002747989111 7.943259348692355 -0.27636427926219503 -0.31072115947551004 -0.5755892651726475
Ni 1.5251732475133968 0.6840121025480549 3.869738002348083 0.1314473920104252 -0.9459474195844999 -0.9213807859887293
Ni 4.695264982887978 7.6839932591487745 4.14446510799315 -3.9982299664018877 2.7325900370812035 -3.6637836953952965
Ni 8.154552060216838 7.895638854485678 8.842611504837473 0.8907818301559497 0.26339203537224315 1.1626528495334816
Ni 9.19280210800089 4.330430172020889 10.618411305142914 0.08422522579866785 -0.6701122733528976 0.8333320726789133
Ni 3.4190489124780044 1.151069355173414 13.467155748646023 0.475999126882135 0.26892144983090466 -0.2574476448633502
Ni 2.4801333053313774 1.857627439752845 11.062281738733542 0.3120977281080625 -1.8757326275868405 1.2160040114611124
Ni 7.090395635483672 5.3018016796751395 11.379029307738058 -1.7414757911520784 -0.5114646667785966 1.0008888088173857
Ni 2.139078158303884 5.374486334798621 12.871645965229355 1.3933926460883423 -1.438216230160936 -0.005080756957017056
Ni 0.011006210853498784 6.164099153469178 12.807038114804538 -1.5404659175614823 0.06536746966221645 -0.7628231680250733
Ni 6.1412416926593725 6.823163782014403 2.4934469058063518 -0.8474134904726437 0.29368168749472 -0.8540806180801742
Ni 3.586758120609892 5.40789266904103 9.724664825986023 -0.3311804557711264 -0.49789592695522644 -0.10182468404798592
P 0.44768346081176175 6.1874929976738615 2.3235178232384692 0.38327794779731406 1.7942921636221616 -1.0331430408654014
P 5.913363441951159 2.3093469503551893 2.562779635223596 -0.09538021397422282 -0.82911109261903 0.9975070368293467
P 6.083237004132555 0.046704878341386084 13.122807960392777 -0.2042908583347127 0.7311695456755343 0.364720753620417
P 6.695749200143358 5.738916505560804 4.225352664964268 1.0964258600844472 -0.08162069829628524 0.924331383976621
P 6.83078607236267 1.7582271274704344 5.709554690320476 0.045197936692877 0.033687622060432305 -0.11223996584403896
P 8.661716675426582 1.546487429783553 9.910597895214767 -0.34911801408615356 -0.3136144218629051 1.1303716209022725
P 5.435652862284721 5.760174226420973 0.4516809286388533 0.48327971970394823 0.4520981518948214 1.462433707947404
P 7.421598266468405 8.405203079619877 6.933807443072258 0.3121676621140495 1.338682913250288 -1.185371631287236
Ni 2.0636268940910307 3.5237189563592177 6.684051337017516 0.8054597717486773 2.4123501394819806 -1.094629944526289
Ni 2.5827425077480592 6.0878291988115105 4.112663218817877 -0.8754598550868986 0.012080585313617906 1.31961972597125
Ni 8.442994583371288 3.3338392345723684 5.738904272255305 0.31164675661357294 -0.13612320021953975 -0.1625435991945975
Ni 5.37444869385863 1.6996484146087465 7.314061865006844 3.208094483715107 -0.39704080590936136 0.7887673986946611
Ni 5.306958488453968 3.1032790668897645 0.702923851823257 -0.3805659481827897 0.8306054177763695 -0.1680035938679042
Ni 5.087229501253902 4.4470982655243745 3.2972710613706786 0.2616223450663301 -0.9939319178835786 0.39963890565384075
Ni 8.455406683333468 5.419542539968382 8.693547736330348 -0.07967128787939827 -0.18170834504850641 -0.8969283093733198
Ni 9.182535541618224 8.563963154268798 3.3925647471000233 -0.49256217344713876 -2.0038710098286905 -0.8221014940704165
Ni 1.0528076813257443 6.654334755917771 8.594603820445334 0.8063776555772563 0.6341242852940627 2.382009322406595
Ni 3.6977800731146613 0.7496221430001447 9.287666687014333 0.4201755921546118 0.5518615825384044 -0.7947531839644506
Ni 1.977193885635673 9.275188715407168 0.9175139096909904 -1.4366051769200743 0.6035096457319994 0.6315783789437575
Ni 9.092658387153648 4.6293651071979545 3.450328533610896 0.6399910284874849 -0.11276807043336709 2.1727744898030448
Ni 1.8457799538905373 6.969605859051123 0.616321459137938 -0.4815300840026932 -0.37450405825942595 1.402849677736184
Ni 0.5442465872423173 8.656945686282667 7.374441696847121 -0.13885628287998666 0.8884097303793473 0.028120669495616087
Ni 3.0141076800500293 8.762283856848727 7.5673853911492746 0.8323074880691409 -2.3969181211976265 -2.3762369386991913
Ni 4.536608420824034 5.565739950895158 12.355248027439709 0.5424199775095303 1.1664459980273267 -1.3713094410360578
Ni 5.6932486351161815 4.0574110240279335 6.219369227705618 -0.037195635213690785 -0.8078377850625507 -0.03936898871592575
Ni 5.789411826559328 7.822135508917381 8.540380164340656 -0.6574573035930483 0.28500729964917365 -0.22981497074774612
Ni 7.2759278287015094 3.3857366805855746 9.863880783567886 -1.0126991711887527 -2.499113301211154 -0.8066298807973785
Ni 1.2525869703303436 3.399315649687489 12.305307910306057 -0.5054696255374262 -0.7016142006159206 0.510649627076469
Ni 1.1271767685138436 1.5591912470306661 5.875764848017204 -0.39742492872165747 0.18286765546393025 1.4379799457804139
Ni 7.410964700920822 4.022386129365893 2.1976888659645644 -2.882800825742061 -1.7852045994985963 0.07625789132247512
Ni 8.782591143974113 8.798202723835566 11.369994541116613 0.7680432787734321 -0.7562182611140461 -0.5425989262895559
Ni 3.758814857310791 6.063823689331967 2.1853896888223594 1.429994613582092 1.676780664966538 -1.6974831876212122
P 9.339103031512643 2.478411232326769 3.4678880321169054 0.7606950659384771 0.48009129467363776 0.4224787863664918
P 9.077357345047126 0.4620622998884941 1.7067841958076249 0.29417533930168693 0.6536482142596033 -0.8328834151772688
P 1.5505620615376272 5.3526639998385805 10.733153123542339 1.6678944182205016 1.079629871573031 0.5118523891353185
P 7.364308755801424 3.8673901487161166 7.624749242672738 -0.15230366663414416 -0.591290220847672 0.29722672453350096
P 3.536121646086399 8.303779566812926 2.01522629140303 -0.914366045233793 -0.2518022736521147 2.2942128343169004
P 7.835347478854379 4.341308403678417 13.112822760036547 0.45831379378723003 -1.1795449973031298 0.4928696773852285
P 3.6300263811300586 4.132325904845908 5.012938519016285 -0.8769541802442381 -0.4727711068631406 0.02956023015562006
P 3.027714879856937 3.175182672508424 0.7905980702748326 0.5622665799218123 0.15376842410512873 -0.48061528549790783
Ni 1.271162774216122 2.2589269112366477 1.5425567746249464 -1.3666480310046463 -0.7178702574634669 0.07329932291478344
Ni 3.896298390629547 3.2579739200196096 8.343498286691899 0.2886556950350383 0.5671303357720168 -0.14777646818775195
Ni 4.132118879675956 7.948994886923551 0.10958218655009692 0.9730612450821564 -1.319679889785224 -1.611877793645566
Ni 2.0330153996429874 4.660409472455899 2.3442598632207554 -0.6367426967535162 -0.7280821649994622 -1.8505062489198838
Ni 9.174640354455018 1.2435907856723878 12.717363280392416 -0.20885070979125323 1.5689527121472657 0.010587802818175313
Ni 3.926345270977719 3.3133437427470267 12.504600690161269 -0.005380547585622992 -0.04847069390687781 -1.0495312524154377
Ni 7.399578316573409 8.389186859653515 1.067466004381913 -1.8154567135149187 1.0031338960978207 1.6207825523343635
Ni 9.254523839351863 4.303902719561917 0.9150794818970437 2.384251067252919 -1.235068484291731 -0.7614674253281273
Ni 8.620198718616017 0.29656167391060495 5.476008655073049 0.11229164501758081 -1.2112551839222172 1.9893625317998707
Ni 0.44550405038625707 2.966689505895805 8.077475648419853 -2.1906598547238985 -0.9839218419457443 0.4415160055036009
Ni 6.542456472028195 2.317684418563295 12.356790364955858 0.03265763813402118 0.9056173525068856 -0.8286367240857729
Ni 4.6770655884021135 6.0817125460629 5.408824282305818 0.23731230756605584 -2.6240753426075516 0.10384685668433728
Ni 7.730075179933302 1.0039685616868432 3.627901550067542 -2.164119128120892 1.0943437807444378 -2.02792239435094
Ni 3.4937755885960224 7.6861952541382745 9.470611065607757 0.6757216491198751 -0.22126656695710278 0.8788357135376671
Ni 5.167225908970723 1.1039334880691256 10.828474098953176 0.915815633196126 6.585879976302871 -0.7615823536394367
Ni 7.809629306605223 6.024874726675818 1.102718626730902 -0.3205486870888931 1.2689306842568147 -1.3067888927551687
Ni 1.2351215741743127 8.042899621967212 5.147196223777775 0.9015059014416732 0.9831093733467777 -0.31762842811830455
Ni 2.1817723944891814 2.879287243235668 3.7423535332290316 0.38601334445060614 0.9861332477747663 1.6835112988221521
Ni 6.085805998286971 5.302309832365024 9.260328072298545 -1.522579781309681 0.5475069051141345 -1.2195809301790932
Ni 2.272618803158536 6.614614153991797 6.622389831170529 1.7861726198388206 -0.8343589712815307 -0.05689619896641168
Ni 6.658945771066723 7.358719076212695 12.862239494325493 -0.26993832113119315 -0.4823407528294467 -0.8343327460292858
Ni 8.904924198946311 6.502481793757279 5.490566288614742 -0.651700089394297 0.08934660618563323 -1.502948380231999
Ni 4.394589154236308 1.795397555711987 4.722180137028861 1.2194199791211966 0.7854419338658537 -1.1516392720317974
Ni 1.6314524415792444 9.004428023813698 9.900102660121652 -1.2326166803171286 0.3335299298399094 0.6192530246091851
P 0.5182969232122145 5.42425706770231 6.941905891311417 0.18946510617578985 -1.6711769456265155 0.09689485084653636
P 1.9201114001386452 0.944279441095408 8.135321303975209 -3.1394912807244126 2.3448810500957293 0.4884790045167007
P 1.4490820873206889 0.08658733630932261 12.241883867443972 1.742501147092799 -0.7697088394013131 -0.35096020950121487
P 5.365810098130593 7.13529186665847 10.547797842742462 -0.20617470562098686 -0.23354718409666872 1.3747169240557098
P 3.3015244875897123 9.272638541722747 5.301850612897128 -0.6789445269325469 -0.27535486416107413 -0.6573822273807388
P 4.714386580403633 3.5634395582851908 10.283235672942084 0.7216837176722861 -0.40722854507564055 1.2640088214751648
P 8.47290972042949 6.6020891312096435 10.659468160438584 1.4137454987130813 1.8570291376400663 -0.13243161030056547
P 4.5937661882010445 6.231852845453781 7.415760156675732 -0.37138273902162494 0.5434101093369416 2.517002008566117
