# total energy = -340895.79273764114 ev
CRYSTAL
PRIMVEC
9.04005491202597 0.00000000000000 0.00000000000000

0.00000000000000 9.04005491202597 0.00000000000000

0.00000000000000 0.00000000000000 13.23103414650916

PRIMCOORD
 96 1
Ni 6.598833276505525 1.9431869215015887 11.582447399346732 0.21097958320879792 0.34688835342468644 -1.1070463159127708
Ni 4.637774166461284 0.22904787106988853 5.887240834811488 -0.04713654847648656 0.19690922115866089 0.06203557707550607
Ni 2.8294106237786685 1.6962035815047292 4.872381671296338 0.19549871396437943 -1.3173059902364086 -0.10502956413852879
Ni 3.2687482519953286 4.3092133710223965 4.995271273638247 -0.5903643665992929 1.1210475152878694 -0.21857770727103001
Ni 4.852303709357425 4.37190615177267 2.829443167976318 1.5329138162458373 0.10622538421884285 -0.6426770599600803
Ni 7.2681408613921485 5.992462553851547 2.707519043498018 -0.1915674972307733 -0.3597330705978385 -0.7696854423625454
Ni 5.1908176052441934 4.607462862372508 11.663090113111819 -0.09854832728955931 -0.46836320760343203 -0.8075536781632285
Ni 5.564515394812298 7.788848023788076 12.370805275258085 -0.21276572857494325 0.5400509630567216 0.2544438250400199
Ni 1.7954091440070363 6.414768718631506 0.29040091568358073 1.3886561598446214 0.8527978947130087 0.394746610558546
Ni 2.6929871552419167 1.6281862084167613 0.3388809221158181 0.22437477356878133 -0.6752174557899467 -0.8911273864208265
Ni 0.5957007458523129 0.06797036480247377 4.572513106113152 0.07763523128597596 -0.23838625735652494 0.08846908867668636
Ni 8.39016535575144 2.3827595911457187 1.3516030166519684 0.7017029036749851 0.13913781867614747 -0.6025498529218913
Ni 7.036760656157362 0.77615470579819 4.913211983269904 -2.323751981426598 -0.8452943872471119 -0.40506778997889586
Ni 0.9250778582489152 7.3562361964190295 2.4560111560223543 -0.9024458967574394 -0.20346553421993993 0.07521402343899306
Ni 7.807660378040609 3.6914883394106184 3.550111824792673 -0.18137692985101667 0.6544200594286214 0.6577257267630866
Ni 7.658201150334153 3.9093355824560527 12.730358994925414 -0.2593420336725856 0.29208966041725176 -0.5006665477218281
Ni 7.949634440287623 8.88513548183936 6.89252206015722 -0.6950717715117126 0.3401677468714013 0.5068179120352045
Ni 6.767104858464514 0.5910071493468275 0.5009745305542971 0.45253883897666575 -0.5177890663347277 -0.2677392565973454
Ni 1.9989550201963884 6.354824114571656 9.1713960523775 0.512743276380704 0.6779960469763484 -0.047748471028872606
Ni 0.2965761771876199 4.862094088817057 1.3586289473223523 -1.0297424998242846 -0.3197876405531525 0.5823432960670294
Ni 6.4234019710635915 1.9952033974117647 7.1000112082951325 -0.022134884225826396 -0.7296641647746014 -0.37859031251365766
Ni 3.6583655782471 4.157430849205945 0.5206411699951363 -1.1729717149609864 0.812919313350516 -0.16491775585372886
Ni 6.026462200340628 5.524938034448246 4.841659044709488 0.05179564451505273 0.19156338346571522 0.43286630024840295
Ni 5.402011367881236 2.8328458446416973 9.294510752086488 0.17665432756436672 -0.36360129530399316 0.22375462348627914
P 0.12597949310765463 5.652321448082291 12.51215195769485 -0.7324000756485257 -0.3232331758995917 -0.15362521365904508
P 3.953044247910641 6.0955734200718235 12.710022487416284 0.5028524996295534 1.0131424293737583 0.10790328614189804
P 2.414463063689513 8.4578211266433 1.2573514042363447 -0.5678129636613382 0.4830110394235939 -0.7698934446082933
P 6.330280365510807 7.691495672540824 5.8043489553866054 0.0629442049327045 -0.052401139309535556 1.032510292377409
P 4.874008881178825 0.935944004241969 12.438402285793078 -0.44312628741351423 -0.8215173394321723 0.6142686840207163
P 4.0824797540076005 6.104188592394103 8.075575061159196 -0.43639668199916454 0.21731735250136763 -0.07389376196567274
P 4.746905709246764 1.0774841438536533 3.6639776443307004 -0.7215258519381832 -0.46531850723983736 1.3427629968569328
P 0.26285315637856155 5.4754708540206325 3.584657490597878 -0.24577046563573804 -0.2555324301185083 -0.001621337653506885
Ni 1.3334713785336088 1.2147844977159679 2.3839411263215027 -0.9249919003787554 -0.0035257537650713474 -0.27661367626883976
Ni 1.6672754058160668 6.548380730093516 4.814561480138623 1.3412995249375288 -0.05668074052149594 -0.6710656384051024
Ni 6.056800624594113 5.734495547147898 9.160043551430682 0.23683768192248247 0.02156718464781447 0.8771752951161086
Ni 8.710445460899448 2.509700042089531 10.257504408608336 0.1106829057695642 0.11734874782551404 -0.32520469780366573
Ni 2.206514680762542 5.276634846435591 6.963095960771674 -0.28330651490798303 -0.15395534330495422 0.4876248840465215
Ni 0.4548838106328452 -0.06861944074448814 8.875364086495024 1.610692257977897 0.4632508260775312 0.646051375748952
Ni 1.62801444737361 0.8498121691399567 11.386826035285093 -0.6518659255481999 1.4212281802433717 -0.05351134165457881
Ni 4.025102525540119 6.807884546130625 1.644154561396903 -0.02310521855889569 0.5482149869247527 0.3477309039306398
Ni 5.589782348265364 8.05982366949672 7.979001962644556 -0.34043848403428467 -0.0011382273695012654 -0.09619165413192467
Ni 4.962194616754732 2.9176415596290894 4.916493523199588 2.339358320505287 -1.0125207366293594 0.23696623708054673
Ni 0.6401299036826472 7.44967420389341 6.748554665804159 0.7262772505802395 -0.7529179930962194 0.9496564930049708
Ni 5.453024397697212 4.479148323083484 7.244732543227079 -0.9902922642484623 -0.18533180073370664 -0.7978647330102389
Ni 8.195126171225535 7.223871712533593 9.374862376083708 -0.8083494345916465 -0.4729099464338501 -0.0957982753482479
Ni 4.688181512598779 0.40656562118336637 10.125379486177822 -0.34376112064961445 0.2231036201658416 0.2534405805864861
Ni 8.109164289155695 7.136653262832276 4.666890375291923 0.5339574485644739 0.011272487590025748 0.7106292596303374
Ni 7.363395919901973 6.2076339406457794 7.160172773672648 -0.03234447776897655 0.1674538920120213 -0.7224439928770784
Ni 2.442559554327126 4.983863628356522 2.7228274724702626 -1.066147777926196 0.32325477316614654 -0.40251391320879065
Ni 2.5586338592778843 5.333252710291245 11.362785817282322 -0.6489693207266952 -0.08143789286151781 0.22894182411417344
Ni 1.1762377036108251 3.1242700945402646 3.9084478490646073 -0.3849260249236984 0.7240285637553789 -0.5567320232568282
Ni 3.481017781165793 2.549693244979107 2.5435604717331106 -0.09209537257536397 -0.26060264555256407 0.3677505415856763
Ni 1.0948139291021428 3.3813330957536425 8.350714556156026 -0.27717340542705166 0.7133232615227327 -0.55084111169369
Ni 3.4686690661686947 3.0264747806027796 7.236131834992643 0.8015113286238906 -0.6907042385716362 0.5351854074343041
Ni 3.9630154284683274 6.776190113641734 5.959244872111549 0.43414131030608455 0.4385345542777738 -0.13924991877397952
Ni 0.7160437647281297 7.261695302246519 11.185780638281829 0.6161934118472548 0.8101646334235144 0.4150500980025884
P 0.18914416472384935 5.672489810570231 8.264368471752821 -0.10112123022305809 -0.7575292666159856 -1.7487980358451043
P 8.520052864593536 1.764437915910362 8.019355863724751 -0.04736383399594423 -0.18766559107320582 0.17917349444179467
P 2.0220162002531943 3.4002720107748137 10.44829657534095 -0.1169779947496566 -0.9827651026334816 -0.9170662177737754
P 4.028808948050229 6.065894919826236 3.8183835900799172 -0.1342285542999882 0.761368694966734 0.2736288826089029
P 6.903817608758152 4.1006412243071395 10.437566030171435 0.8170364208426832 -0.39823379777619805 -0.0634702526395036
P 6.261386107097276 7.857796522531022 10.229004731522062 0.4822211965324469 -0.6441595580428777 -0.05444825164655139
P 2.4107476011245 8.497172485634783 5.713584092146956 -0.05487582610227323 0.2093693012988846 0.1472740746300367
P 6.738429804313126 4.0649330074414465 1.566223864102627 0.733690255214859 -0.29204877987698735 0.7472188858289132
Ni 5.443559460214077 2.751349749693793 0.4095352792189056 -0.03995700000891183 -0.27308303740776196 -0.21936703594154477
Ni 1.3254257296701994 1.0771496618222531 6.9046022855237075 0.42777628732000517 0.3617652705365189 -0.0020859359947512464
Ni 7.215672382736838 0.5993086317639833 9.356457728307287 -0.8633453312115518 0.43838697295631596 -0.24625177614753077
Ni 2.490272964103614 1.573023793400443 9.195635151588128 0.8589546583430238 0.1242902121403537 0.23205183049806488
Ni 6.328011311730227 1.9760204009082205 2.597158957251261 -0.24938723645271893 0.08001632992364283 0.012985613626390538
Ni 4.259655790045756 6.930928733411371 10.200187748508702 -0.9222799007642308 0.41758854815372604 0.5871342896977695
Ni 8.078916265451237 7.223275068910015 0.5421944688941704 0.17036900877628722 -0.5551878186981599 -0.2507005559475037
Ni 7.6072875611221065 3.854462449196621 8.185736266198093 0.9354971707854535 0.49179598470507563 0.5699022420901991
Ni 3.1342412750979505 8.28614144398599 12.304107750185914 0.4026846344587 -0.2881628145590199 0.5208898167472383
Ni 0.21129862727391352 4.944250107772859 10.383305812634408 -0.4641250011523684 -0.4158725939038838 -0.38297764294807585
Ni 8.637157735803202 2.247158767605113 5.646356819857485 0.45642094763989133 1.0197113408405278 0.5959035512499673
Ni 3.8795847617712442 2.5893700459470885 11.508393077594736 -0.6735552375961754 0.2000678213923006 -0.7276530478818436
Ni 1.055182328408675 3.5101900383368285 12.341511881351353 -0.04218511800848219 -0.55426402133231 1.2065510935783286
Ni 2.8999049719099785 8.527962912633404 8.009829453868278 1.0752068028046708 -0.699307406859615 -0.7838596769803985
Ni 5.637125115790841 8.020264389242472 3.7816809671749265 -1.4793042584504976 -0.6495020533017137 -0.5725803031429946
Ni 2.809495382828005 8.72240545353573 3.3400688611447453 1.5755517055210222 -0.507304878973952 1.2728608725491564
Ni 3.6162931627299013 4.401467131304522 9.37523301833472 0.4248436870542425 -0.08340710077274667 -0.4116773248756136
Ni 7.270834797753156 6.205156965602438 11.492384044367531 -0.17090945466078952 -0.6698747034207947 -0.18095064094687544
Ni 0.4689040317814536 -0.02102626369820633 0.18363334725515912 0.8781302028302103 0.18145406294585523 0.8864232960769379
Ni 4.506449288889659 0.4257133614727901 1.5132202141970748 0.09009222610240614 -0.9595058749952249 -0.09114509284695271
Ni 5.9314060230386625 5.73263329583794 0.4367494604980149 0.24186727392658985 -0.1920081843126177 0.480665936230185
Ni 7.874665264979473 8.7296555775677 11.598932843467308 -0.2492481397716933 -0.11883793077653082 -0.2767592007077685
Ni -0.033779069149455165 4.869525013947082 5.855897156452822 -0.09636803180878888 -0.4860140879159759 -0.32239345360711574
Ni 7.706520243789122 8.596920451431252 2.706315812190468 1.3092378685162938 0.27920431981415145 -0.2357336502250263
P 8.333737333048743 1.4778229752200351 3.44524176388833 1.5728402201271299 1.2054768866775432 -0.7514342094618414
P 1.734162772041196 3.2569690604571013 1.3445373097400126 -0.009664519672957549 -0.35951889770450346 0.47907648025587823
P 4.564260439992471 1.2063772466564504 7.9879190728005875 -0.5357160831267935 -0.31820435522643264 0.2855351471281857
P 8.762570417468456 1.6118417891526668 12.221320735397901 -1.0555517475779046 0.36712319241432256 1.2938534156404233
P 6.186787574040137 7.6586893132989 1.5471710443896813 -0.673670165907485 0.14219845987934218 -0.4797948464791414
P 1.7275544919073171 3.1154379609003198 6.0707295411882045 -1.3627060156377626 1.215277674818049 -0.06849470243728849
P 6.9928711896047195 3.747717480905456 5.872633914099694 -0.3729230869255513 0.718944207253936 -0.5515211684798501
P 2.3781039628708247 8.359239327929279 10.134019066648339 0.1628215354463325 -0.16167559476734739 -0.2679901962658869
