# total energy = -340869.6272688935 ev
CRYSTAL
PRIMVEC
9.24525276781436 0.00000000000000 0.00000000000000

0.00000000000000 9.24525276781436 0.00000000000000

0.00000000000000 0.00000000000000 13.53136195016627

PRIMCOORD
 96 1
Ni 3.5496686210184065 1.6901339261534751 13.443814377974162 -0.06218675794138968 0.3689461045556743 -0.33263852837389163
Ni 2.4486144732848354 4.131398423390414 0.7760493011990555 0.8187228074061705 -1.1165851086411416 0.639169303917138
Ni 1.5192354264737677 6.655944158664399 7.130784045218342 -1.2959599204604648 -1.4061437751064234 -0.6146265815807672
Ni 2.827688332298487 1.3821745523730555 6.992709891400839 -1.2436886218605743 0.16740864059638266 -0.6152133073221727
Ni -0.4499932694108969 7.411031697984969 12.238575475418267 1.3316334626026745 0.6438332850517106 -1.288890158097877
Ni 7.582041140699362 6.912758793454927 3.947869983737082 -1.36653953045124 1.4916154717176828 0.5544283148243161
Ni 3.2475430018118527 5.913420918021931 10.240115138944624 -1.1200625256667807 -0.41429445078348653 0.008856679059681521
Ni 2.827827011091844 6.6996002428130375 0.37437264791886565 -1.0034007766059623 1.2518608732587215 -0.7538980976213017
Ni 8.424218962247837 0.9949463803100389 12.770656420718055 0.09994520763708595 -2.7926312094345 0.22054897206478793
Ni 1.8618644985933217 8.413503714147824 5.430879735810255 -0.17504455987508563 0.3194279432208886 -0.18610210324082788
Ni 5.097998858338376 0.24963292234523748 6.302150519154355 0.8029421475331462 1.1483731996860158 1.5478619529152373
Ni 9.28879803154984 3.974608179621512 7.685096125618473 -0.22613675056521054 -0.5093057114540649 -1.1411062337109574
Ni 2.6638069795626214 8.281185654779906 10.26046671413234 -0.2159850068431893 1.9881260882896084 1.8606057992477312
Ni 6.5330100309802726 1.0666987879927117 4.469923527751903 1.135190639557471 -0.9730396478156017 1.2758996593754799
Ni 3.921993445422041 7.514670982886756 5.979481948025251 0.46365526060480144 -0.755914356720382 -0.22235542914590736
Ni 0.7454003633419715 7.006551884028399 9.679632776765416 0.9722701166394289 -1.716534033605076 0.9017974645401631
Ni 5.301089328582582 1.8393153267935487 2.8364038321983016 -1.4235318886758839 1.0164807497183719 -2.3244713760911258
Ni 3.232815313957388 5.92336881013204 4.194411293515757 -0.14157419603178198 -0.06186999803191926 1.9177274839613878
Ni 5.816965194616013 4.37714649047109 3.3430714263528594 -0.548369767335062 1.2376465294315524 -1.1319873021288247
Ni 1.0465626271973425 2.813358190318312 9.38198370900841 -1.5275816053996467 1.3565073430262187 1.566686284710592
Ni 8.431744598100654 4.957369316621956 3.181724197434261 0.18905192989777117 0.1529713821251301 -0.5994071935278515
Ni 3.306906770621341 3.598492801532799 8.98512198343356 0.2926393622731347 -0.11814656113646103 -0.625940978152322
Ni 7.972042888629509 5.050034486342795 11.735831566590411 -1.313794891759357 -0.19203209557201767 0.33821705090293364
Ni 3.240470383350669 7.387798377471304 8.307065891196102 -0.04326498133622226 -0.6312698465644031 0.034998113341739724
P 1.834831379141687 1.0175325331213738 9.08607922047183 1.2980723388177775 -3.3596610150729105 -1.0966657440093952
P 7.310776175641083 3.26997198532405 5.441434116509976 1.4028643330242032 -1.222495532722727 -0.5724676888245303
P 4.9740569980891935 6.308470574030257 13.513446849169059 -0.9447631694684115 -0.26526919779029795 -0.3209554356090085
P 5.969789224894919 0.08193605374148806 1.5611672709583395 0.009680460512557523 0.5759291650105693 -0.16432820189884603
P 4.028156684362916 3.43286409600064 10.998561478640289 -0.46383729470862056 0.18986465560705365 0.01114830330733564
P 1.6157651119028087 5.033873784290313 8.787347533601356 -0.19224292603124313 0.8074945427905189 0.6330462217385356
P 1.786977950180791 7.115387001054611 12.024265890791519 -0.20102607154051186 -1.5908759945829185 -1.6953332311577447
P 7.6235800619360905 9.179426689855983 10.991228144047597 -0.21107214292260426 -0.4719115870763227 -0.28344175493426665
Ni 4.252696141312932 0.5230455596499651 8.488183168895608 -0.43819131200574213 0.4681168959205809 2.2881419455324723
Ni 5.160311862819914 7.922895124263952 10.160225984193078 -0.5867967038526927 0.43682734177867993 0.9720271473906872
Ni 8.460839408946855 5.136625524914617 5.62401306869146 0.04243142969133338 0.20161331150254955 -0.10751916332960193
Ni 0.2735818254326226 3.44283047861653 1.655819245525333 0.17398243715915843 -0.8571584856745496 0.05248958525828379
Ni 1.999248956545199 9.040812613269678 12.87001700258215 0.9817153212127286 0.37961669689564304 -0.8714175666967251
Ni 7.775276171362362 8.184138235188998 0.7631429281640071 0.6115309733745791 0.926850293743733 1.2920035069158782
Ni 4.929300728846592 3.6177876443151384 0.761721008269458 0.17237704034525153 0.30953948046258306 0.5982586817457052
Ni 9.146125288944633 8.684999810528364 8.517856732572751 -0.6145250230058965 0.47345887695878464 -0.43096342679873517
Ni 6.546267723625158 0.19501936447085463 8.9714149714982 1.8536759048971172 0.16423127130966556 0.006647073002872423
Ni 7.624144022362407 7.111707390404217 9.976592148656795 -0.5858507949996555 0.44384902451215175 0.6795993869077264
Ni 5.478709127113636 1.450164142129321 10.820408229017458 -0.27826303894680465 -2.255104555461529 1.32447911094608
Ni 6.048004064348007 1.4574216656483134 13.2110346271229 -0.5504533893369681 -1.2658073081364847 1.1299209065180993
Ni 2.512369737217281 1.453788281262372 2.0721792094461136 0.8647057018941883 1.595492667419323 0.631389659971719
Ni 8.417802756741875 1.222324129897419 1.6057256917890845 -2.533289689982547 -1.0739168803486538 0.08589104353686497
Ni 6.383236934155211 7.616599896003811 12.595871216723209 -0.9708837778148636 0.9609382365663772 -1.2007370579997128
Ni 2.965988070286518 1.5479142009398996 10.976735285616549 0.07490626239058712 -0.09973797672228629 -0.32257934436567665
Ni 4.988895628978343 5.259633614621867 8.531754196717655 -0.12066444246230833 1.8336518963667068 1.3832915530985983
Ni 0.9037780170321617 6.119275718880377 1.8145824262610544 -0.2728639794184204 -0.37907059458418585 0.609829160192124
Ni 0.7633195124942143 4.793349285092733 10.873559187884574 1.6941268695544696 0.22364843692571804 -0.36969223869307943
Ni 5.454440338276242 5.8789268794877145 11.202750284927877 0.9194079785330747 -0.8820197676926035 -0.3597976052871868
Ni 0.558103558610498 1.5534428621683805 3.3190402405147497 0.3195549557170561 -0.43176175433031444 -0.21936472194869963
Ni 1.1260348210435294 2.7957737193207026 12.292525224135117 0.056088615463451785 -0.6835342031857583 0.5603691057887834
Ni 5.191043083427723 2.9932708115661946 5.135435660867619 0.5238267878883752 -0.8712501878809252 0.8084587064760013
Ni 7.673800275636938 2.780038298901181 3.263994929330383 -0.05006323520497829 -0.7107734985176856 0.6314022583772093
P 1.487764585634724 4.718092926564585 5.9137334075696275 -0.8053368730175678 0.5019749821206065 -0.8547172232229087
P 4.358341646091944 0.016050683543085743 12.197088327597726 -0.08137515794438244 0.14272579313772193 -0.4463219115326764
P 8.947574237869633 7.741262885978449 6.417329728713983 -0.2313067248019242 0.2163580739118919 -0.2862072334945458
P 7.9555216217143006 2.304564187998954 8.838008745865077 0.712058021657064 -0.3017971175130028 -1.269287553375601
P 7.0423217674614955 3.9384499955670167 1.4702910576718 -0.3073746116007803 0.49723361078087913 1.3890425966497626
P 8.250981413586851 5.9972013997150615 0.26008190716200813 -0.9775120817646583 1.3011162678504238 0.8248055232651407
P 5.67242491092694 8.247218595660442 4.652704950971687 1.5007125489229445 -0.2709575064243269 0.6741013399076327
P 5.209829437301089 7.841083881436485 8.025139300504572 0.1779679041694677 0.8348564797432396 0.6870622709436749
Ni 0.3264175211761746 2.856773897891799 5.175407511739418 -0.8713687157366606 0.577937967910482 1.496240886304836
Ni 3.811669842680469 5.729616045307175 2.1162781412082037 1.241542522051849 -0.7518589557040858 -1.2837813761164019
Ni 6.433669788672539 7.137982399118836 6.608230333022148 1.2949901003480278 -1.2794341548912997 -2.128914298084985
Ni 7.921665505629525 2.991079686631161 13.392408922852761 0.10187276367710196 2.0725531456864372 -0.39162914797548676
Ni 1.2312273084309087 8.521978266311308 1.530803086890281 -0.8805604095382576 -0.11306811817228915 0.6063298887896138
Ni 5.139565515333776 7.588087536089707 2.7434160031515864 0.2833080575698798 0.09911576975725511 1.1082436786549816
Ni 0.5975881846549715 4.845816095245956 13.345346887539286 0.35174233908287805 0.4147947874586727 -1.5749919763628102
Ni 1.5771661810852389 4.078339917052203 3.6824110374939965 -0.3207122092499509 1.1577217307804513 -2.0272045423483087
Ni 6.423185671894785 4.311458968684543 7.1056295611540445 0.636218191708614 -0.4851738514028677 -0.5062080463653476
Ni 5.815818783257599 3.4726556644410755 12.013711510091797 1.1631040781382873 1.0336996846998199 0.29131395859349185
Ni 2.979338215460307 3.2395920843260777 5.284104874497562 -0.5212898803991345 -1.3349908091106815 0.36986578815646626
Ni 6.425709625933874 6.256983760683419 1.4797766871373874 1.3038753186527996 -1.6068008933432907 0.48004064394136037
Ni 0.7360155071328901 6.55650221857487 4.297276750750615 0.23595553642784525 -0.2929082996638052 0.40467518252616763
Ni 5.9194858039180565 3.013823008741633 9.381469672947704 0.09373753616447728 1.6610503987154746 -1.5616232683653881
Ni 7.1881286507965605 1.3444169395685153 6.934620118439652 0.09293946574321413 1.100104594487615 -0.36210285638159573
Ni 3.608172581309085 5.1787746328421145 6.532291674830686 -0.48960823302513745 -0.1974802631707825 1.4811551956163072
Ni 8.060640147078557 2.4626025409080645 10.990415486318527 -0.7415935692223358 0.9754410581682428 -0.6321275665790081
Ni 4.0106739111471015 0.38241786698412294 4.276113442359118 -1.7179085453550993 0.1361926200048945 -1.0151851708354
Ni 8.886389154240728 0.4821399382362315 5.222672942616483 -0.45896248311482246 -1.6277936935448738 -0.15273792595808536
Ni 8.22741526396913 6.028052808610446 7.8457952623094505 -0.23621727472966414 0.9821943177316761 0.9940771852121912
Ni 3.644293784352018 5.0498495812849855 12.475807740061564 -0.8973407143203901 -1.5000070382154878 -0.48304600642658735
Ni 3.7724792156779117 8.83530913202107 1.5137807272684105 -0.6288260130096008 0.30651149226953667 -0.9398680461596394
Ni 0.3130988098622127 1.3822207786375078 7.248885679216637 0.766573379096125 0.8513981861520046 0.8617062529462322
Ni 0.5578141821950273 0.8301904266507372 10.992716629762954 0.805123471455181 -1.324568842446409 -1.8306557898528601
P 5.3377652467989405 5.315539658850333 5.301871476977112 0.3149912476057736 0.587015504731718 -0.14839584693930574
P 4.521890169723754 2.7659023072317046 7.250401900690669 0.20421166835734508 -0.020853446410241505 0.29528451320546567
P 2.413214399967356 7.617376497246608 3.114946660331932 0.8116563874776924 0.1391121076445346 0.15578596875578976
P 0.9681351469277749 1.2688462424420925 0.5967265270855829 1.1846535221742889 1.7393008949879467 -1.202117740397323
P 3.5200745665161217 3.6282810063457833 2.6258552164473814 0.5698523626888702 -1.0152044541091096 0.5588590969021602
P 8.608763455193829 8.488889506216438 2.794064272061261 0.2545453836148906 0.21428422210199868 0.887677223088697
P 1.9208029857698505 1.2530461052523374 4.966523966034066 0.07951856435161789 0.20341822592177228 0.004209924316289524
P 6.994560791029504 4.965782496752253 9.826786693446618 -0.39694798908523893 0.3505791720127123 -1.1866430418004918
