# total energy = -340890.70453607524 ev
CRYSTAL
PRIMVEC
9.10695464359879 0.00000000000000 0.00000000000000
0.00000000000000 9.10695464359879 0.00000000000000
0.00000000000000 0.00000000000000 13.32894866598966
PRIMCOORD
 96 1
Ni 6.200123936833753 1.966073095584726 11.477477508263808 1.0422378040778177 0.04893400669654153 1.243604032566568
Ni 4.7822712908731795 0.3261801481113726 6.184752308259372 -1.476997978914824 -0.11886184203593078 -0.14255404344654804
Ni 2.795252199837848 1.6902780841820577 4.765845076962633 0.3017410674640868 -0.1474298834816106 1.1093924475474441
Ni 3.254497703569646 4.296387945100938 4.631916382051462 -0.22412794766529787 -0.8358900632140764 -0.00923437411407442
Ni 5.056044558367137 4.56087211896028 2.6895814741804522 0.0195889778755211 -0.1336611118322924 0.015930555187327403
Ni 7.078863087713916 5.890651407528329 2.590521486826358 1.2091481648815434 1.2013471807798857 0.4206427615990175
Ni 5.2457788493314474 4.372704224177492 11.663923277942375 -0.9492258332254556 0.12611363850233767 -0.2600336604229715
Ni 5.625338500805508 8.071238817390887 12.687146084049905 -0.4908811862002901 -0.5929989760086626 -0.7325556273897835
Ni 1.9183253329118892 6.442195895560948 0.15760404463853642 -0.4011486574301478 0.29432317773346084 -0.14410904663849375
Ni 2.670796559043076 1.6638223812324888 0.5287124422960034 -0.32398085269889365 -0.676223528456958 -0.426816237399581
Ni 0.45141625491054294 9.120888184193447 5.091232009333246 0.600395782693366 0.034203899575218515 -0.18825283103524354
Ni 8.983427812310213 2.3713325727812236 1.315290123888957 -0.07215852444212088 -1.1011880573597808 0.44055081337685414
Ni 6.681308094061425 0.8510676694990046 5.041714765392561 1.9900143064512565 0.30898463640037754 -1.0953066588783396
Ni 0.20747281702461065 7.0922958456659355 1.946493143315682 1.0579241044648233 0.4909372362492061 -0.38899325301453647
Ni 7.3917051902005255 3.7003286632585115 4.043363052143987 0.4847203088052169 -0.6781359149883224 -0.469242781994908
Ni 7.654550112241993 3.7282505858896235 12.696690172411747 0.41900651154717516 -0.06623367431725367 -0.010230676589072703
Ni 8.2512924156752 -0.20435914926610538 7.148755321055316 -1.3098947853740022 0.377585268287911 -0.3077008845919475
Ni 7.025778649678448 0.5238010617105637 0.49615143702031006 -0.21141538519463587 1.3905094110032763 -0.6904934081124108
Ni 1.8632920066040595 6.550004023449759 9.264765316248202 0.8411513116130159 -0.6562951649641472 -1.9678218295146175
Ni 9.303118344613715 4.714242340431431 1.3661907142248368 -1.085640339433169 0.14766848185497794 -0.2868299546802092
Ni 6.385924023435169 2.0967487863328733 7.373494013199405 0.6219092312851096 -0.2669275593293274 -0.25918853881385684
Ni 3.546339168878386 4.5502625169168205 0.6164889129704018 0.22178515846473415 -0.6270013010960362 -0.637609929849818
Ni 6.136584714982069 5.5117747776450505 4.840167843689562 -0.911914755479823 0.8834025069727433 0.9309964547016224
Ni 5.264193111418894 3.0587255017428343 9.421567038191435 -0.2333813479427658 -1.1934227837264866 -0.5294094241824754
P -0.1285665200758166 5.6221510667151975 12.671125129616554 0.8671829597900872 0.4845202769792688 -0.21065331021763076
P 4.019964553834752 6.42285272411004 12.660888002013936 0.5755872082901183 -0.9420642824800098 0.20167887463316234
P 2.1741852208183077 8.407731680827592 1.7751758465251795 0.6315336417487512 -0.6911498107494871 -0.5154809870268412
P 6.392307998570331 7.959651303366422 5.975234069244237 0.9380603035269393 -1.1021913018133147 0.22416265755797524
P 4.721409513657355 1.0997194028840513 12.944354711924252 0.12808798861988907 0.038935757833249075 -1.070996364267749
P 3.8916566712679774 6.305937641677486 8.219522804749358 0.4983762090257546 -0.03596279124785419 -1.0356670928388356
P 5.022612928237062 1.2774962625324298 3.659622397838896 -0.1619926117871339 -0.9328142246366515 1.1563940131079633
P 0.16159471211960394 5.671046305660546 3.489398846289097 -0.4157571513719421 -0.5860654821136229 1.584935203618451
Ni 1.4790149526763419 0.9878586802232742 2.9538416169580173 0.49490573397865084 0.0007057678177729781 -1.3941830032001215
Ni 1.8468539536526059 6.537135896679452 4.720527049762066 -0.1527466677088337 0.6686655136040419 0.2974285561316619
Ni 5.822394783222986 5.58552289554027 9.213382057321505 0.5358155848191353 -0.07423083359011731 0.39022378298752797
Ni 8.722322318586599 2.70300785726429 10.449642029679872 0.954251568574821 -1.6658362501398924 0.51059177725534
Ni 2.501753268802146 5.122980674263638 6.8350444151052345 -0.8959798294171215 0.934698586143558 0.41051004404038977
Ni 0.8624422557241378 -0.14398641550927974 8.753120217462625 -0.8200181291788264 0.8748978119358417 1.8767857514417032
Ni 1.4231073587323126 1.0920149193400461 11.496924498996513 0.36200875400589266 0.2950078625053113 -0.8952190399916968
Ni 4.22636457161411 6.861434547982088 1.5281906858216376 -0.4529862109267295 0.7705400770533569 0.8604710949875503
Ni 5.743401059510573 7.922130650646207 8.281515665719516 -0.5730562143381486 0.679552592830191 -0.39513741823906146
Ni 5.120776791264053 2.8467429208281625 5.315144700700219 0.4897357597419372 -0.025449807531672298 -1.2799275495879505
Ni 1.0783727014335212 7.33193624752995 7.026448921532867 -0.6154547339090175 -0.3375683615753412 -1.159448997884203
Ni 4.885480406717403 4.659892035714381 6.964828535003549 0.8851706546167594 0.27340031153786465 0.3432073050286734
Ni 8.385701957786281 7.132666975158342 9.33978112221591 -1.0750162840604194 0.9263836385199594 -0.10472411708296804
Ni 4.6867120168457 0.545247939661075 10.350021964621337 -0.5825291868255904 -1.3079656866720892 0.07675719955639684
Ni 8.276081545943265 7.248334404818403 4.7806402353143955 -0.7878911667372946 -0.7152688152848778 -0.09922067076623557
Ni 7.262923745997476 6.171509885657318 7.149408289696101 -0.24848632190500436 -0.041806137402508645 -0.4091543013434437
Ni 2.1460356243236025 5.503979224555608 2.4777983355702884 1.089507535698059 -0.33759098728316056 0.7098810686104032
Ni 2.739472103257431 5.261889051919327 11.377163493269041 -1.4058519548976176 -1.305953798448383 0.6505618620247956
Ni 0.7011025383317586 3.3594371407771795 3.648092993386519 1.6656220772465573 1.37658045962701 -0.127445984160516
Ni 3.664237802401664 2.6553238432732598 2.795480784396896 -0.2831802737427639 0.31218643116712685 -1.0907678904677216
Ni 1.1227599978797174 3.5261490506549116 8.074357038626664 -0.7226741066100134 -0.1759364755617357 0.5202059033063363
Ni 3.511049720021388 2.6697492592705463 7.057624759022458 0.5102305372611793 0.17587322642396808 0.2656839167302134
Ni 4.069087466643694 6.950400386919899 6.005024738947724 0.5880683714762647 0.6081720842046751 -0.18746735901947068
Ni 1.0015919676752363 7.437904770600927 11.113157434523245 -0.5095473951512257 -0.7882626911441005 2.4469600162463663
P 0.1504842275762393 5.599893669810293 8.021334527882093 0.9675449432496175 0.9861535594897404 -0.5967792689867012
P 8.433504362186381 1.922104719047542 8.271905096589505 1.2546798307647553 -1.4501628609998507 -0.6220185031694643
P 1.7350478727190912 3.4902494358434826 10.293386725009265 0.7009038048124575 -0.8886938372786696 1.3547322534036668
P 4.004965399701209 6.090813161445224 3.8937858772403042 0.328848208093524 1.5864722090882677 -0.6696049946991758
P 6.969015002007306 3.831860407733771 10.439405812772707 -1.5249315693713092 1.4866337022323752 1.6619711107575315
P 6.38225392075404 7.767895268493401 10.39211430852251 0.4276783282895602 0.3335322438327546 0.19007600028691135
P 2.526642575570192 8.829192430157407 5.749095638186774 -0.14643666633040586 -0.8537823701134651 -0.08155667782756922
P 7.066259062625379 3.991168363567441 1.6825927252425945 0.2895717790914045 -1.2059790231249425 -0.3210081432238149
Ni 5.561589818999317 2.9467919234457067 0.4694024901344324 -1.049525338878167 -0.3639687059457409 0.03233573601822819
Ni 1.485608387766011 1.323176746523837 6.948247502865758 0.2816011021811021 -0.5781086891603915 0.37435647693796814
Ni 7.124998919432511 0.8082877505297789 9.583940394924529 -0.47052319136922843 -0.8982416288681047 -0.8508014331082703
Ni 2.681305984586554 1.7948714571169293 9.12218592521593 0.04574069657022445 -0.9136006278226781 1.2342994673361904
Ni 6.755684591820162 1.8749580153745924 2.412979586605208 -0.15501772313119752 0.5560259983287392 0.9844134368701821
Ni 4.038806842785753 6.80591855308344 10.340878582259421 1.2164056177749052 2.1755083437944402 0.4631636656803636
Ni 7.8496301855234805 7.468394854413374 0.036520709111312256 0.5023362221147671 -1.3348062039037012 0.6461969001878807
Ni 7.848591992705495 4.084796963231647 8.56590217803875 -1.3029018989959367 -0.5018199445999809 -2.169994870175379
Ni 3.2842774449276804 8.524164094669327 12.336688616515826 -0.8424900850290974 0.22877598796027052 0.23314480645192753
Ni 0.19094733730953725 5.099794367995271 10.239791386823889 0.2296661038747077 -0.20075250616415102 1.5891307297570372
Ni 8.780452009439301 2.279270369298541 5.905910109866368 -1.444834506808402 1.118629649874996 0.16568523014737271
Ni 3.5253021038823436 2.4409825611317593 11.530060153103918 0.23720354990233342 0.6292217057861228 -0.027856360090635898
Ni 1.0754402620704364 3.4392687043076173 12.634203714505318 0.49985125090938426 0.18718916565741955 -0.4448728377909758
Ni 3.0028361217078925 8.498163739446946 7.942027524933374 1.4801336963303282 -0.049241253524315194 0.006577138996885446
Ni 5.789372966047379 7.796982881306111 3.725880956317342 -0.15406461518930883 -0.0493482114158247 0.7163921302560436
Ni 3.4544955323047533 8.486716297585463 3.6701791795460013 -0.5845732138388126 -0.21148609053157127 0.4197516172433158
Ni 3.3967027987701695 4.4124742946700115 9.190883326121192 -0.23772831205755185 -0.28100460624768375 -0.28852765409760633
Ni 7.104617555163618 6.006209553733865 11.547601058250619 0.11179439366618811 -0.25968321906208824 -0.8260892750735708
Ni 0.8287656485168361 -0.33711031495477123 0.11358375846045302 0.12252926358518898 0.23955996594965195 0.39241127755715005
Ni 4.512432227742119 0.4060490501554402 1.66301277297355 0.3822950150587545 -0.6480306109625097 0.12456557728892739
Ni 5.9206041810226955 5.409649389391533 0.37038985894396587 0.15238388505277628 1.315591064427831 0.21203810638029932
Ni 8.301863334256597 8.763950207806042 11.445021232965367 -1.3179873325741496 0.8004062684851699 -0.28858807502189654
Ni -0.11735859111883387 4.918465796074834 5.74491008187847 0.381668180108033 -0.1272714062558647 0.1298957312525892
Ni 8.091419828659818 8.918039878686148 2.6049560097781885 -0.0022718267533122162 0.18468851072275289 0.7431395735532169
P 8.73327798490272 1.5664508232508043 3.797337764449355 -2.4756311589288136 -0.5347634894055371 -0.4061998467008101
P 2.0013898653053555 3.3743270114561965 1.627584898407487 -1.164638769615259 0.3593324927253102 -0.22188517437770822
P 4.675237254120586 0.9575598424562461 8.223174693521399 -0.072058765639463 1.3392917504788806 0.6410166415385218
P 8.757256596216392 1.428525996685839 12.679402440601361 -0.6221704553662962 0.886207580521706 -0.40406711662852346
P 6.30319644835982 7.776091527582769 1.6365415882012568 0.6464540105040092 0.12607378640333772 -0.9941962272885587
P 1.6636857769143327 3.363690088549107 5.87935878389409 0.21246979460107926 -0.7363888850929448 -0.5577818046775813
P 6.928215845651345 3.8785244428159023 6.2240060144292615 -0.296770867943005 1.0396376474508096 -0.13160500063421204
P 2.472738511625786 8.625214862286684 10.247868344808735 0.762964321588628 0.9444597792953798 -0.5775402182514311
