# total energy = -381174.04919986107 ev
CRYSTAL
PRIMVEC
9.18345831288095 0.00000000000000 0.00000000000000

0.00000000000000 9.18345831288095 0.00000000000000

0.00000000000000 0.00000000000000 13.44091951910245

PRIMCOORD
 96 1
Ni 3.8335060663297384 3.6135714253727276 10.763730264189563 0.02849296523337028 1.968900407290777 -0.3622841191544664
Ni 2.5656929249593596 0.32433311236973816 2.92419309364379 0.16841934124908414 0.8384570526103043 -0.9450807007088303
Ni 3.733185968713371 6.002225642729713 6.480902382397969 -3.1197709194773493 0.987010508173397 1.9751181060657146
Ni 3.6805188358106005 0.5671722164780659 0.2965568246316875 2.2457061449657645 -2.388435794758229 0.15273792595808536
Ni 1.6269781924300775 7.661593892308539 7.694213535912835 1.2733992615511294 0.21755646509536725 -0.4683516376392063
Ni 8.494303966582079 2.8621441398214946 7.710276322688815 0.1262085122089891 0.1557725990193511 0.743487700921255
Ni 5.133139890439107 1.49735367962753 2.131017807015661 -1.4838229722564575 -0.11319770177161795 -0.4680073669259101
Ni 3.468169731344904 2.547656613011488 8.13361078807425 2.1497875419895687 -2.551680019564276 -1.0581205367463455
Ni 8.631725235415045 8.795190791765407 10.156335419045265 -0.9769916904848143 0.4015286664773859 -0.1474831053170492
Ni 1.5682867109337204 8.171468676248336 1.0585359036799187 -0.6027344581288716 -0.4724602604909412 -0.06570916927235135
Ni 5.063354791410658 7.590082303134366 3.92008403706281 0.9023826476196717 -0.28526620973751515 -0.12191091327489971
Ni 5.983941377409849 0.9504511921369089 -0.10313299086974499 0.8885781376364116 0.41231135891518667 1.1112546975671636
Ni 5.8302286536911785 6.205602508512584 6.070940868875307 1.9973301233863792 1.0171793184472933 -0.7039384778737231
Ni 6.451765106151428 1.4143444007595012 11.153731531266859 -0.3750542743359412 1.5270344746469249 -1.128098765707696
Ni 1.164177815335895 3.076899310341337 12.316626417489148 -0.026030105515174526 0.10058926897898805 0.0012822091465332756
Ni 4.640272871126324 8.419651634696006 11.857108208363487 0.9897783007265213 -0.10511003966747703 -2.0320127623702295
Ni 0.5142470283992588 0.5959770515369729 8.268625072507248 1.1298720555580348 0.08998783931405792 0.07474659688427128
Ni 3.047585711696935 8.033459666089167 5.3224835137130455 -0.7489422962779231 -1.1012263667968842 -0.45522769866273854
Ni 3.6713904783380014 1.425943108493799 10.928018658396608 0.24562185587301572 -2.0211033145465773 0.5124128896244788
Ni 7.339144307220119 3.1938598342558424 13.081106152211214 -1.0753536127951804 -0.5378038188937576 -0.2218440367271276
Ni 5.333688251089623 0.7819843244388843 9.182056826205734 -0.545378803027538 0.08616409469259353 0.06919429960747439
Ni 6.457541501373022 4.180319366080941 10.742708409973742 -0.46177706974548216 0.5254015885746629 0.9853518895240513
Ni 8.24161193014744 7.781832910808274 0.8425960670494472 0.792574431145577 0.9901739935030431 -1.299502900616717
Ni 5.04957042061954 5.759800712587194 2.097993172903777 -0.9319009687937629 3.2652501069904925 0.5945688915989438
P 9.084965632500198 0.703668711068084 1.2804091726675795 -1.5723938766183305 -0.4426832863388247 0.9497410822989772
Ni 8.525408339579755 1.295593102491719 3.953713861071519 0.8660773854307342 1.023512973974805 -0.24400900285994104
P 4.8566902475843365 4.212369635275477 6.43630567258063 1.1245704408394632 -1.3679932321786312 0.06719552400989073
Ni 6.336255568635988 4.228624356328295 1.5784610642977972 1.801569414009865 -2.5524688340141592 1.4052767991204378
P 5.633059805666333 2.9783148863289144 3.459773295492593 0.9908365667877064 1.4090959157562117 1.5239715194508852
P 1.3364503081210872 6.690323800382514 4.2103143773254095 1.9610017212689905 1.7907522687897033 -0.5588053608460893
P 2.159885089590477 4.675013893579887 -0.1070093285852218 1.1995564074280503 0.3167964191353125 0.9090739435969183
Ni 4.358753959333049 7.805691535268848 7.9517691318218064 -1.1426638080060643 -0.8919108015540704 0.7768436506738814
Ni 7.08896853833829 8.61638886018442 11.91224293649049 0.9127318520644797 -1.7517283221180218 0.38243359751914785
Ni 7.384804461499557 5.531940747184658 -0.018458751026080106 -0.18249021751985345 1.3634493215616905 -0.21479278630730103
Ni 0.47437979956621457 8.419660818154227 12.363105736241984 -1.195233097462348 0.36251757532151113 1.1980453701001625
Ni 4.220699031882768 4.645654377644376 8.463424588310836 1.054294992352668 0.5929683798810433 0.6654290089446152
Ni 2.937981137818196 7.1309828597036224 2.745925639331321 0.10690132723994492 0.002029885945835214 0.36990126938009193
Ni 7.386696253893274 2.075700328070041 1.9989734529716345 1.1558535672234609 -0.024487957839035245 -0.6796202128433328
Ni 1.6550979415056284 3.922787647163346 7.980223158776636 -1.6822350032128899 0.891184207800691 0.01959849095721786
Ni 6.1733593866953855 3.034682952895123 8.854595827965607 0.2955989591220909 -0.6983352727543328 -1.143758840842456
Ni 1.3356421637975577 5.781400206325174 6.213306511614961 -0.06046051927890233 0.28454887195551637 0.7290771819228798
Ni 0.05137318363930086 4.362987533573358 0.9185212262450789 -0.31093738925137415 -1.5038014722609132 -0.21691008976061998
Ni 1.6717108174291007 1.8468669160959792 6.494947563402589 -1.120570832761767 -1.825828543667546 -0.04698948137566101
Ni 2.8146013766065607 3.629633293802884 5.919663598277092 1.1767471228430186 1.1897653894795572 -1.060639189403141
Ni 3.5076769686156486 7.168093214378443 0.1649468481615585 0.2768047092337233 -1.2944987625339062 0.33626352672098864
Ni 4.799256899864384 4.598120797887664 -0.07186698900736074 -0.8830420383095309 0.2476555984735928 -0.9750955019033659
Ni 3.3896787139220645 3.0725096173112543 3.428980241728638 0.31662929742982887 -0.49795274833509084 -0.27311954707265224
Ni 3.5774712511023194 1.0774584193462062 4.814147877371243 0.5106951356024236 0.8094987177047412 1.4119177014757234
Ni 8.667889693893006 4.543479221467178 9.316116030983652 -1.7656374759999462 0.9984555167855449 -1.0682136593162892
Ni 6.322030391850217 1.0295575012606173 4.658783967864269 -1.0914353488483912 1.2152200821072363 -0.9913788124444217
Ni 2.661136606259882 8.90857895043158 9.333831840239577 0.9951058835870217 0.35263913986553463 0.10962001172268863
Ni 1.410138376893857 4.4083538171896945 3.9160791309322263 2.838216611373783 1.5092987479300586 -0.6719660387321846
Ni 8.51605957910983 2.549070865577665 10.57178037547224 0.05583536180206512 -0.20607468970801282 -1.0891570943371758
Ni 3.377519815236229 2.6815330669707893 0.7183245920444628 0.02718144551079835 2.468151048501685 0.2747162021358107
Ni 0.15390006626639843 3.7327635296351622 5.623196771535979 0.12021167119560588 -1.1289937667181393 1.203040766432225
Ni 1.2955563686588314 0.9620682667876508 10.783662960260264 -0.24768028106394116 0.6861405304603538 0.34649677441322263
P 7.618899995034784 0.938668815238172 8.256998814398285 -2.189306168909481 -0.10491026495184513 1.867947584324783
Ni 6.418227116724938 5.238997613363299 4.096402761540585 -0.062442325595621496 -1.2390058716729242 -1.164865026693452
P 5.160497412482238 6.7236138364370115 9.680150151592619 -0.2632634802141789 -0.5571588263816017 1.5423510503993372
Ni 1.5006964584203126 7.292501522910934 10.821271058370712 0.4684904772099157 -0.8717343266061955 -1.9718543477127783
P 3.0915285592888724 0.19321353256866028 7.095434611272352 -0.13949365935366945 0.8018350305118964 -0.3244428799369767
P 8.388648279738769 4.464033124389259 11.682080678111713 0.7335748126829172 0.6468908409311117 -0.4892822171442864
P 2.62763535066628 8.672068167383985 12.142432745243928 -1.4028939007105579 0.34913806869081165 -0.43983398981548766
Ni 0.5075284103640946 5.963241862577618 12.684571772954834 0.3472683624719245 0.6030525035899227 -0.42381550290004427
Ni 0.5921631613374051 6.184076482440378 2.0406002324000005 1.2873372117884605 0.693137016382845 1.2823837244379268
Ni 1.2090665591246907 2.6422094988644838 2.0124685448287614 -0.15135904333268774 -0.1932752239504994 1.2886590159236775
Ni 7.928088666450737 7.389754345481177 6.678981311132607 0.06474243448370785 -0.6327592866257361 0.23372459021479747
Ni 2.971583411452239 4.925125378254162 2.0280602201979545 -1.325098489697634 -0.7699178700883257 -1.5758993186684278
Ni 8.65425225843344 1.358279388314616 12.553146383994969 -0.522540464976784 -1.2634820024374174 0.9084604783826354
Ni 7.494831474456505 6.32532725335189 2.360856807665024 -0.8592372225804492 -0.19257151301525546 0.5461763592281691
Ni 1.64801749521652 1.159429967435157 0.31711399586147865 -1.505608443562665 1.0099861431329638 -1.9691996836987504
Ni 8.55878102675825 4.133566380273093 3.3159419728207187 -2.629678804837258 -1.2231221105631322 -1.536324384589283
Ni 3.58475373347231 5.908214580911811 11.19142044380966 -0.40873161198372826 0.6397506303419046 -0.03389331031333518
Ni 8.20131491546961 1.072875873693463 6.276708188833346 -0.09577462119916409 -0.7326268469473511 -1.1799504602716646
Ni 5.866925752746012 7.758956916377445 0.2719488299802028 0.21429964872096643 -0.7440723697801315 1.9178318707497357
Ni 8.98650059344466 6.938378190415076 8.75291474184075 0.13368656575358911 -0.7265816691945358 -0.3330627603955038
Ni 0.2465427928092323 8.564465587397626 3.1165195041482114 0.6789273005413663 -1.0413996244472388 -0.9100460777022006
Ni 6.450525339291468 5.736300242997275 8.21986182769462 0.8333423570915585 -0.7456805948075158 1.1079613715278724
Ni 2.4827295633824398 5.999792026300901 8.96029467706256 0.0044071279287601515 0.9388537459625121 -0.0723960943742237
Ni 8.671755929804439 6.017323248046567 4.663501510352876 -1.8788922562617447 0.05836507020245433 0.8102708199840755
Ni 7.0301944057179355 3.654171494171882 5.81628908245611 -1.5022603530260386 -0.338983496755313 0.3104290821563879
Ni 5.760489471953839 6.275993715783679 11.965509749215153 -0.16110815229965156 0.4496054673799547 -1.2651282797915888
Ni 5.22330308326202 8.608500269571783 6.022230888120365 1.050697504809397 0.029817597582064773 -0.03608954663370558
Ni 0.6994121781822193 8.410523277223406 5.815079621008282 -0.5371548724558491 0.5666582812316048 -1.57557973054548
Ni 7.734831971628434 8.291643410540518 4.579173486884177 -1.6301308263184828 -0.24420774913430843 0.09745586555632894
Ni 6.564345120494073 8.139776561924455 8.43569605455554 1.4238265370981673 0.1369426107970416 0.5159237309912147
Ni 4.102406906526083 5.218518501528394 4.443352894819293 -0.5659699969153286 -0.36907157438994503 -2.0053177695775464
Ni 5.4674912373831495 1.5989686448531897 6.937019956944052 0.26604232851089665 0.6389931833505899 -0.5332640220418752
P 4.570331653308103 8.618914311195452 2.0211515045775963 -1.1690435835511737 -1.5164438436152723 -0.1892761300934353
Ni 6.663453001625146 8.7991672291755 2.3437599634932558 1.0671016571990333 0.31889546775618627 0.650030415001358
P 2.127908288061715 2.652880677318367 9.635808741913849 -1.362662306884021 -0.07521839431436722 2.497183688288609
Ni 7.758461009633461 6.507756650930538 10.635261948777156 -0.05540264514002071 -0.1699280645841267 0.9042094164157654
P 4.94457594276821 2.620233483339404 12.386694367030834 0.23480599620443432 0.25372237349296306 0.277412003800419
P 8.366167174011483 5.171995102176094 7.147142072790931 0.416038944278419 0.033898966740290006 -0.20261167086007686
P 1.3141528715582405 2.224105012936436 4.258150092857623 0.932831193917516 -0.4034773055633245 0.2638185813867005
Ni 1.3259444319151992 4.715944566875032 10.494293110033057 1.1385991510183875 -0.34787102905292994 1.0231337362585153
