# total energy = -340893.4360862175 ev
CRYSTAL
PRIMVEC
9.03818182935924 0.00000000000000 0.00000000000000

0.00000000000000 9.03818182935924 0.00000000000000

0.00000000000000 0.00000000000000 13.22829270069100

PRIMCOORD
 96 1
Ni 6.350569853874033 2.1512589499133887 11.599333851196882 0.06302468046165276 -0.7505474359815139 -1.5305946811943574
Ni 4.6066979020927095 0.4346045782486493 5.848704031861817 -0.4753638072909813 -0.6271062021050168 0.4427997573120309
Ni 2.6386880844313434 1.6106401165888669 4.7794220718536105 0.44005819001115176 -0.6327513162059362 -0.47928216850878097
Ni 3.613239055292329 4.148245177833695 4.750729460497395 -1.8422800043553498 0.714815015576911 0.8557988863228616
Ni 4.947997716253048 4.3798756962728955 2.807453530644703 0.16880372117169637 1.6631952129726193 -0.5658432415294772
Ni 7.019774897040701 6.0087729397248495 2.7135856878417526 -0.015848022775850124 0.6901666209006113 -0.12516618698740378
Ni 5.1586415769813145 4.4205655899053795 11.361344068173093 -0.5828516031620156 0.5634431167284167 0.8834809256191624
Ni 5.3509198526671105 7.737605357298165 12.237480087060424 1.131072246513723 1.6074302993971736 1.5268149024369513
Ni 1.9697813012579832 6.415563417870299 0.45610189322085315 -1.1121687247410008 -0.30144744748306795 -0.672106678075107
Ni 2.7857935284034228 1.5156217132662773 0.44419770421522364 -0.25937031580735975 -0.09421396158026354 -0.6032504785333418
Ni 0.6401680770909061 9.022798630280088 4.496058809484243 -0.1816047295911066 0.4480808032053122 -0.0436925557919441
Ni 8.590131838169777 2.497339962148267 1.43049469590357 0.27536977655940964 0.3124016325017265 -0.5370875095530233
Ni 6.763289379159178 0.8578590080246925 4.658250786208731 0.35045884438476416 -0.4247382718246298 -0.7298755094544591
Ni 0.9316557609143477 7.2483776246387475 2.6009337921875386 -0.23373178930364907 0.6571192035273392 -0.20635828238670267
Ni 7.783094525368419 3.886327712801322 3.582658367796659 -0.03091211619782418 -0.547523874394999 0.36842777015835904
Ni 7.5868756024983135 3.7907760567634248 12.72930810457059 0.6075781593744181 0.8299942665549319 0.08668885684781198
Ni 7.938894700054503 8.863663366577924 6.640364686280912 0.8965501000982946 0.6331313252531742 0.8093745334220512
Ni 6.934843104400887 0.6922560215585573 0.26231966411425656 -0.7908204245689477 -0.5547563875876962 1.0899546505378068
Ni 2.0793240624365037 6.33171620702433 9.183635783580428 -0.772414154147618 0.6712451014057601 -0.09603198862560881
Ni 0.10879078446812009 5.102848881869515 1.6020918044170316 -0.2620650890307035 -1.0394561275676226 -0.7190691628675745
Ni 6.3651574790012715 1.7846974181380375 6.8972713834257116 0.8480166712742815 0.9513986725070583 0.7059989599471777
Ni 3.4583517369493997 4.253305000930982 0.5207041039531726 0.29870999394724684 -0.13691098622815775 -0.39292678374098783
Ni 5.9794621167461415 5.675869596285208 5.03947676765505 0.6814966039304392 0.1259768558141572 -1.4281873851700242
Ni 5.154673815252159 2.8065903843004336 9.448294529096747 0.4934643735464341 0.23720097879917212 -0.46659531706973195
P 0.03643742918244269 5.610794688654404 12.550117115863879 0.7414246477446392 -0.8411438554138482 0.350588427984093
P 3.912655935846952 6.071669645586345 12.661578682999346 0.08920905216650443 0.0683175534294759 -0.6856188536289288
P 2.4640884919852493 8.352039019875573 1.216227428165693 -0.7002178344890263 1.7935362592927433 1.1515852788654104
P 6.333153277901177 7.778277174567417 5.7427584669662215 -0.5904273586267444 0.2717182958497514 0.8459330492723754
P 4.63812365956942 0.9598006584646703 12.570634691948973 0.34027264788038175 -0.4996275649343524 -0.6854301346568905
P 4.177131206276479 6.025746644798551 8.331866702328183 -0.8171356654247088 1.0427597380195588 -0.7558937878950918
P 4.606996162086018 1.1963208331577977 3.717321850956993 -0.23893184544734977 -0.6140899923510069 0.631925477870531
P 0.30331143301269403 5.519174641619202 3.7965333784524278 -1.07968772139416 -0.07498133860289667 -0.41194214850122607
Ni 1.543603923547523 1.103643318873594 2.4620232674861326 -1.1582935441235211 -0.5079677093689317 -0.16524068641078637
Ni 1.9461374181521243 6.29723554416162 4.813894600352868 1.127547006969284 1.1314023761596321 0.7717011872409935
Ni 6.009261001532081 5.750832274603249 9.351450413087848 0.7175257296398546 0.15863680794102358 -0.43453751730323875
Ni 8.599929227040858 2.2429151496750532 10.078887556584307 -0.13867604854838053 0.41016165956203554 1.2732696779518007
Ni 2.739662649438474 5.051846423013873 6.863618617998971 -0.8728131614926711 -0.21942822819678337 0.5934548325991587
Ni 0.5981251676705989 0.12080252783497271 9.050374122388641 -0.9508258307227238 -0.33029085407732145 -0.8077105154560671
Ni 1.4108511119806824 0.9893464741653787 11.208689180689163 -0.7177931243686283 1.3677764881821346 1.464331439190749
Ni 3.9652671910301343 6.806039978199971 1.701250598737631 1.7775085164059194 0.7005975864259483 0.19984310697600421
Ni 5.568414655059843 7.961011130467362 8.004307635677723 0.09426358387127637 0.1799121723800321 0.2736031715772901
Ni 5.521036507031972 3.0606807840538783 4.797438783085728 0.8589736845064175 -0.9174742518454714 0.9716016298174945
Ni 0.7698325419997682 7.273666456798607 7.001708475809699 0.6131248002242603 0.6068207123831033 -0.4391163949231728
Ni 5.434034970802232 4.6323844142436466 7.045679229368569 -0.2074890535570362 -0.6201315705593965 0.6633685268711608
Ni 8.304371650036009 7.384284761589359 9.404112282088077 -0.5350272845898851 -0.8304838045968407 -0.10749165252577618
Ni 4.6600864408948155 0.4674646951477208 10.355636677647535 -0.31367484278719526 -0.9982526567461195 0.6522454203748058
Ni 8.142732810026382 7.351611735049725 4.614054981927637 -0.19822434042565862 -1.3210364038131184 0.11078832099917693
Ni 7.321324788456556 6.322018238151017 7.1629351747376635 0.5246336000603868 -0.4358801473740622 -0.3661554291844146
Ni 2.4949448440201887 5.201572939654414 2.6065953091514182 -0.7372568895201947 -0.5433113789755482 0.6194234887487783
Ni 2.174568420299478 5.211533015794575 11.55798236267015 1.0161357076741275 0.30286001155987846 -1.3048888475189784
Ni 1.1436734252481542 3.379330915086049 3.848017572388171 -0.12439125649459222 0.26170076371274925 0.009199150000764801
Ni 3.316126911049631 2.7360383386107032 2.732568580688555 1.771477222610175 -0.6121053578208103 0.04797369966580125
Ni 1.057096683554338 3.0764704873359636 8.247655252763115 0.07900254394714781 1.698401585670423 -1.362356345607828
Ni 3.9230679210678807 2.819153456745825 7.101330928847168 -0.47011978528322257 -0.6675607105756375 -0.26232811288410307
Ni 4.161928984799394 6.823420401446365 6.167810591065565 0.08044544704126146 0.8777689628360497 -0.2192377094525321
Ni 0.7885578466705321 7.318739868514554 11.465873350009556 -0.10570859248342442 0.03059792739151505 -0.4701390685569322
P 0.1060458887115263 5.736027733117241 8.317871078096754 0.17999753300498675 -1.032062406206713 -0.8236886360518781
P 8.532712270367208 1.6287978234541844 7.9784593400758705 -1.7217109498203254 -0.4228407976916008 -1.5985489377471436
P 1.7600322205096395 3.160371927271624 10.233790239835985 0.3395144295581185 -0.46762272989298176 2.165893960633128
P 4.08107341206812 6.17714522503794 3.972416392687907 -0.7749546611812848 -0.3633837799765483 -0.7523145551842656
P 7.005964555532385 3.9835966233461435 10.3200262420829 -0.8234083858072979 -0.4169874242346173 0.527351256101866
P 6.395507692865749 7.847780791189762 10.264229027880294 -1.4870895588228712 -0.23769334505455836 -0.5797801633255434
P 2.3158261607664 8.605740777819554 5.691790353200717 0.9475404751032325 -1.5628023762751537 0.3622900326917374
P 6.667520806762512 4.1288673164502985 1.5564010848967529 1.4149752573551244 -0.5681500352857828 -0.1146362339903574
Ni 5.272070756254453 2.655327376785275 0.4724510599449312 -0.31070598996685844 1.0073687601147747 -0.16485810626038705
Ni 1.5577938686836845 1.1069784078896727 6.959669181662038 -0.9591567191859223 0.3955320825743188 -0.1451788826639048
Ni 6.804801747318662 0.8506483467319347 9.279753229787449 0.2224652152508943 -0.8014833035994325 -0.4622177568273265
Ni 2.652091707766966 1.37319804737097 9.15282733390805 1.2945031334092802 0.9854243946331996 -0.052828970875573526
Ni 6.063978153031648 2.2513206585773657 2.6119395859405983 1.8862695225624224 -0.576652159219523 -0.16212425226899174
Ni 4.073752484959654 6.873663653046315 10.562526981550931 -0.6201349129935062 -0.41371183880713913 -1.4576995356965283
Ni 7.997850758731689 7.365702260188118 0.23422718801730297 -0.38941259994014227 -1.2713472641181072 0.8445899049809197
Ni 7.660871195383508 3.896224521670174 8.193869033969934 0.12802319682022467 0.05845608725436384 -0.6291828821283875
Ni 2.900939962183484 8.443351768735852 12.2370435428884 0.8698448228929665 -0.23247580540936094 0.45711231727996116
Ni 9.102443086674898 4.626021534386413 10.241211490760382 0.21528952343806146 1.2917816207130592 0.5834576121771305
Ni 8.676934534403976 2.1357042393533034 5.535140589442786 0.22295295352059025 0.8110701759569193 0.5827140491428867
Ni 3.5485075985629098 2.6636876947795107 11.535084129547561 -0.3672689739635675 -0.12718655985154223 -0.3081773100077338
Ni 1.1801244117030196 3.408451936250834 12.531147780289498 -1.2574183127418408 -1.208673796348286 0.586895434214086
Ni 3.0504134097387956 8.461265444697554 7.767004754456703 0.4218606931665186 -1.0319762742508096 0.6332017734797933
Ni 5.295018699375927 8.059310393716338 3.835066761951479 1.3854353389144785 -0.7901159423027554 -0.9408543213323086
Ni 3.0131851396650062 8.373739693934121 3.5365970828301494 -0.6172277666490402 0.11973576000045184 -0.058225973521428755
Ni 3.2419324781688985 4.233285428652894 9.122138188232993 0.73497195014076 -0.7049172968472247 0.5029106065609983
Ni 7.15596221762139 6.081331461733196 11.534316787928415 0.585461787091353 -0.4128857433614179 -0.7977855430328712
Ni 0.46861615948552143 9.031276444635322 0.182687861173706 1.4498967518226578 0.6659625128505822 0.8052453417450262
Ni 4.789513201627193 0.4057655483502645 1.5294944182277386 -0.44085754598399557 -1.352239311778484 0.39804379325257905
Ni 5.912669954608413 5.731345955040469 0.355129135850045 -0.3444110955287875 0.1763041433137996 0.3563744385382508
Ni 7.898936899132866 8.723137718821848 11.482858804719356 0.0965598361046208 0.6550381526285944 -0.7515488806628347
Ni 0.3034822546452248 4.867648281692235 6.087038169605153 -0.5311228073291563 -0.6736380271179688 0.022771232258244654
Ni 7.98582997718322 8.644026515142343 2.460091808074924 0.4636228647049693 0.6672951156190766 0.24174797473990622
P 8.490964909485724 1.5356864764524418 3.341069580853621 -0.319716678105901 0.33496409118327475 0.9131488849972402
P 1.766377024003643 3.2641664049427566 1.5178143761261707 -1.7540572273615147 0.22210706058052715 -0.8832328141640983
P 4.681136365877058 1.042888662054946 8.168774522714804 0.2494545993555446 -0.061810348438577425 -0.41641766777407635
P 8.493079843983725 1.620482696368026 12.33173205258203 0.5085492929040145 1.2143752176084375 0.20414507678546776
P 6.308759225721241 7.743118648083552 1.5694974100574524 -1.396803214431788 -0.12821602955732114 -0.6990258710634543
P 1.921878938696419 3.1043171248929786 6.084379136573905 -0.3262619354235865 1.3834995553443463 0.1312141929536966
P 7.259268633485291 3.964453754684749 5.797656382098098 -0.5091825556126391 -0.06392070991336088 1.0790943107845352
P 2.241197895168129 8.386067773657514 10.090594713230722 1.7636906366862204 -0.9314713374555119 0.07410510664553044
