# total energy = -340857.9243625019 ev
CRYSTAL
PRIMVEC
9.32789385058679 0.00000000000000 0.00000000000000
0.00000000000000 9.32789385058679 0.00000000000000
0.00000000000000 0.00000000000000 13.65231552829342
PRIMCOORD
 96 1
Ni 8.450969326260227 0.9453727255487071 10.35593701728743 -1.0518748129469497 0.024772321848673465 1.0537463189380496
Ni 3.2093738536911 5.174304045499215 10.608982259215225 0.9238133066896219 5.014072825425945 1.3151434353674512
Ni 1.0442857131629755 2.066408350263003 11.475180753570879 -0.4293816841339121 -0.3101848273560658 0.29691022173434667
Ni 2.2079218296194787 6.0319665840866845 8.271542621879401 -0.9202351024200603 -0.8308229331038144 0.11985660184903227
Ni 6.812179619075392 5.214516596386155 9.773719725197436 0.5159800381504468 0.9939681704381527 0.4245379828883656
Ni 6.03512874014112 4.816178212466906 4.132815767736609 0.6264192033403212 0.7493937819930448 1.3065369246453626
Ni 9.048756738958076 5.960524244201954 12.325283034098995 -1.3217180032611753 -0.8186680429088352 0.14628728523673515
Ni 6.431051199523205 1.913757365511258 6.60965984760322 -0.284917825259161 -0.012200655831249956 0.24122372680532003
Ni 5.177624775751072 7.152936913543219 4.345805167396093 0.09447775676461148 1.2665467574056704 -0.9451089828436047
Ni 6.962265432986519 8.752139038736827 12.728914065054488 -2.8395191322352904 -2.9833224747079075 -0.6105860929628065
Ni 0.7009268690680625 2.4217078314236486 2.2611645155873665 0.6282606274244342 1.7696396551808038 3.0028060373538152
Ni 9.228570550938485 3.6870832873660837 0.573749429947759 -1.7057364287689398 -0.0458121732381082 -2.1037935917579573
Ni 4.795908698879034 5.486592607583155 8.467343511327945 -0.225185956616167 -0.15476626924202377 -0.15024781254637995
Ni 8.547764881944238 0.9467998933254879 3.1824367614964104 0.15053834720360526 -1.079977741830753 0.0311298886355851
Ni 3.3200120040204886 3.067907013804454 11.16366267552852 0.7240635307583724 -1.7649630756407408 -0.07761877622574376
Ni 7.657678583931345 7.25318378999461 4.967654815368346 0.09804336262868275 -0.7177535293799445 0.5198449204224919
Ni 3.955409485188796 8.469410572630785 12.593455321671271 -0.03442784266056651 -0.43617968089235204 2.204059415959256
Ni 6.659080895413284 3.9092364100576544 -0.02413872400492303 2.6790858945154765 0.4543609797870691 0.5980707341046152
Ni 0.5339081292406613 8.564993502099231 6.68242581564171 0.21098678229764953 -0.949564447511797 0.5643905682433505
Ni 3.469379570096241 4.9756292319197835 6.543281621352571 0.8490607962680796 -0.4499042295672961 -0.547196058741935
Ni 0.9916763911953715 9.073382379028018 4.3663517194347525 0.7055621295200752 0.8946004325710916 1.8276607117802783
Ni 5.618470372472869 1.4756914811912951 2.8786179271334973 -2.3461971978039915 -0.41738568811430055 -0.6554356451773292
Ni 5.294540598719502 1.7538212955721553 10.31052882946149 -1.5016196341182462 -1.7576248901081148 -2.5217338668241474
Ni 0.9535999280266197 5.5701145701537085 1.5389439301739765 -0.06331212979508452 0.6842224875020345 0.37902097229317305
P 7.000761651383735 3.923452120461667 7.7253132774991995 -1.9722644386670032 0.13310035423281594 -2.194560989550517
P 0.3008702870802968 3.943870880352994 3.986012439712079 0.049946764231772044 -0.18937537467546095 0.2791045610114935
P 2.918716677714053 4.120410601551376 9.000234900126324 0.48995790305507236 -2.1060852160056114 -3.145256465342964
P 8.950459392345556 6.055370270047096 9.903403569426375 -0.5369335004736625 2.170047320679869 0.44874311937965944
P 6.083577821399939 3.361987526866981 11.233617216325692 -1.3268658660107018 3.561152713395932 2.015632521239993
P 4.939576921741629 9.0109880962902 10.902684992572134 0.6421615537762424 0.08597563283087128 -0.7552774944673315
P 2.997052331239574 1.0597513613584166 1.5829855815339133 0.7134644150862874 0.940203060901555 -0.7864883728524972
P 2.3115920431563497 8.131442318458758 8.355217561910997 -1.1700874514346558 1.8958319694398769 -0.486964110534071
Ni 5.280250265163763 3.5771354011901706 2.290871992289924 0.013879329085253515 0.49941184937912053 -0.5379102625646349
Ni 6.622459583703211 8.824402233290556 2.3381364310150747 1.1136162558208047 -3.0353870566136303 -1.8935673417754164
Ni 9.231583460689466 0.9964522729059058 0.8881395665422127 -2.5993171618262654 1.575451689608048 -1.844513778781875
Ni 8.728949894337632 1.5210063900775754 7.397261507402307 -1.398600929762159 -1.4405567053686545 1.4762731849336577
Ni 4.27662484179809 8.912541503374225 2.444474422226189 -0.5435911149994961 -1.353467013537998 -1.9302279304212435
Ni 2.6438236425393558 1.9659562601443632 8.980466294444419 1.5833961412661053 1.4910806822601352 1.730868447949877
Ni 0.691129782035691 4.358439799772887 10.26580437626325 0.587411454618556 -1.3084320847855464 -0.3747429137431095
Ni 1.628836844323232 4.308087828145028 12.232938749415505 -0.03579489821142222 1.012205776492102 2.508014460355526
Ni 6.293837879285004 7.603194355276598 8.556029395998014 -1.0802160830938041 -0.26965215734934206 0.2795776439931701
Ni 7.31820853883081 8.688849278178282 6.796463983321665 0.517783924128405 1.3322757241723635 -0.24710178285265186
Ni 1.5104658698961226 7.805367129093237 10.300426720296434 -1.6878281810299514 -2.8535344726777763 -0.5245765215702063
Ni 8.489344282035885 3.28775614668645 5.936805275425495 -1.5407819061400045 1.1240590484206834 -1.437555970869118
Ni 4.12124078411434 7.5839229263430745 7.421821852214488 0.9595410991085345 -0.15097646318228838 -1.334507698826676
Ni 1.2866617099725899 3.478353004091425 6.520099939268548 1.9473453068278206 1.5207175312899615 -0.11230835718812915
Ni 0.8212436421764557 6.437226265328622 4.702826577782841 -1.2019791579369299 0.07940697847441808 -0.02330627882610825
Ni 7.560332682503345 5.85087485063295 6.909819349163317 -0.45285277067265883 0.5871890541951048 0.014439315353781585
Ni 8.436137974854464 8.130341626970782 8.909760858182993 2.1723134910062267 0.39718350213481274 -0.25014159812024017
Ni 1.7354080328834938 1.9450244660849123 4.667862832830505 0.08516624955569849 0.6292227342273873 -0.11981854952224526
Ni 4.694635754091395 3.051769757243469 8.304976592221331 0.969949181815736 -0.16551965110378591 -0.6051950038542223
Ni 3.9180046303855884 0.24755484353947496 4.476184872514885 -0.6783344041523737 0.21945651033155752 1.4720362640341746
Ni 9.126644653573235 4.469637623740229 8.09989164990854 -0.669351483927473 -0.027730376035732886 0.551308795358728
Ni 2.8410712883420075 7.630021378322489 5.465007860946092 -0.3729032894312094 -0.4401872593898483 -0.9522607633970375
Ni 1.698646802763932 6.977665785924198 12.368848030077276 1.5017643872262265 -0.19023412313133045 1.330900955312024
Ni 4.693730948376704 5.519930500617236 1.108352487288879 0.1915530990530701 0.936678078467432 -2.528002987662311
P 2.051912803040014 7.56637715779324 3.217372522766848 0.9817245771841094 -1.4911408460741093 -0.08604222440274858
P 6.892530097697545 0.6508230194196957 8.807654932464201 -0.1965922041388743 -0.1959085478082884 -0.5081417730529507
P 4.353281474409751 3.567919441951874 4.695467802233153 -0.7884822633540743 -0.2333129565986756 -0.28170086098376
P 5.271939111640157 -0.06540999085699117 6.252283044456372 -2.0194225844100444 0.3192201980854567 0.4088941057035216
P 5.2120633602731266 6.7002635472726775 10.192750176301214 -0.08110827743624095 0.07345950264173155 0.7364053401531769
P 7.364409597643849 2.0804375027876976 1.6336770885021308 -0.2865589604070097 0.8381130390073244 -0.24696191484067792
P 5.445484578875489 7.6845429185531 0.5086071496475888 -0.586301509383829 0.6606434146305138 1.1899664497467701
P 3.3904002918870737 5.573015545177101 12.752259918072312 0.24330272082153578 0.04512825979720615 1.7903792017210003
Ni 7.718281911027714 4.398698990129656 2.5096642747855857 0.7442652025172279 -0.01897165600649636 -0.554818094063567
Ni 8.154799364949339 3.3271758265862896 11.655487078352685 2.2988968700561307 1.3136619657259183 1.172795337284122
Ni 1.6379968361977333 1.3625721110669804 7.171151492090408 0.9020013530208529 -1.3966751734943559 -2.25005182352897
Ni 8.892505187135498 7.918896926552051 3.123704609929598 -0.41449731082291197 -1.3148714126529872 -1.5716747390641193
Ni 5.828609167736377 0.7100103722120434 0.5434179171388834 -1.3851260352041757 1.4856888218206026 0.10070676839345882
Ni 7.123096980746347 2.510192233584055 4.026177418339794 0.39689708124264544 1.9188860230458633 1.137338539138409
Ni 1.639601233959866 9.252981649447213 13.405945668150137 0.4950024074575152 0.19931628793825673 -1.834781124875143
Ni 4.639405293919377 3.3430798857981276 13.451695256895228 -2.9487907594796248 -0.7090017513292435 -0.7245188731282362
Ni 3.9683192904375844 5.5096978009366575 3.1835701006132657 -1.0347862328957793 0.4736902762433004 0.2956429249861489
Ni 2.098085878171156 3.045762593529437 0.5083385063013712 1.4493421648707683 -0.6867789353753011 -1.3561311906337223
Ni 7.300756049220635 3.0432907016284774 9.534941497090465 1.2906508495427256 -3.020894005203778 -0.943512327780446
Ni 2.5454796564570064 0.25226263162405826 11.064464254358896 1.8005605131293765 0.9893918639213798 0.22229809354541072
Ni 8.583154911650814 8.120426075685046 0.6921493208461624 0.5205820556988324 -2.1667668501563844 0.033673480993045235
Ni 1.0457501925156198 0.41745870097052495 9.334729446585454 -0.4600040370054594 -0.5536451568013884 -1.5630234911470242
Ni 6.439269074107152 0.031430338718057095 4.452661789511711 1.0054347763168554 0.20289989152445703 2.1281231696422576
Ni 7.486409122823689 7.390826193355243 10.914056628105948 -0.08368760812764298 -0.3055391010539383 -0.25646239813194543
Ni 3.879573707246133 1.8836282680014425 6.128155826662914 0.0766417570244551 0.8529418764900408 0.5399429767239475
Ni 4.050927119399482 0.02478421426736243 8.954703584100034 0.47708978884315256 0.5499126863421497 -0.17438892856895774
Ni 6.7338719492317685 1.556452387147947 12.045492854592206 0.8581761283057866 -0.6320910569141178 1.5440274096604958
Ni 2.89019197796637 2.8715548458225273 2.6256407788316514 1.7743671425634602 0.9194012936648555 1.9833854882808295
Ni 5.6794095037520105 6.469146318479889 12.33180882871753 -0.5477653009818437 -0.7639979050594649 0.5489716625851191
Ni 2.7947396390134456 7.373793458973532 0.9985342588390917 0.29858426700266 -0.7181003711964019 0.3313041258331843
Ni 1.3513879662018817 9.217638259210464 1.9981804026389174 0.6743905890132772 -1.3926351990970274 2.0017375084254554
Ni 2.3226642532938575 4.728393402353942 4.534848930455746 -0.45732828994550917 -1.5802375410324656 -0.21886747059730693
P 8.346590192781948 1.06278292689733 5.344731197781751 0.01920665483543789 -0.5496085248381695 -0.4003513583398331
P 5.459112631959651 6.285209577366557 6.215093664003776 0.28090253345218075 -1.1961172998395144 1.0955529705611906
P 0.5032538713005661 6.088502949413927 6.839946893833045 0.020006010808281675 0.7966046353508925 -1.0114208186969613
P 7.088443854663075 6.626815710185281 2.9774199128095713 -0.2888127894381929 -0.04006421501073745 0.4284915682194749
P 8.77630761200244 0.19244191483142672 12.67643440081301 2.423565548581826 1.2632518887044824 -2.345504285502025
P 0.478709383908127 2.4971051983499155 8.935167242977881 0.43698623595404745 0.600098048947289 1.5507428740074582
P 3.351316416170006 1.5822719976455228 12.664557193426246 -0.6196271201191522 -0.5835108340125692 1.1020306078657343
P 8.026652757645982 5.594348438677085 0.6553750316750485 0.9766001114733505 0.2655995845465232 -0.45617643572925315
