# total energy = -340874.1843201651 ev
CRYSTAL
PRIMVEC
9.23816099323304 0.00000000000000 0.00000000000000
0.00000000000000 9.23816099323304 0.00000000000000
0.00000000000000 0.00000000000000 13.52098242121607
PRIMCOORD
 96 1
Ni 5.029975347364186 1.4582991203198676 0.887117491742576 0.37883071065923785 -0.4385481811245286 0.8843350460893415
Ni 1.8504313342377259 4.965492984578909 3.133270989207381 -0.8362263635075728 0.3520922662231291 1.6871560946635913
Ni 8.136851987185633 7.187261432644284 9.743828220713764 0.3974591243937026 0.15421399628297958 -0.9360288749192073
Ni 7.420866806247622 0.5492991969541561 1.9273353281119832 0.09566457798386105 0.5082538731507827 -0.44017723208751935
Ni 2.0237207556025143 3.9646213991176356 7.156114973313257 -0.23046160319280956 -0.7899981857779684 1.8628660560368175
Ni 3.4903526970158376 3.4719964713920057 2.626626228564425 1.2579433320073754 -1.930930355804907 0.06248680568031174
Ni 8.994587508320963 6.817707283862131 12.18943545872394 0.36316395065625845 1.0538424781962819 -0.7798500416003731
Ni 4.302257702137163 1.2058017077629637 8.227449706898947 0.684721281515324 -0.2961566313977738 1.3129844800429193
Ni 3.595686207112933 3.0404542632560974 13.261217319295131 1.22753669469106 2.0471768717051777 1.2003326234724425
Ni 1.4927020313531587 1.406787135378506 3.100388679451232 0.2349201531847954 0.9280813379373565 -0.4834599540355544
Ni 3.35172485518835 1.168765920885288 4.704179595115703 -0.07948848244463083 1.9423817921749582 0.7400964158515189
Ni 0.7707397603403517 9.180708735116806 7.602375419327319 -1.165843074336005 -0.9642680722705587 -1.2429607425556142
Ni 7.897888480284951 4.320826405460717 11.468239955062304 -2.505604565362453 0.22668902352425474 0.5079013749073704
Ni 6.67699161768085 5.677126991753043 2.4013943239623154 -0.1303284479146336 0.00774467694242537 1.3353422789128293
Ni 8.548061003274206 6.608398273313989 7.363012823877594 -2.3038840388580777 1.4824536027127566 -0.7939391727035874
Ni 0.40333902685407874 8.692841460232783 2.2858840558646096 0.5052721648146395 -0.009200435552345445 -0.5885532815324832
Ni 8.254019581341172 3.94075922962274 6.102329973908542 -0.6169850545106149 1.681548775779143 -1.910778820557696
Ni 7.330221971913934 8.574842431600068 11.563671080536256 0.11523735790946604 0.4283486148837074 0.26019255459833895
Ni 5.599461773424127 8.720860802113549 9.440741715485162 -0.0747154865360197 -0.5352003198326396 0.7089780971801596
Ni 8.622151053351272 8.25402881950203 5.728123487318556 0.32854816035460194 0.9306408711344165 -0.8269199985049823
Ni 1.5671061788993794 6.884573092148639 8.01384587536816 -0.8847983588790053 -1.325488783157517 -0.6074796861233409
Ni 3.09104243211171 5.270296863910918 9.244282062873706 -1.0623296897316867 -0.6763330574516287 0.2924125909743093
Ni 7.372966942201538 5.297503247636225 0.26200994679186085 -0.03232133784052498 -1.3604717269906053 -1.637369510158767
Ni 0.1672855406235062 6.713168255598779 3.911822538368825 0.5407886125536944 -0.6630499671894774 -0.6098867529029367
P 1.8936104980856319 3.1038649993819054 9.529222972546027 0.3059119110123248 -0.3071874352906387 -0.18338496141998092
P 9.32869483389293 4.848482439157946 7.84387295375121 1.2135455226182905 -0.635156326103003 0.7264135190477876
P 1.4975705421250556 6.920777444549141 10.331490728260817 -1.950853319981079 -1.7590294837651252 -0.1701512363385263
P 3.84997582287619 0.3485317899348506 10.638484975532139 0.06489901466623016 -0.93150733289977 -0.9971134009353537
P 3.9632911039541567 4.665409805445076 7.378454409750887 0.7562874237890846 0.8191879199680473 0.16015015926175646
P 2.3908267917574335 6.721621172783382 4.357677429121242 -0.421001687600333 1.0175688405762282 -0.8608649879918594
P 2.739936890561963 4.912937087460651 12.915120708562315 -0.5586354109271283 1.5061789713541545 -0.4378817511851233
P 3.2607659233855077 9.183849709808351 6.8124119700586165 0.36962539001088607 -1.791254148126786 -0.9563488174234821
Ni 4.047478463848459 8.160843490932532 4.8682705797146895 -0.15715996628518095 -1.3891968628394398 -0.06871633152979133
Ni 1.8215343670754984 0.6798916864677996 9.443648964707016 -0.08005618202264277 2.4051333100185674 1.7227195935904975
Ni 5.311554490300466 6.251528119389168 9.254828347308615 0.7649011336000247 0.5103076703560179 0.16917833090229573
Ni 5.559118724959471 7.843170853526041 1.11707933470372 0.5354067794164908 0.8522589914904031 -0.01676050728779049
Ni 6.365924265287462 7.32041104508328 5.518670361461038 -0.5725278526385043 -0.1763295972350963 -0.058993190704756455
Ni 9.10672954297003 3.3449070924755224 3.4561391682801252 -0.40061463930354874 0.5020310321695224 -0.1383387198136198
Ni 8.809694956919168 2.4311144112569454 10.135422773669719 0.7118932139444255 0.6863498182576825 1.1213102820309528
Ni 2.2480879683483628 1.6896780971565506 7.251829710325535 -0.5393189699867034 0.9119144983695068 -0.21235820872387942
Ni 8.06433242445434 7.374906955981611 0.9020749979869374 0.5696618439446189 0.8764625853198004 0.5148299837064035
Ni 8.991575867881421 2.702365290354553 7.842521410817759 1.1368806256653838 -1.6690534715256093 0.43345559709296966
Ni 1.9548040756056426 8.611767360547455 11.566821293388662 0.97163248305543 -0.7324736091989386 0.4332913036009634
Ni 3.4564209321862784 6.537356816319895 11.254121557971756 -0.6975994230295728 -0.2160755096744666 1.202943064512096
Ni 1.1862814738710883 5.24482725442682 5.60973368448157 -1.1305045469357111 1.1266543199516854 -1.0113403431680132
Ni 5.000782759054518 4.929002249191825 11.027415242896792 1.0429985935032424 -1.0650902831959592 1.3156810530384762
Ni 2.982715757896788 8.212392428517324 2.3284886061071797 0.02722129760979828 0.37764080411619483 1.0558348260359625
Ni 7.618323256415603 8.061145258958506 3.4792595134581643 -1.221372474861877 -0.35931038123812314 -0.04028507277229191
Ni 5.560199589779797 0.3941775427317064 6.1510732820409135 -1.162699643611017 -0.20448934749876393 -0.33731562213458677
Ni 5.67069723179623 1.1334114792836758 11.672272128128649 0.8763394294783746 -1.5633960439950947 -0.7978115111748002
Ni 3.9988395469337763 5.795384688889766 2.4935939407683185 0.819467398881679 0.9795666503008421 -0.19272166543987454
Ni 1.473366560678433 6.437991158136738 1.3061475348131006 -0.10687793020117721 0.1627811691267003 -0.936545923764942
Ni 6.502676760460879 2.858148396894399 12.995867777353288 0.49440719707567754 0.6782068774355738 2.1981006272726593
Ni 5.981487439363893 5.27544251950854 6.946201787045038 0.7020325191002619 -0.3734699605679568 -0.09373933593669018
Ni 0.7350989357521571 1.3042620261820872 0.408824646771256 0.7111100559214979 -1.0801075825403978 0.7227993193339681
Ni 7.027321153718567 2.0140945919890103 5.071354917477053 2.9181686637183937 -0.7059722204743003 0.900971883315074
P 8.926437595675264 5.373801218158231 1.9307959431691988 -0.16027254377223366 -0.9401218140416583 -0.020776827536035186
P 2.717783780825703 1.664947540541051 1.3184407554661621 0.7145635616877372 0.17616607507403853 -0.007747248045586658
P 5.260716891101702 2.433257664575883 4.2678169146443565 -2.796921866390054 -1.746057754095806 -1.9345360708782942
P 6.136078823153122 3.067106357329955 10.96031109006016 0.8001185620414221 0.6959112366938724 -1.995707757291608
P 9.042136322254462 2.6293653432586708 12.453311514009014 -1.582643579370797 0.8648262866324525 0.6818475595119547
P 8.690439538409835 0.6705149531974478 4.079171822302248 0.41023827843624194 0.06641493709012433 -0.3621568495479827
P 5.508244173117276 7.453394370626842 3.199064247018335 -0.8804475381094772 0.1430844620287213 1.235712288523317
P 6.875325693130292 6.434517609654321 11.346687005947716 -0.9057536209744337 -0.24674542795449764 0.646651471226796
Ni 1.7953626573662307 2.618390408159973 11.750733675923478 0.1950055763780448 0.09313872623821379 -0.43724026094638246
Ni 1.2586532260286614 3.621553057513904 1.3355618389833475 1.2734211159280004 -0.1989797305344444 -0.34788774122347826
Ni 4.8628570174522 5.879923098896652 13.335988221827396 0.15026658159945736 -1.98746582899779 0.3395637947388152
Ni 0.620236262730561 1.956457706399133 5.447955011545214 -0.08903575981343376 0.11655659094152185 0.19811763964446524
Ni 5.069431532386524 3.613580524693891 8.927904615619433 0.8489620659066862 -0.3388544273766164 -0.8694529867711864
Ni 0.11758977810672702 0.6704493622553596 11.62970822579385 -0.9030063972465996 -0.6895757813941479 -0.41315622341398517
Ni 7.359978088035908 0.002351111938231086 7.503320163348973 0.9612038315229382 0.31576746365016584 0.3069596355505488
Ni 1.5818964744322201 8.778386829773137 4.718782355983136 -0.22546929218454073 -0.5847164242848962 0.2886376973129094
Ni 8.35360695538491 2.8388591170239605 1.1488410555478548 -0.2520763532491078 0.48752075436848935 -0.9075863033077982
Ni 4.182429517654667 7.03228204609904 7.225559152295093 -0.8612681369675489 0.6478220944961295 -0.37252148061175844
Ni 0.5461942510899539 4.740414433447033 12.771960625018144 1.1509715565408114 -0.42356996254814144 0.8251816756576369
Ni 0.45532123418308657 4.718852566005653 10.27339101081198 2.22091531117433 1.4131335761606953 -1.716265610435038
Ni 3.5897275933598523 0.9175248982050029 12.694958706638795 -2.067335348930923 -2.257156038673919 0.48246853665656264
Ni 5.054336377545385 7.962629511574238 12.247102830244648 1.8857735567626102 0.9493459037430876 -1.7844528089342366
Ni 5.813066528771001 4.373825734300134 4.652123482499835 0.967702037652772 1.2393100331769042 -0.7127969567056176
Ni 6.490371530198703 2.7462003636233407 2.4013804667210294 -0.9053671841692923 0.35083114012251837 1.5949357664745887
Ni 4.05373269874898 2.5349143866516974 10.819341374455298 -2.004789922098534 0.5745016885354235 -0.982125926387586
Ni 4.6535202924214865 2.7565009129794413 6.306348289733598 0.10018997665804034 0.673294527735621 1.0216964895913565
Ni 3.006836595895693 7.949215702009163 9.345297656586009 2.8911977915565044 1.0915852441626943 -0.49579019346613323
Ni 3.3974999422372103 7.601980949858704 0.09609996832003487 -2.2673530338115793 0.09532390681499067 0.31167709563087614
Ni 6.712955777899056 1.5840859185554452 9.306695077626905 -0.678724954722573 1.1091109117512832 -0.18763396650432204
Ni 3.7497325394115713 5.387085693471302 5.349157500254792 -0.03274274164865974 -0.6405849533177419 -0.5419862324062213
Ni 5.01542524401364 0.38523592683774227 3.1534443610718803 0.740486452201086 0.49489262135252826 -0.26886334289945957
Ni 7.355747010363178 4.616669268760961 8.959354086626584 1.0225549809369099 -0.1326108161909071 0.0707601014326975
P 6.881127258148796 2.8557557132323095 7.40661786694103 -1.7882238459408946 -0.28489802776481904 -0.03845958952777893
P 7.635312234232527 5.690614706604977 4.769607945572786 0.41229079008989644 -0.06237547691342806 0.12988698950184083
P 1.3556169623888716 8.398070223592006 0.11683871562901312 -0.9714620189158366 -0.27351292585632897 0.8737153615919662
P 6.26860024065381 7.4448860244770945 7.734664035174397 0.6608444748977265 -0.20587105833763897 -0.008609081825249689
P 6.729695325372827 0.3829679583472286 13.415410538351402 -0.08829759609582857 -0.7829708466175419 0.17491060540038264
P 5.437692338648628 4.164599867199711 1.1978605846898658 -0.3647976296049395 0.6657298280144857 -0.27747525293818665
P 2.3465575249283437 3.3799566747688377 4.878613624610734 -0.5724121529962465 -0.587313238477795 -0.49577836639159134
P 8.593549707336486 0.4633944629564467 9.264211547291566 0.791428747576908 -1.0878535450344038 0.8315963209347292
