# total energy = -340865.83669577364 ev
CRYSTAL
PRIMVEC
9.36513722711869 0.00000000000000 0.00000000000000

0.00000000000000 9.36513722711869 0.00000000000000

0.00000000000000 0.00000000000000 13.70682497446596

PRIMCOORD
 96 1
Ni 1.440283138528475 2.5962032593559083 13.473931548744332 -0.3701627505715947 0.24195237744122847 -0.4701218421657516
Ni 2.442090566058307 1.2665973090500293 8.889520021090053 -1.284858925451297 -0.3094451209765638 -0.0057384451456739885
Ni 3.2077279705218484 8.333848050052794 7.569059126994986 -1.2783974860966694 -0.2358274954904132 -1.0025574547690603
Ni 7.153887622729557 5.774730732934276 3.8919298903087607 -2.577310318537871 1.0725089442575335 -0.513025069287181
Ni 6.893845865632178 7.920115030819602 12.749800431148495 -0.306418161224782 0.9942710463905523 0.7015833473779852
Ni 7.807789578497567 1.1056012401098827 12.06173164632375 1.2617925305501367 -1.1942105697351046 -1.3509380764685572
Ni 2.947283512536538 2.4091627446172303 3.1523912494379362 0.9164915762172281 -1.7906856772178255 0.8402036029877659
Ni 6.750325142200862 2.7987618059853316 13.154165503911974 -1.4929305909846806 -1.4690373293068508 0.6300341743850892
Ni 0.49499993144510546 9.269996502575973 2.352872652593983 -0.566888652074856 -1.2147457135739788 0.9781841681310186
Ni 5.424877312691296 0.48722312173956783 11.439524123463318 0.6670017527483738 0.515796461384731 -0.27181368377703513
Ni 2.852058800246188 0.33858435097675377 4.898723316739398 1.1056772034793863 -0.755292406865667 -0.7860104047748141
Ni 8.773953294877018 6.355987321546872 12.747524702874838 0.9353336486243956 0.688895981718304 -0.6185220599804316
Ni 2.769008765963062 9.179913250459444 2.3808341419218055 -0.9712635297517854 0.42622565500343373 0.3575918558851196
Ni 7.303682987903057 6.061519321099834 6.340571369648647 2.2388580116956796 -1.9798782464585192 1.9053468509088476
Ni 8.031457143764131 7.933582097722978 8.576866797754995 0.09223395503575728 -0.08492970806486018 -1.5435353005154255
Ni 0.10903267017792809 2.095599229972708 2.37188388055911 -0.12051326159642471 0.8197430211405687 0.9786197130065405
Ni 8.64225137424964 0.9643187844045109 0.6620917680120998 -1.1446903515177898 -0.18246142116444705 -1.6388913461199321
Ni 1.0956086390070303 1.1346612599994341 11.283622689012349 -0.9016470550052278 -0.005087441825236399 0.7237632259091342
Ni 4.805738745202377 2.6546042532428693 1.5825901402138396 1.1217972489697001 -0.41055221013223486 0.6103454377069102
Ni 9.268132840327175 7.849904599265633 5.584064037176832 -1.0740950577977308 1.1701905526714234 0.8917267105677223
Ni 2.2951141071003263 6.468781030715339 8.98938796826962 -1.0562539158512518 -0.06449406591832763 1.1827498773936727
Ni 0.6496370724107094 4.065818006744864 6.273627497855386 1.0440905410158405 1.6202932714027707 -0.45314844753620664
Ni 5.564661346488087 7.508685835270855 7.463256492543744 -0.24641169876416272 1.1252078173131461 -0.7174437114490096
Ni 1.4283706843552524 1.3049475447727854 6.3945763682613075 0.4559152116480664 -0.5357775324923483 2.4881575735305983
P 3.2576535154883968 0.934803618860228 10.99883543060844 -0.12188417380202232 -0.6986044672553194 0.36498429169444885
P 3.4814521926719624 4.295938151355259 12.331098270260972 -1.4879621912358114 -0.3890066227509752 -0.15210672013198967
P 6.893574276661247 5.227357209729478 11.861762560055094 0.33594059616393107 0.7199135131457408 0.007294219668568083
P 2.216062986285727 5.7465042102313735 2.2752646993800862 -0.40380486410607225 0.5883025989742577 0.045120803598038425
P 7.621582560945537 3.981953205548947 5.487760461112303 0.06998465671925368 1.269059753635511 0.16637042913985542
P 8.486518512263386 7.84533441244446 3.3655052418996236 1.809541119361432 -0.6282392872681954 1.925825944698806
P 2.760327284030218 3.029500049633016 6.823682259762852 0.32647045188996676 0.01170237603859275 0.18618257876977612
P 0.9016173196399208 8.852180283641898 8.178300617777726 2.2500425675575895 -1.6086659715764877 -0.6636539193220635
Ni 2.911902025220159 3.9247696794627083 1.2155076775632525 -0.84994139910082 0.7161123942320957 0.09080442167808232
Ni 4.252699314155755 1.2239016497923871 7.368048637499865 -1.2950111833939502 0.6034759642805865 -1.3203350068707196
Ni 5.273424318281428 5.5876621227848124 5.321372882842341 -1.4455263906691038 0.39108021745055227 0.18325306382780696
Ni 4.64831079343204 6.028806897808116 11.562734674437506 0.582544613444558 0.3752280809096441 0.9447521137248182
Ni 6.315258341044243 1.669035973147288 8.131176185266533 1.7099260413702553 -1.885444455557966 0.8035088186698935
Ni 8.187817469924605 7.639292034877584 1.2376534168583933 0.9717684944126619 1.443081271562721 -0.9554566446265158
Ni 8.705428587970204 2.3089932400285615 6.25801487808166 -1.8873522141036398 -1.353025040904573 1.2343681157905968
Ni 6.878084340181286 1.758360649172599 2.2373508790382046 0.4559357804733567 -0.5110864575035714 0.061480218792668316
Ni 8.492418548528423 8.13423015641896 10.88157361461132 2.1948756925774586 0.7077449961040069 1.0038653749472066
Ni 1.5616272177127852 4.391350166384181 10.998054378188591 1.6622567603187501 1.0911877516139592 0.6634888544991089
Ni 6.12003269662994 5.620552483678176 8.53330673635884 0.720583799739888 0.8138163712434887 -0.06899555333310699
Ni 4.223742310772419 2.1576713575356936 12.801653321294957 -0.938585837013106 -0.20128549584948563 0.6564653719934243
Ni 3.2145176947951084 4.976352809768231 4.10601598398364 0.14689226581058573 0.2321587883895744 0.3544864774869185
Ni 8.141375755895508 4.158102066039624 2.8115302336738317 -0.3724003816528619 -2.2558612311218957 -0.5610329646250273
Ni 6.013691566805301 1.316447932921148 5.503002221463654 0.966241908167478 -2.0900096505999874 1.2614626580145436
Ni 8.169789581336984 0.9766152091918072 4.517083685246942 -0.14279701269528955 -1.9230779496400234 -1.6786909946153734
Ni 5.410501827505844 3.682727715542163 11.370358841190585 1.0720641434106313 0.30521077118024215 0.22709088694836377
Ni 1.769795481362461 8.493167759482715 10.308463758612945 -0.061691306362209875 -0.2705684985160244 -0.7043925346920062
Ni 9.061135218793579 1.041712275982742 8.648909986605897 -1.1764555597445288 1.5631988403826238 0.6304208683005467
Ni 3.6953238247111764 5.501549688726024 7.538479145381919 0.8467326623555353 -0.3784478733985224 -2.371020684605575
Ni 8.206407266727943 5.807902047935498 9.908458157089745 0.4232364904681227 -0.23650292429088302 0.8424726015276006
Ni 7.51598127693826 4.719607580869731 0.23104073757047852 -1.3783905162525554 1.9199404324523064 2.0066020356066088
Ni 6.20681942054759 6.596324830546405 0.8440470133985291 -1.4052508309785088 -0.20944077796676835 1.4355422828731987
Ni 6.5560266463424925 8.282826784065596 2.905106681864742 -1.4142561198009127 0.5709075434262619 0.24494719840349427
P 9.138060453525378 3.5574221834370405 0.8413142664427538 0.8658655265302443 -0.42218850881958264 -0.3665351811213365
P 7.5092102829388585 9.415053108463585 6.865858153920955 0.0038191166357740684 0.15978300573032483 -1.264886596094428
P 5.054149002234392 1.221270046315441 3.54128136994054 -0.0012714105132558748 0.12468359092403043 -0.405655801271882
P 4.4590226458304905 7.632352468413466 0.11979695856369997 -0.25218973889852053 -0.4592684443910155 -0.5992195029970776
P 5.858782836868766 3.7031156186358 9.035730411847274 0.9799194056545705 -1.4163806223430835 0.8647404117868654
P 0.8458160877643481 1.6296181118146678 4.421465637205589 0.7002494590579101 0.673504329753582 -1.2229213074062357
P 1.091244485198287 6.510970972578836 11.115508179492746 -0.5992590979857615 0.8364325659811079 0.10901014605283162
P 6.204253373029144 0.629717426163505 -0.25877933663939945 -0.07119924585264512 0.48540242247390597 1.4957459489462885
Ni 2.3945063053239184 0.306669837351355 13.203413949478582 -0.664358658698572 0.14348066902587547 0.43072200021189044
Ni 1.6933759640248078 6.371009001180401 6.143604746279311 0.08251569930672886 -0.37581120710662375 0.6467735986269572
Ni 6.689170798056882 7.856825435455894 5.314135505023892 -0.446374876257799 2.4856034396501774 -0.64673554630017
Ni 1.8080614308528595 5.522602516541593 13.434593291075604 -0.06355278505098087 -0.4376084429190786 -0.942522453063351
Ni 3.6750576683976126 8.260603314133947 11.923100460882877 0.44522122226933003 -0.7812186398131256 -0.4190018835614849
Ni 1.5964374316765177 7.69279506215087 3.982257572499128 0.6281536695329246 -0.45509220152613883 -0.6969754162923287
Ni 3.994034232186885 7.220810891221576 3.012623136373924 0.016312878227410618 -0.3722826251280749 0.4196904249880772
Ni 3.896430775116662 4.611093739277648 9.653113016162074 -0.8835372327783946 1.3184323905313682 0.7612072296882052
Ni 1.5246723873923955 7.685021998500104 0.7979293331071641 0.1987871549076641 -0.5304867164070541 0.12445424852204373
Ni 5.767425926129942 3.404498862529377 6.91982194593113 -0.4639496519167688 2.171131040662351 -2.2204486559505563
Ni 5.007079824031078 4.631584658877499 13.83498379972657 -0.012534642131900994 0.12932726034362887 -1.4991495753111987
Ni 4.186131920867025 2.6203746777687127 5.245067620175218 -2.257961308184034 0.8394656963804769 0.4671560746692083
Ni 9.337313106818995 5.71382924748737 1.5489945845097508 1.9233000929531585 -0.08943068125900729 0.40036627073816855
Ni -0.040984648740780824 5.863605882387013 4.245209077640234 1.6616646352607058 -0.5622385548973543 0.13545677028013445
Ni 1.6390581698387308 3.772820332795622 8.509786194962576 -0.2346219052180862 0.5207895437239483 0.7055310191718237
Ni 6.330467323416345 7.666891093406269 10.55329559682453 -1.0461273689402113 -1.0648869089359014 -1.203926768581604
Ni 6.078385932708303 3.2616336986830654 4.19031345450566 0.6628905587934777 1.5185053541299913 -1.7580961733175788
Ni 8.672950293101701 3.7926275973996835 12.233903133160837 1.549700291675557 -1.0689119709348947 -1.7071777892011568
Ni 4.3528875490182815 2.430917957702447 9.790126842455376 -0.34445531850316163 -2.799002917288799 -0.3956074158969445
Ni 8.003961101741663 4.031494779901421 7.94997202386178 -0.35292350387517285 -0.5660047068080059 0.16082096007653593
Ni 1.28551488564587 3.7481244667148146 3.4860017761918924 -1.4368512314926094 1.8566442434968218 0.6508418551590598
Ni 4.698002209975371 9.070210036477425 9.242388078910361 -0.09622842090713105 0.3842261706431963 0.36724994780017395
Ni 4.804867787468014 -0.21420034834540894 1.613060549724843 1.8773927888980826 1.0455560698177735 -0.9923694584924649
Ni 7.534926948944887 2.5868568527011315 10.10763214323316 0.23244649483332228 0.2081261729204029 0.18807285381395353
P 4.439365223417287 7.769074102434594 5.4905428432938 -0.7110138966632659 -0.48593489793860833 -0.12125605329972021
P 4.589479003246361 6.840033788840247 9.513208172098905 -1.550443854709801 0.3019940640151573 -0.8058608638418381
P 2.934284702479594 1.6098014820736781 1.1558761046838686 -0.40959601686655267 0.038442877357230565 -1.0957704858886355
P 6.953511153004504 0.2750868495732298 9.673180631572752 0.38513865515513673 0.015777574549230892 1.5177777319353474
P -0.03710186297016919 8.659633068389184 13.13668922188945 0.1406894794339835 -0.1158161132310715 -0.5906474450573506
P 0.03508929504420574 5.628840629860016 8.007156486461712 1.0300037239054713 0.6633937236821413 -0.7968943986771694
P 0.3915413907671003 2.865338564410991 10.306819240568275 -1.5601885928013906 -0.9622700680039235 -1.2415708041866231
P 5.870489258029558 4.650352393282482 2.0328724793384105 1.463489402905428 -0.08138312836418242 1.765948322372146
