# total energy = -381168.3889839853 ev
CRYSTAL
PRIMVEC
9.29112133192700 0.00000000000000 0.00000000000000

0.00000000000000 9.29112133192700 0.00000000000000

0.00000000000000 0.00000000000000 13.59849523021692

PRIMCOORD
 96 1
Ni 7.405144573596716 2.557808568408397 7.325822553400529 1.6025416038463045 -0.04099623990670359 -0.3003986945035794
Ni 7.554109123671152 5.185700065851377 11.845798902161315 -1.6574387701048165 -0.44726499217223614 1.002026521966255
Ni 6.36727985295399 8.40751721033223 2.3365748884241513 0.30772736695450875 0.5793124796605055 -0.7999920637658867
Ni 2.3674706545541655 3.7357648181487555 2.9818376978758763 0.04662669871960357 0.41912555362354265 -2.425479734885403
Ni 8.358311431177098 8.603615619480301 11.02213819902006 2.0688301883088953 -0.9408268105284829 0.8155359250377567
Ni 3.4611750150613814 2.558291706723364 4.370597414670052 1.4137714668550103 -2.7604865063811554 0.9781718268358445
Ni 3.7292981976253468 5.874330113744282 13.008592970820997 0.6832207857103975 -0.23404263567584851 1.0347890611092565
Ni 3.0089854256163173 9.184236380613692 3.028398294756561 0.03728382405212288 1.6741329429310456 -0.22498412501800605
Ni 4.321830176446968 2.229822690395695 9.905932600605388 0.7854874423918086 0.47051367828753166 0.40431368542169077
Ni 9.245752895679047 7.375013466761351 8.078880024706466 0.48261868908118166 2.1184347387098996 -0.25321200951544776
Ni 9.12180933564705 7.7073475896087595 1.7611822413259948 -0.44726807749602965 -0.5796400382032534 0.3909241514886623
Ni 1.0843760745797701 0.8562019268785906 11.662246294295942 0.21862398712793313 -1.370286141977866 0.6690025852284865
Ni 7.228139419011295 6.890574394792221 10.189297867894426 -1.1763776553187417 -0.8979654923885825 -1.3700367449712212
Ni 1.6137470098408595 7.277038591158849 3.393409291714353 0.5006014988118476 -1.8298327797309326 0.25114072880871585
Ni 6.693834898264673 9.050890205682718 12.454779882383283 -2.40795638128966 -0.6855612609181161 -1.0293308662081626
Ni 3.251251417208091 5.298689393703632 4.242281452887603 -0.10270143022598441 1.241706558433539 1.3436942504219502
Ni 1.130915301881139 3.745446166690985 8.11560968598971 1.2305713677523258 0.6768547342830536 -0.008761291132397814
Ni 6.918652163788974 3.574638190107162 2.4878036847939238 0.13481116627633558 1.5599152845353457 -1.8786773120374611
Ni 2.4227249537678293 7.9244810977007925 8.896258071528859 -0.3382813284819658 1.317756704620582 -1.4718400888629684
Ni 3.525005019365714 3.085850873303326 7.900195035364388 -0.12609409811831188 0.14471814097740238 -0.38865335317661454
Ni 3.1860649091732736 0.13209558998492366 10.608608036781677 -0.4056169776141466 -0.32237879831909644 -1.4682950518241875
Ni 0.2852327826988172 3.800505352354373 2.113831401205633 -1.9745673757685671 -1.0495073411560378 0.4142453427131059
Ni 6.956569230392465 8.577238125707376 8.05860401038429 1.5102446567830958 -0.2986685991863501 1.6322977520628148
Ni 7.014016234266365 2.0561158839220686 3.99731824874131 0.6889885414321102 -0.342082704505927 -0.09340637807730365
P 0.45334540495240855 2.1741874552029223 13.27758487323976 -0.754586639047894 0.26164111411940744 0.9307527141219325
Ni 1.8780701237351787 1.8955095586812096 9.819731434093779 -0.09386891953601899 1.6441482236434974 -1.3002125250892316
P 3.9265115413464207 4.555539045190956 1.3156376619360195 -0.11906521629598851 0.8266189223247957 0.45627953696602064
Ni 2.133408723195394 3.5920776250531934 0.4670079990323972 -0.17066211453667382 -0.4455904326832906 0.06619227955635697
P 1.3728189397366872 1.8602311705671553 3.2379511768643283 -0.4561391547334145 -0.7888987820662026 0.3905654825976628
P 3.76074864370543 3.981310575609442 5.961729834921865 1.3342824701897473 1.0743102591323304 0.36945004077528626
P 4.2047992107675825 0.30118470910203543 1.096457319790385 0.13958287663336608 -0.3216714878394266 0.7760023857195087
Ni 2.046629648930115 8.015552670072127 1.0684232190644076 0.8035607549537517 0.6516373544771616 0.18084522571726275
Ni 4.651785772205306 8.054612544612946 7.955147373131197 -1.4451888048240271 1.5013807786345628 0.4700853325008614
Ni 4.272633688413279 6.104712761012148 6.691221305803129 -0.06737267301770332 -0.9558970745980441 -0.7133898530946101
Ni 7.529255373814661 7.084405770308523 3.9788521448759737 0.5303360497618028 0.04133562552399333 0.4358701200717332
Ni 3.0827940943490133 2.7093653413650607 11.995912763958085 -0.1733059799174241 -0.21947219406084134 -0.14961789227186492
Ni 5.803420274901389 6.1480744247804635 2.400855512118406 1.7532481011966579 -2.2617241176605756 -1.4989536572503088
Ni 7.543266384948713 2.953062165658853 0.1813645487658578 1.631322275523423 -0.36489790262822963 0.05487325499911195
Ni 8.739145207950068 1.1282952056345856 1.8482800010567237 0.0972028690052584 0.7653029970241336 0.234085573098642
Ni 5.20071451810113 6.88198939858011 4.448163412913763 0.3663176657938917 -0.8498935765820201 0.2254230123276376
Ni 5.896396527168269 4.4694753872766855 0.42531502067500787 0.1446451216476219 2.1540805129379677 -0.7752603653471616
Ni 3.768915539452665 6.97314459104442 2.5874268053401805 -0.44283292454281153 0.6493105061161979 -0.8473543550999342
Ni 8.086731951436828 1.5089431599787229 11.935195285336714 -0.7811746739490676 0.6507004444851889 -1.2859326181314499
Ni 3.6644461699624293 6.562291200893385 10.436586639737572 -0.2225947988502231 0.5998265404534573 0.8180106118304944
Ni 1.8519156168768527 5.824576158424092 6.593312397162863 -0.26807967065589955 -0.21880704967301673 -0.0324537496533312
Ni 8.446298351229796 0.263835330018631 6.147580137119765 -1.2315982663549434 -0.6192229427021981 -0.6135112370294015
Ni 1.632988922346576 0.43770751845391903 5.652772173621721 0.4631320411114798 0.44228656512103826 -0.8073413050421062
Ni 8.683156910142513 0.4962369379757744 9.210926985179201 -0.23508213268395645 0.6209952041112725 0.20450194590425427
Ni 1.6057380631581324 5.968244769276771 9.194772512328555 0.4038812258699625 -2.837162716187972 -0.27869678405011356
Ni 2.693858459678899 0.7098463237049784 7.747715654048565 1.0849829083548281 0.9249240232552973 1.325602425917246
Ni 7.785857565790945 6.209414408538427 6.299584742129919 -1.3927637542550917 -0.7396001929413908 1.1048356814146971
Ni 4.728790586713941 4.9990971828166995 8.995500256096005 -0.3136581306166469 0.10888801865267052 -0.8428029882838259
Ni 6.96118691774898 4.350995006652398 9.404325394436322 -1.6861163405451671 -1.2094667245632267 1.3746804143908198
Ni 4.280679799581773 0.5652755449603126 12.467359131703173 1.8513326014759213 1.6983097972875654 1.0112696378310777
Ni 6.309870013565857 1.0160120030118978 0.7951471805488869 0.9475574443840971 -0.6237899932475902 -0.09314643954769765
Ni 1.7369658624004032 5.0064743332413935 12.277156868221988 1.1691644253997542 -0.27116319467722977 -0.5564062644862933
P 8.151333118820821 5.64303693657513 2.5013074006972595 0.440206542663558 -0.9529251364539137 -0.9657945362174143
Ni 2.274169213036828 1.2389617531264214 0.555049736701601 -0.11494785169350526 -0.6815372273603875 0.20393373210561005
P 7.4009078222193105 0.02020354357493047 4.10066710898568 0.9910286281938545 -0.9948706276477641 0.055988856660793895
Ni 7.713135958266925 4.505478482863191 4.590865747136507 0.5649428412023948 -0.1213486130135265 0.1346666702786713
P 3.967736247183149 0.33902744673399304 6.0540361973328 0.6855707739998128 -0.13491889549879346 -0.2981430657001833
P 6.159065821445969 6.596343160977138 7.742684511787896 0.5778014423326179 -1.5531383708228284 0.4767612018591402
P 8.841514783994487 4.110633694956168 6.584337173850201 0.24447000165675964 0.22542249810700535 -0.6183855344025673
Ni 5.598783325148414 1.173431473598261 7.766685336696041 -1.7079450063844845 -0.649788731304197 1.4948188091463288
Ni 0.8071401601058058 7.229914023206654 12.845084099241758 -1.0030073978222855 -0.13134763320776735 0.4224242789794725
Ni 5.5858686663444805 0.19733598652410358 10.129260499362585 0.8346783022941625 -0.5181893870969398 0.23369168009433303
Ni 6.020470162900447 4.290221781302377 6.75808486125817 -0.6451987979406695 0.906866137312322 0.19526551490765082
Ni 1.8746231176803156 5.7067368651792805 1.5420418510025593 0.09164131575708087 0.09281528146052402 -0.28630133587024886
Ni 4.661429956261769 2.583777252837889 0.4065348769049426 -1.6404874869624588 0.4243158395752305 -1.7227651021164525
Ni 5.206753747038221 0.09486606636811684 4.184868826163037 -1.2942105418695258 0.6442798856708258 -0.18636358443233064
Ni 9.138942163585506 4.968027672715727 0.18773825807484942 -0.3952826855676741 0.7481722508811179 -0.3346151924842882
Ni 2.9610060744914883 8.05595975722199 12.495453624718522 -0.5514522629151277 -0.7222987255484656 -0.43072457131505176
Ni 9.138700594428023 2.344930393936653 5.210766582388882 -0.7901223700606586 -0.009123816678139125 -1.2831486276284094
Ni 6.045853506679113 2.9753329837545572 11.872520167427583 0.7731464043279523 -2.084661756024513 0.28328671741364114
Ni 5.053199382971595 4.776909304660394 11.348216609800785 -0.632731004490962 1.3764914994576294 -0.2401073538126897
Ni 5.694073066654272 2.0123639930532033 5.729739823644588 -1.7908653973287998 0.4904736663492262 -0.49135298363038604
Ni 0.19119920081187475 7.129495582664991 5.367394449428414 1.9837528989225772 1.6297641870076833 -0.14412704436062276
Ni 7.509446702901002 6.859049619740605 0.2642311317920465 -0.5634184341380685 -0.4698207659855651 -0.12858164042685596
Ni 5.201615756880972 7.821712003434384 0.1962628619975897 -0.7522801024019045 -0.6365164396753231 0.35744530300492633
Ni 0.18244696441381336 5.898858674350313 10.967186790365394 -1.0230401481034446 0.8774164645926373 -1.182022255199029
Ni 0.7374418834989085 5.20226613538189 4.027385246838727 -0.3079811348365276 -0.15644777070950477 0.36906437530109343
Ni 1.8001547793252604 3.0970652568834325 5.994311939593544 0.25287699477353226 0.4069125564971186 0.35548586528571036
Ni 6.259447097501867 8.323014460820161 5.950919615124472 0.17644683953925097 -0.12111104308142366 -0.35194159957787774
Ni 8.597111834471127 9.133060883712924 13.481494328183851 1.7531375437607226 -0.17592490559750992 0.9198370956506932
Ni 4.9478101924586335 1.9998860169570287 2.508772816775649 -0.09922247053844847 -0.348435129086516 1.7447009829575955
Ni 5.398457455744379 4.24745474930633 4.3027136940807145 -0.3474725080629306 -0.29210611547748405 0.05502109343088589
Ni 8.638708185165521 5.298577900246332 8.483693256808266 0.7891299242404022 -0.4390832276923922 -0.37705973480174415
Ni 8.897735359838084 2.8175232860676434 9.378325120193928 -0.23230894081419348 0.10747853989965361 1.0927029027069053
P 2.959538077303703 4.16200430540721 10.404045416000237 0.27868315720335873 0.5162194078547626 -0.7600034391880912
Ni 9.232838236875113 3.557951335997907 11.633907444786676 0.4144577158342282 -0.15787421874338617 0.0945435770055404
P 1.3698086163895835 7.802386470835692 10.756898980551592 -0.06756524864448364 0.5153529460894093 0.8062326453589598
Ni 3.249699799927331 7.6853555051563065 5.188954745692397 -1.1814656113646103 0.9064426766216583 0.2781252278173597
P 5.413583401451432 7.536019310224203 11.337759452618176 0.007457484719309737 0.0901989268835995 0.7564666296794262
P 0.624856719429366 0.2523905266267711 7.592828943167204 1.4665911817592032 -0.6945776054841135 -0.14445563134463507
P 6.925899238513484 2.0025525688107906 9.374666276570196 -1.385348178517311 -0.2193079005688352 1.0330975323394465
Ni 0.5489371079051205 9.100560540909932 3.589268919041374 -1.7417722393465744 2.0153610127461614 0.7250140675970997
