# total energy = -340861.6062688651 ev
CRYSTAL
PRIMVEC
9.30334432406907 0.00000000000000 0.00000000000000
0.00000000000000 9.30334432406907 0.00000000000000
0.00000000000000 0.00000000000000 13.61638481473410
PRIMCOORD
 96 1
Ni 8.215895059317555 4.204962804820437 2.8963822948076308 -0.7800685853690823 0.9101453222842262 0.11733692075097212
Ni 2.7920638943101537 6.385601603340465 5.879759232548629 -0.4390408044902309 -1.1315975228895736 -0.8213206500403339
Ni 6.34463897804925 0.7661601801345588 2.8251279802254334 -0.6634626292468638 -0.0888814936237566 -0.6729854811356345
Ni 1.5602266720618785 1.3229634804193966 10.85018911834755 -1.276607741186098 -3.391858939961694 1.5392343591472264
Ni 2.4148784032400386 4.89207991046051 12.557384442868079 -1.2248380648129744 -0.44743262809835194 0.6728096176794026
Ni 6.489324589797825 3.0602234926281127 12.27387711733165 0.38803217465284784 -0.47915387046103286 0.9507199012724789
Ni 4.960478098319018 2.438592628056597 8.876752545119567 -0.6558326235054317 0.3636321485419286 -1.258394817722497
Ni 3.2071326036827505 3.56256687559982 2.1019343657608602 0.20300299276122455 -0.1775696402897845 -0.07376237859413103
Ni 5.211873070069916 4.284078445401061 10.58755663692387 0.1653640993625281 -2.6110521908750064 0.7202007053688564
Ni 6.767717866930305 8.35013301533094 4.470898903832332 0.3427969569641322 0.572977024360781 0.8296052586466293
Ni 6.864965725701384 0.3089622060858918 13.14222151076364 -1.5506590560444005 1.5535844572213113 0.020318914063010167
Ni 2.4814345289119326 3.308101800204566 8.713914247822908 1.0082257087984312 -0.3635825262509158 -0.9521028976629345
Ni 6.982736762167768 2.3448893434930915 9.933805975891325 -0.03978267921457665 0.5241209220900264 -0.26919167277315575
Ni 4.365045451512676 2.1736147735155167 4.118384951715151 0.28522404364567006 1.4733981773787077 0.0603029106551155
Ni 0.769756853070644 3.1896423162542966 2.2412705544927527 1.5136958485564898 0.118340422314822 -1.279770712295112
Ni 0.43661990662154043 2.2945117336925174 6.6913094995633395 0.24348244093250968 -0.88630759643468 1.2184607005317207
Ni 1.1255651194316625 2.5062744583980883 4.514403202807298 -0.07417504065151742 -1.3012756762464235 -0.39012916639119266
Ni 8.406669439108981 7.946926070038811 13.383231159186675 1.3123262776336302 -1.2818347939129924 1.5818339389853082
Ni 5.526205166530119 0.7738819559673337 6.378595254690269 0.25262194133993265 0.9118044551542039 0.3846357473767892
Ni 1.1118240797870738 8.391495684430359 2.1269882721676834 -0.9618342660180855 -1.203564757256495 0.2453955987948225
Ni 5.184111890449434 8.688756143959065 8.78955322860991 0.9509207044293752 -0.10392424688949199 0.1357179943613211
Ni 2.8712353549570393 1.3057615966666245 1.2725142348671208 -0.1194634801756717 0.04456775930804582 -0.19857246779369675
Ni 9.215567322641855 9.317857594065181 8.268004951841096 0.3767121216543383 0.2491308974675387 0.920188565452841
Ni 8.07386090071638 2.1198228363286433 0.875625190741302 -0.11815993087289973 0.8139135589429854 -0.4728009316598115
P 1.4817250522101253 7.247733223397603 13.278711806450657 0.07650548855690696 0.012948332630551895 -0.2718273106237899
P 1.5729722538581459 1.4112615218999596 8.653457394724468 1.961370931682951 -2.3693011308113068 -2.1006169938021886
P 7.910438353392855 4.254558933693357 10.178356477184183 0.6145761879588061 0.5501826521740848 0.9017267592032276
P 0.07258934450027314 0.5318563823383486 4.650336228166143 0.8095264856188832 -0.8053358445763035 3.0895188054610276
P 5.04069153353611 6.989984067437325 7.308689666089077 -0.20524808004165943 -0.2512471724795931 -0.05888469015135021
P 2.8040745119006507 3.808575210956529 4.219527190442375 0.5322211825996576 0.4640265279012911 -0.2066030514076571
P 3.626052897627358 7.7554725461078755 10.511876721421613 -1.3687524789421588 0.8441739004894235 -2.0194873762097094
P 4.809670885970485 0.16431101671151221 4.347929158528172 -0.35931783743729084 -1.1696369941607987 -0.6370409447202254
Ni 2.8071353122006304 0.13465939751365635 12.390733635045791 1.4266159269178462 -0.4150020183734724 -1.471447224299924
Ni 2.682489104239764 3.0624655986229303 11.0732386604511 4.682228253708259 0.0547243881260735 1.7107721914206344
Ni 9.465780769656893 2.399360424819474 9.687990219763215 -3.906593021520182 0.6649132456504613 0.1258128194324672
Ni 1.1700909256192058 4.367938791613873 10.33529924514924 -0.5164191825703945 3.323495106675315 2.193216559707481
Ni 4.410027121574685 4.935163698269644 8.403501650348666 0.49167694262870804 0.5695911386076835 -0.4140301413785063
Ni 3.6382216720722615 7.72595303440017 3.296581468862728 -0.39376419204061863 1.162869593529978 -1.0214249810975249
Ni 7.503593800449383 5.108419880599485 12.3464115721001 -0.3202810352498032 0.5874263670168914 -0.23923909227512344
Ni 3.6414034158491395 6.733909513464877 12.375755250599084 0.8842057196003288 0.5884283259188446 0.4907845127214257
Ni 9.04402295567735 6.564207208686987 5.386410322920447 -0.7784007107483562 0.9095909924426527 0.20097567791855064
Ni 2.4008675666085213 0.49244648522362805 3.463558824072642 0.07743211413623438 0.8273020644347494 1.58652517381339
Ni 2.3938342382596325 3.97144886096182 6.408211521179493 0.3141625810568912 -0.6417761454123656 -0.46803719172258107
Ni 5.769301555096877 6.341745637948055 10.270416791130739 0.041601734701186416 2.5994092073194395 -0.55704338384966
Ni 3.068345312269092 8.351686673841872 0.7862916870315969 -0.2812252068989221 -0.5865339371096091 0.40846241748274176
Ni 3.0334112541340676 8.077424081612708 8.261292588873207 0.20450991632405424 0.05919990739892385 -1.1589517465328105
Ni 2.2460040961116876 6.049295007462174 1.508804296687786 -1.0036979961314068 -0.6487811159752891 -0.5034091434639717
Ni 2.0640306801007497 5.676063437752214 8.042653762338716 -0.18247813333499543 0.9025952778511099 0.49593443235348134
Ni 8.14660375039887 6.4951577867221015 9.982675513568411 0.759037475730396 -0.5490603656441835 -0.17496639833898253
Ni 0.05123072647993004 8.538088481776184 11.328559643529024 0.7153688311978519 0.9407661324938766 -0.28528523590090865
Ni 3.0044220330558424 1.0564412707117612 6.534584429856701 -1.2900885492813525 2.610619988433594 1.1627729200511137
Ni 6.1820444283752645 7.892882942553763 2.3096110616161245 -1.0904246481956898 -2.7828574178771874 -0.3576710458624872
Ni 7.073863020338889 4.854345545668059 8.247744128457219 -0.535915086511477 -0.22638486202027464 0.3927100397444914
Ni 7.395563365545547 5.779814334242704 1.2433268525536694 0.12493298793067516 -0.10793722470362702 -0.10769965477152418
Ni 7.074290974180225 2.541859750639491 7.340947152046886 -2.0579279395740944 -1.384141045583087 2.7845124369821077
Ni 7.3822967964641775 1.8932957040970313 5.118344688380695 0.7849318269986546 -0.8088186609185812 -1.1295601807445708
P 3.016004696805005 3.041961027616381 -0.007342199382200008 -0.3117652844693082 -0.09844908270753368 -0.6391973289415959
P 9.520763534924 7.149089862969996 7.57633385912856 -0.08338190396176608 -0.1602026097662467 -0.47458502014342785
P 8.18260769313723 3.6711276011331346 6.1933721804885025 1.5761764835892145 3.768018531546672 -1.7301955902525685
P 5.029108869786947 1.8864670493244329 11.35866526593247 -0.9866238142579394 -0.8957538294492444 -1.1796624967176008
P 7.169864230963475 6.331000275192807 3.6984552449056567 0.8072410320188164 -1.1571645727254005 0.13246246353850089
P 5.581764739148591 5.127789443592061 13.647838740621557 0.6290106182165812 -0.9435822617864329 -0.12322963208632325
P 6.991630759392025 0.4943164574433724 8.103573921987122 -0.0018553080411839017 0.19219973149813352 -0.017946814286407802
P 4.566527980681842 3.2241670272367395 6.679667294410165 -0.10015320988283397 -3.1807109494958317 1.5979812381691316
Ni 7.23738790445056 7.612052189194552 8.233582577646798 0.4425927835075474 -0.7577742927472563 -1.312891663218797
Ni 6.542818819964639 4.409320067402045 4.624219879831486 -0.03092368616204997 -1.25013823414066 -0.5621511373898705
Ni 6.1004820082235325 7.275513009706838 13.498902430827206 -0.257883189738872 0.6254892353268842 -0.8604217298068537
Ni 4.384545261326528 6.5140342724627045 1.2878107936915169 1.7300528940271171 0.48245876646454966 -2.869420547780413
Ni 4.271351470293547 5.446270831644332 3.0258876395365193 -1.0694588445773 -2.017686061334912 3.35216110715144
Ni 0.1861757366659553 6.160032715579668 11.794049688420765 1.8493147997149442 -0.0068884995897171685 1.275871891461338
Ni 5.168147351498781 8.619930002259222 11.548627463759798 0.8236618965790008 1.4287458287766555 0.18284245865294962
Ni 5.091701770754308 2.383405189213198 0.5160648855931049 -0.3257639127412454 -1.1517400592757197 -0.31511234656467024
Ni 5.04069153353611 6.814876519576493 4.696576640722338 1.43329745270308 0.5558730176906427 0.14680896206816005
Ni 1.5385033629419633 8.163033456568366 5.806353054412069 -2.3560442658014003 2.0183872011669948 -0.24265428860425953
Ni 0.710421983304051 3.030071353502783 12.519244452260796 -0.32743872934050705 0.09203443743044148 0.8292841278617847
Ni 3.8094311186391985 8.467569131399758 5.92177964809549 1.3007545136356307 -1.739429707256327 0.27952545059899603
Ni 0.9705714021135529 0.17599973858657064 0.08275324823196792 -0.9041528521462171 0.7729080630649011 -0.26545148900443316
Ni 6.782072927303764 6.062970923696124 6.154932622192286 0.9049689202896091 1.2732190272195234 0.8526310301178412
Ni 1.2796936257227263 7.473134650959617 9.48769293666766 -0.9146187846745475 -0.23129926860275649 1.122114265989487
Ni 0.13733596969087244 5.995289093354632 2.5083146818199284 -0.335322502963958 1.587186461546473 0.3163130517409907
Ni 0.22459389727010498 4.286608955071561 8.457381969307121 -2.2128947548626985 0.5888314748945344 -3.4949406363452327
Ni 5.642031804021743 3.8369876246833905 2.227381591672572 0.3028630968836719 0.6204169630102992 -0.6698559343677173
Ni 8.082438584231822 8.840744881043456 6.199023031862993 0.9872737891371125 0.5836206201175561 0.49309490602215716
Ni 4.665189947798202 5.083672984557098 5.963349781774513 -0.4548592595797263 -0.5201742787374525 0.18431775764689548
Ni 0.8870496976360581 4.825663334954268 4.577978536940853 0.36728620035474807 -0.03984412858013138 -0.25066481761356185
Ni 9.128460109241527 1.0286335743693944 2.7392488082828486 -0.7509688397896486 0.14548535816073008 -1.5158152088923378
Ni 3.550444617876801 0.7205142512840441 9.747657218924061 -0.7217119998070602 0.12587889678371225 0.8644840728016854
Ni 7.3866879750100445 0.10960735177570882 10.257426531377362 0.005224481623732938 -0.15783410953407012 -0.36476677636700405
P 7.071118533747723 2.588246225702402 3.0687518684183592 0.5752737908147577 0.3890793849704396 0.4255677097044606
P 0.11710398667456431 4.561541388095858 0.5832247983150559 -0.7844469169424361 0.08985799860441297 0.25372160216201467
P 3.36265661163034 5.277117424184675 10.370811040970064 -1.3235681690960366 -0.27825301164447563 0.30989146448536303
P 8.735635696273947 1.2244317601243127 12.481567768203481 0.21062194275906307 0.059961211044980596 -0.3551973875110141
P 8.15710722620032 8.384443749392716 1.9703999616233836 1.7110640116294404 0.6591352055161036 -1.0262877085064646
P 1.7107361773903527 6.955012795924793 3.648823763324105 -0.5629852032553917 -0.5197497896055242 1.4893894106006413
P 4.949611792086872 -0.11107914085612447 1.1543003592083998 0.6409073696541672 1.2318844301367944 -1.506875997421179
P 7.247221539456876 7.719077862905688 11.564831098660935 -0.8296160572799066 -1.1770255733153858 0.3006339504428371
