# total energy = -381172.09420723916 ev
CRYSTAL
PRIMVEC
9.24434070764319 0.00000000000000 0.00000000000000

0.00000000000000 9.24434070764319 0.00000000000000

0.00000000000000 0.00000000000000 13.53002705791263

PRIMCOORD
 96 1
Ni 4.648812484041636 2.3347506591398286 9.902991535983324 -1.1392354990508058 -0.03630757618178264 1.3470536538124867
Ni 0.7223157962565316 5.945146364827105 11.754413865073781 0.3746192436810516 0.1688083491573867 -0.2627916827840829
Ni 0.9542100799298077 3.6948797343294952 7.020054253222201 -0.1731627694713405 1.5353741048608718 0.6091601591495575
Ni 4.394232588563128 1.795833335827053 7.157221778880724 -1.0256498178121498 -0.41184907456678743 0.6785760878495346
Ni 5.111528707879871 3.032957215140434 2.68332885859468 0.0503789666731842 -0.4865571049036395 0.3830547760429145
Ni 3.43898714248736 0.3859151666594758 9.105789185483998 0.13820142290480716 0.32638277727216697 1.3495494236511467
Ni 8.04693039678534 7.625684284829039 8.307855607644088 -2.5378382285851773 -0.8163206257225811 0.06104518813777874
Ni 1.438595038108493 6.927274353335477 0.4030893026055875 0.20423712227864183 1.407970543902517 0.20279679028768946
Ni 2.473138437756091 4.817327568637216 13.102870111401808 0.4354901110244952 -0.45127565599352604 0.23560226685348454
Ni 5.160283360145881 7.573342828414525 8.08815553364167 1.4597116810305504 1.671745673645792 -0.9481822224522896
Ni 0.20996208562604274 2.770011191428947 4.859078708473053 0.023093905704986033 0.03016521072947063 -0.3718213692209403
Ni 0.0821581525500448 1.083926667073655 0.36671929342656534 0.08101983148749273 0.2144695986399274 -0.7250716603079126
Ni 8.826690525461476 0.43422424170909923 8.793083649684483 -1.0733154993192289 1.2922500757090454 0.26996788881754796
Ni 4.784787489764187 6.955830121414678 3.2704239873207164 0.4080914072965682 -0.8449308332601062 -0.7119104403356061
Ni 7.829235420256659 8.62474790529633 10.869780390152487 -0.7154207674817098 0.5864884285836545 -1.4900113604553564
Ni 5.254168883167041 6.908018391888739 11.434036451019516 -2.383712678250946 1.2045559175251705 1.4135441813355527
Ni 5.695835743484286 0.5991978194250617 12.190377891681717 0.02365800573857216 -0.2420220543368993 -0.43506356501003784
Ni 6.2877970930963345 5.537165881615915 7.201640835410526 -0.6568438383787655 0.18954712436663484 -0.06350419120123257
Ni 7.007644650415623 3.577513586212456 4.282389009513915 -0.39418251052495984 -0.6079779659159981 -0.7872121383923991
Ni 5.008176980095649 1.756295291128205 4.869294629257879 0.006819851135310836 -1.9257644953332513 -1.7316081543293789
Ni 4.907996061133429 3.6620623252387983 5.830264171026311 1.8178187859891917 2.3621688906418994 0.39811269881730144
Ni 8.826893900954433 5.460937049119608 0.40350992010238373 0.8523741769120288 0.04105768927225832 0.831736188946703
Ni 6.215192042110889 1.6460657739458195 0.9651563036211582 1.024516732648971 -0.9228967084126234 0.17391610269759725
Ni 0.12990609612592036 0.11763146069194083 4.069994737878925 0.3384116834122429 -0.1177927773414681 -0.2608016489372476
P 6.241917430753482 0.6353542843364796 3.098876759011967 -1.7621724002694814 1.7264088695166269 -2.3240813397415585
Ni 3.617624780027818 2.485978826834113 12.44734097816405 0.005996326792750964 -0.703636373252272 -1.0280018629840941
P 1.9261230720874138 7.985363088463076 10.22244913814899 -0.23754987749815862 0.8298299730629256 0.5357335666282902
Ni 6.316926010292049 0.44822756883320847 6.427087119354077 -1.2230269797461648 -1.106464989488004 1.3842102082581258
P 2.165662425427734 0.7643359464035071 13.306605209207147 -0.164014270202853 0.20632125850118013 -0.5086063713941951
P 5.622749986788216 5.258846519505039 1.8789279400787564 -1.710181609024487 0.5091501597128071 0.8711321742458222
P 2.339456028499593 2.596707538408301 8.80015926797125 0.6014946721844996 -0.35580519629834206 0.47167890224022635
Ni 1.3560985426928933 2.8522118679457003 12.56100661674334 -2.3113829183382837 -0.2398397019735998 -1.0888400773173894
Ni 8.485962620034742 8.898916558482775 6.04472917495322 0.6933563314825028 -1.598837158411524 2.431701290315083
Ni 5.780966875967731 3.4914395309889414 8.318869315021738 1.082033081697885 0.4261058415961178 -0.8453116136382925
Ni 6.60805802845918 8.13097994141988 4.147061107632588 -0.37753461755563367 0.4442326331038155 0.6787419240034375
Ni 1.6311916299382332 5.378440553704009 2.0912417859506225 -0.576404304874775 0.6492711682378303 -1.0889166961915957
Ni 2.2720278082439473 3.0731978297240405 1.123733722083641 0.02343020599848223 -0.22061556363666524 1.842838447961981
Ni 0.9777461710692202 8.032222650908356 8.167779812436288 1.557640629568556 -1.0403259317670857 0.3006491199514887
Ni 7.378204042922828 1.2030215068808234 4.731883053007808 1.4422464343662516 2.1384106676111947 -1.9239181861531316
Ni 3.5903262422687114 4.130879813865727 7.764328131679614 -1.2100827608806708 0.5929089873980176 0.5599914107343904
Ni 9.176514862027714 4.1789134075658 10.63539937886079 -0.5584055543045093 -1.5697199293305932 0.9540795617733311
Ni 7.031948021823917 6.580149364221204 10.324627759112479 2.0967654812665826 -1.0869161208217992 -1.30836677876525
Ni 3.786426439181656 1.2176275650113306 1.0870688184398318 0.7406738856215438 0.2707955269251659 0.9793841019763906
Ni 6.011049268885577 0.8122807944339268 8.5865475166807 -0.11565259107001373 -1.271006850059553 1.3242921917462547
Ni 2.5907356943878526 6.826095045589652 3.5866072440497856 -1.0855099845028917 1.3039133709795867 0.6992521281416474
Ni 2.9405600309540922 1.8847361592707803 3.576527215071618 -0.8757254500434596 3.6794645964656634 -0.5174077717359089
Ni 8.615180012786787 1.3992511245620125 11.434171418392113 -0.14450551074596404 1.2882273277028975 0.8771935499485537
Ni 1.3344298083524446 5.384782171348014 5.22765056775364 0.345555750656192 -0.47282252892636634 -0.8374093280720805
Ni 2.845768562555217 6.786048562158412 12.022659669244902 1.034406223848541 0.6815331135953295 -1.8204436252065486
Ni 7.676722289220515 3.8037965551482524 6.481979089337076 0.30109854878408143 -0.7607788839015349 0.2514279210318315
Ni 7.117827945895064 3.8990872179389298 1.5084489733346738 1.0847872474042544 -0.4717789181532004 0.5519875665933074
Ni 1.7122644969031378 0.33085217637558095 2.568784083225383 -0.9381014411775199 -1.0119656354568376 -2.715427666369304
Ni 5.852730691959584 6.510262149368903 0.029648449136812076 0.502633955860844 0.32254360603173476 0.8019003365321932
Ni 2.652552599906019 2.894550947842994 5.747095612049896 0.46643976532847414 0.6572876107844035 -1.0157456713245603
Ni 8.492969830201151 7.046655767700902 4.488829925809635 2.157980619323322 -1.1398474216031917 -0.1805822018638632
Ni 8.861911463105294 4.842000713669067 3.552484534067932 -0.14176034390065909 -0.18562130694966741 -0.5968039515770496
P 8.365841658422204 1.7369099089132216 6.742553939687504 0.12615194793944082 0.4056120925181401 0.9012107387987577
Ni 7.174782328263453 4.833893426972576 12.471383659167737 -0.1831641036584265 0.2657127130856198 -0.9589782846265292
P 2.0743930507932413 5.906939505173062 7.16979130877949 0.009411523121887016 0.1607407416579038 -0.7034689944364724
Ni 8.129833643186853 5.069892197867337 8.796370937197906 -1.4300005271193632 -1.434561149906852 1.1124960261734325
P 5.33709986259032 8.548602271865322 10.106740500299548 0.35036422778842885 1.2036956264074044 -0.10067720070710404
P 0.31696810124506897 7.458213810720007 2.2796738023450502 0.3708178676570904 -0.6991942783205184 0.6198616047274615
P 8.175454463993217 6.945531925998611 12.21595051105287 -0.5898720003439066 0.02428689757182269 0.6983509564836167
Ni 3.1697549671754013 6.784550978983006 8.86163967949198 -1.5312240872482403 0.48368415423121863 0.13872644217034175
Ni 3.774843280423728 9.167289010119964 3.380517612696445 2.1946862022744718 -2.3145461465576136 0.41086408494569887
Ni 0.15192426654063068 2.6189032001623183 8.882083538704395 -0.0344340133081536 0.44865647320312413 0.2035678641257591
Ni 8.870092704526495 5.897362368322932 6.946884373026771 1.0052607126328366 1.1423421630005874 -2.174654223324261
Ni 7.355462965074065 8.773720453886915 13.17070970481366 0.9325925955441486 -0.8438044329651467 1.0876733107027978
Ni 1.4735016681722877 1.1426744515162968 10.53991828265398 0.8115676844186281 0.12747298074370952 -0.7464025605752049
Ni 7.2892919751385135 6.636160823849523 2.2973036842821966 0.47608551594835424 -0.49257348630104847 -0.06098373877222401
Ni 8.729449306806535 1.8568090063516267 2.4610033918650043 -0.19546091874790852 2.5890859710165604 0.9689737052763441
Ni 3.6832595982092116 8.340530653889717 0.0268455650702489 0.011192783392025885 -0.7624123057398999 0.889708394586113
Ni 6.216513982815107 5.758614060423701 4.679495374890347 0.72618623352833 -0.1914443413893477 0.5438600523901667
Ni 4.989198348866578 5.737019280807964 9.41699344037187 -0.19550848415639233 -1.8481156372005203 -0.2757886092643831
Ni 3.7454832547132906 6.117479362085913 1.1836324269296044 -0.19151813205007662 0.012825176789126298 -0.23496489037980178
Ni 7.214477526752313 2.270419292981474 9.78172242726964 0.5329729731640176 0.9602224414462753 0.4916031519679792
Ni 3.0843927261772337 8.586448602236397 7.230690251277176 0.18539942074684845 0.41222805517276107 -1.0489694663746967
Ni 4.719189648945149 4.610735045155837 11.88535717621378 0.03320502599705894 0.42559367784638963 -1.0084702207090697
Ni 3.6297995765834368 0.20189917176437916 11.5649261449841 -1.6934295863771287 -0.716056858403812 -1.3128700659522423
Ni 3.701452460488223 4.592486716833292 3.817131516447782 -0.5782241316923332 0.05266622004546414 8.407507337404875e-05
Ni 0.6978488000198141 8.634195621378213 12.091257298585049 0.6786089979699991 -0.5574982119988915 0.15579033963116395
Ni 4.0984968887827105 5.859423594545969 5.889377106922215 -1.4327865745049324 -0.2182609473615596 0.6239501729745383
Ni 5.617212626775448 8.465236808434364 1.4448848874452 0.037322647709858305 0.6516448106763294 0.49545363606232085
Ni 4.554418522288084 8.06376434099778 5.5740868534940375 0.5729603121902326 0.8538427910377553 -0.8133612859839411
Ni 6.438720197551184 2.699560071800721 11.99760288407861 0.005905052630525313 0.23160831520274305 0.31345244236374403
Ni 2.7628098501101714 4.167431936554352 10.543665938328733 -0.728115846450875 -0.41404659643873853 -0.08145254814953713
Ni 8.093836180933565 9.041316380914633 1.9691194246005803 -0.8320251809420316 -1.297321576694682 0.06893564662944902
Ni 1.2085588668935916 5.4356260445871225 9.090378869722255 -0.32355173558127504 0.12455812108975968 0.04256049907002992
P 6.314513237398339 4.436543935438655 10.31740330694223 1.4320427543603724 -1.9630323785457742 0.6934933712809992
Ni 4.869132853297573 3.5633512564302174 0.351380159087356 0.4737100737376422 1.045051105156897 1.537365681369604
P 1.5873457225249445 3.7451227254303223 3.252063802477045 -0.025334107889414433 -1.9732437718611369 1.607705407435431
Ni 1.481886285086446 7.8726468436622685 5.760950105290523 -0.32613595136868345 -0.3768638167408542 -0.874872615124861
P 2.952512963335577 0.7551979157313511 5.47219203378663 0.7072850257484529 -1.1130698963990315 -0.09683571547382677
P 6.7547102475619445 7.423436601424457 6.374130914290399 0.29768643777873893 0.4802872127345277 -0.5348591344431368
P 8.460549927755777 3.1707441116184163 13.55262207199813 0.5495079947045634 -0.5632500268810041 -1.1629410701978617
Ni 1.2745449700173646 1.2333984100560431 6.846802368508852 -0.07374798041642783 -0.9802343657918281 0.7023942733150548
