# total energy = -340895.22593050177 ev
CRYSTAL
PRIMVEC
9.01010586474295 0.00000000000000 0.00000000000000

0.00000000000000 9.01010586474295 0.00000000000000

0.00000000000000 0.00000000000000 13.18720068851600

PRIMCOORD
 96 1
Ni 6.377586998938976 1.8794089147921693 11.437536156480721 1.0210753110675899 -0.3645225215666819 -0.2760549755518923
Ni 4.590955141401096 0.19388215510488252 5.761566980800679 -0.19885220381764462 -0.4358523794599203 0.43807561236348425
Ni 2.676812269561701 1.619755691916175 4.669297108490571 -0.15789915844405064 -0.2986014933938406 0.43341651632491807
Ni 3.32790952977018 4.397508174396183 5.1193374665133105 0.5539480327537879 0.9614195470781701 -0.942806302852357
Ni 5.054660225560755 4.481049873421314 2.4006903756893596 0.8507646663330638 1.072509972698798 0.41954515765946454
Ni 7.207868229004313 6.090362852959347 2.550206770871923 0.4705026225439381 -0.8177522159627852 -0.11981032199212914
Ni 5.117469671624622 4.453632122112699 11.442467387269813 0.4600163783006336 0.7511323619507064 0.04649634378932637
Ni 5.608961921422063 7.76169238926938 12.464976517053813 -0.31104511847383204 1.08650628697789 0.07196569170502445
Ni 1.8040483916422347 6.596613655712262 0.5374960469159156 0.14104197767739582 -0.8400663060789533 -0.7215924435100605
Ni 2.7247820717197895 1.5165179020725656 0.43774516793541274 0.04225582334541755 0.16007482593913078 -0.5445740477380556
Ni 0.4729683737161443 9.021998928801112 4.769559761468553 0.6235706781479325 0.28717705360698287 -0.18851019846168823
Ni 8.562681766063502 2.3547009947398263 1.4128106857277472 1.0118255103345477 0.13294043161618396 0.17102875384747318
Ni 6.871701189462938 0.7362103216484057 4.875162704029386 -0.5954986025020648 0.43892870439239895 -2.2803353050038595
Ni 0.853352506437613 7.536448759639393 2.6118836466632005 0.023782447131578396 -0.5994987248003933 0.035194288512945836
Ni 7.610556878112398 3.684574559527493 3.8273874361515254 -0.029796257425826103 0.44768408198752574 -0.507312592283436
Ni 7.684646976374224 3.9128275644243478 12.644032543411301 0.28193945935712733 -0.5315611804181555 -0.9932426051260377
Ni 7.921234328941295 8.876233440575424 6.688125694141797 0.3104946452870007 -0.9933739884975795 1.1435873482615981
Ni 7.018223526558136 0.8336987631154044 0.37107038657368197 -0.7686644572971988 -1.027389940431708 0.03921086587150666
Ni 2.0132810636398175 6.480004869173948 9.310545758281268 -0.1641651939584205 -0.2957959056242454 -0.6480645495242388
Ni 0.19196840867768905 4.8861262005105965 1.2382624151966488 -0.3475221303539434 -0.19760727566695 1.409908384355178
Ni 6.345619144307703 1.817978014883483 6.9178996048621455 -1.1724065864861357 0.15217228326260243 0.15215814219521534
Ni 3.4105682384475475 4.029247138745283 0.20534841547798233 -0.15136907063501673 0.4553868499484221 1.154216031620038
Ni 5.924910284020771 5.577678834815585 4.710415626358462 0.05860623967898294 -0.18576400317511876 0.3041913287767923
Ni 5.236988722268319 2.732656904004945 9.532341220502182 -0.0560778168301744 0.0878643652131519 -1.4569901683343296
P 0.19657978071835577 5.693873156496785 12.39727368264433 0.5580936794910453 -0.8693627410502254 -0.22475555394696778
P 3.9759523641838452 6.050646307521171 12.729367253448727 0.5271769353075307 -0.38594058223114175 -0.28783757000911714
P 2.529190699584593 8.489114253925864 1.391354921287654 0.12187748893380301 0.44019188737553866 0.9546382624902785
P 6.360909293492955 7.637452043296826 5.742115964854233 -0.8177822978697723 0.05365866586572049 0.402038773344585
P 4.58792774592305 1.0539480912171746 12.474313689476134 0.5352417145935363 -0.06764649550438026 0.6859831789468831
P 4.0570072740662955 6.03096823691387 8.062390247147432 -0.31972799095981064 1.164065413610292 0.38918942818574265
P 4.645105875993529 1.0739234953089256 3.7075422196854912 -0.26583715447862605 -0.5501859946081944 0.2843120733543619
P 0.2560816170203468 5.551017932376482 3.570619249085264 -0.30381851881840577 -0.6269424228336428 -0.8317356747260709
Ni 1.422371308768684 1.1636551368739898 2.5206148810845805 0.3344853517746433 0.015916414119940332 0.3207566893346412
Ni 1.7173351354496271 6.529695601499617 4.809279910948965 0.5134300180350836 0.01032966406078221 0.020933664828873627
Ni 6.054007076906025 5.661067362045696 9.137582365323349 0.49073874708515486 -0.2050202803015695 0.9628179700875935
Ni 8.592613336831565 2.286043990148422 10.139862907048535 -0.1906426714236588 0.5025928182102635 0.2397810808215225
Ni 2.0103167389008973 5.2893824862708145 7.045591722286008 1.3958249096789186 0.11774006972666175 0.8830476947364857
Ni 0.5922333393822196 9.310862913998015 9.332647547292124 -0.9611858338008092 -0.6920661519161694 -0.6980107995353786
Ni 1.630910202635881 1.1470765425894516 11.377757709937136 -0.24518708232844225 -0.17732512837914624 0.7740249502781638
Ni 4.2421829641401185 6.91867988000619 1.5975638018494263 -0.20138036955613703 0.294889334649576 0.04909752885759931
Ni 5.4967140259890295 7.854063991772146 7.993302559508854 -0.4603166831498718 -0.29481734376106 -0.557897247209523
Ni 5.094827276278402 2.9806690704594043 4.676142085706855 0.5238455569414526 -0.48645451788750416 -0.11031806623097774
Ni 0.755398242511641 7.525132067019078 7.30565580597688 0.8424954843457362 0.6173123559430466 -1.0796383562134633
Ni 5.109775041451255 4.253355495071003 7.431277401136294 -0.17689909658532116 -0.3984549126480686 -1.364929762761959
Ni 8.083803664091256 7.527492714683507 8.91254326509024 -0.276750201846704 -1.4049106740302708 0.7394436127588684
Ni 4.525550784927474 0.18850672611023273 10.511174764452015 -0.10789120195704 -0.21561193977448673 -1.077576588588428
Ni 8.156307983769343 7.084655035068952 4.545733421447782 -0.5938063024013064 0.5263626669363516 0.9409664214301408
Ni 7.092935322105632 5.901682231811239 6.955958290871868 -0.4589822806091644 0.591180177632369 -0.5233922714541179
Ni 2.585368707934646 5.299041319462677 2.395124833466773 -1.032312831654622 -0.6673930746495216 1.0103712943865246
Ni 2.3917775792403018 5.046902524648262 11.515129383795715 -0.3000582804450252 1.8780877580825786 -1.0993522897026227
Ni 1.1318404540377371 3.44145488040809 3.8305517852345305 0.07206082252199202 0.46711982211463426 -0.5081785398281571
Ni 3.620242405619012 2.7757071885112086 2.5592664320420875 -0.5831094848090925 -0.9519727998429733 0.15887154965964898
Ni 1.0196646394494198 3.189793621189914 8.065845622640976 -0.6692959480991892 1.2617483075757623 0.6467658853174733
Ni 3.736887232579683 2.3896782246379664 6.791381504196584 -0.2259788848311076 -0.1463847300465479 0.8043020039951502
Ni 3.823249094654303 6.755065372607856 6.0200227606438395 0.8025271714829146 0.5108943960974234 -0.10695917706107386
Ni 0.905731854271165 7.38390767201046 11.271878157134708 -0.4355163362767403 -0.07697959997984807 0.2563929783465907
P -0.012774527704684034 5.701261443080112 7.953833791974386 0.3015664895594355 -1.4987453978942447 1.370684662967865
P 8.331806820440125 1.660742662242461 7.765058564717589 0.41695991343079164 -0.2875496064550532 2.3422035032635664
P 1.6419475819829243 3.379330202369018 10.349908290570285 0.5530820852090668 -0.8207053850538382 -1.012097790159328
P 4.036085808887655 6.197105573877243 3.806182152646818 -0.3563752098691991 -0.4802023663302053 -0.3595268681243034
P 6.929960532204148 3.8460807022179013 10.392621597127503 0.07416732734203355 0.4638012992643625 -0.0713051753028901
P 6.3294369946691 7.604655258951326 10.270151736903271 -0.7452478781454713 1.122766554861505 -0.6170683582530405
P 2.2471834047412402 8.389894971175137 5.921857660247075 0.46843005628562556 0.70370425037573 -1.2742356414094957
P 7.051858250723453 3.846089712323491 1.6084822478026892 -1.407054459846151 1.7481789142038666 -0.41082371862606665
Ni 5.45952932022148 2.946592851120206 0.18766157820594484 0.07973505123779817 -0.24696602860573594 0.9466477880856343
Ni 1.3507589895439494 1.058453144011886 7.121509970971927 0.10059081164088482 0.08264605423700605 -1.3831352300263922
Ni 6.804251539020516 0.5139129965461596 9.185768410015584 -0.07830783187296837 1.1895553303512805 0.17360422788413327
Ni 2.615543551553624 1.6692211716021081 9.286333802541371 1.1925820329927461 0.25608496018786864 -1.1543695264787668
Ni 6.134449299608395 1.9925758409953234 2.4555619187289457 1.4749871191323825 0.4579643808676113 0.6693332290950279
Ni 4.26309541921317 6.621751850306753 10.526761346111156 -0.3647878594129266 0.5227970610722802 -0.29268024281339916
Ni 8.101661693369492 7.218887588140177 0.3888545329860852 -0.07771802080776938 0.24563394005787376 0.47370775974479706
Ni 7.384556399612899 3.704640064675138 8.02416036913151 1.4770370596828757 0.3548641725413114 1.0764177923936364
Ni 3.0530562587648293 8.022075430698118 12.364147128434256 0.7256650709175373 1.458648786983675 -0.4949126759571863
Ni -0.0805296207265866 4.8731516484618265 10.183907907211871 0.3463746470130616 -0.025692262559781562 -0.40353335561224046
Ni 8.700968866649967 2.336428500604476 5.6767206184862005 0.05891785738213078 0.6028085058999166 0.4675178288840013
Ni 3.6731767759568728 2.653476096085095 11.285289699304565 -0.9745709968584635 -0.32121743102114353 0.6177327313099168
Ni 1.1639434602528513 3.3485697018867273 12.502890140363547 -1.3133341500728544 -0.6324648953137688 0.7728710391793786
Ni 2.9763892703044283 8.574998580404245 7.940369090181553 1.4128235011194443 -0.7186737272013688 0.7985111083449861
Ni 5.708929042936711 7.885347078378623 3.596202542895872 -0.869773860445715 0.2767836261878007 0.10101041567680669
Ni 3.0551375931559863 8.358197419711546 3.6765123170460767 0.6201595955838545 -0.2879915790884782 -0.25749238205835656
Ni 3.382078284573792 4.372604242547018 9.15401409488678 -0.37876437619767667 -1.1688435517252258 1.0602581519146386
Ni 7.259991689839125 6.19183466210743 11.50504076856724 0.20533986842451735 -1.0691531404114232 -0.5081086058221701
Ni 0.717183681675221 -0.08579242340136863 0.3103629981438261 -0.4523449777983048 -0.03987626736964745 0.03996085666365376
Ni 4.7142133858644035 0.4460092367820316 1.4405167604152231 -0.7917197964547655 -0.8445544237572938 0.02391280206185559
Ni 6.075622320215052 5.602204342229995 0.38509101188138317 -0.5641843657698155 -0.31500127490810265 0.2309539694481958
Ni 8.020543712747916 -0.2557464410924203 11.383468314859712 -0.571105518369681 0.3096680356206473 -0.301945470165409
Ni 0.09473225016719419 4.929978384414318 5.851279701144007 -1.1771212183529856 -1.0734851921278739 -1.209821022578852
Ni 7.924027461674016 8.920734352081586 2.566770047976959 -0.28521298790207655 -0.27253693509630483 -0.2653800123365494
P 8.57972888583869 1.6764562863904147 3.5885664784088362 -0.3935536186917093 -0.12662014582511097 0.22942107774343715
P 1.761754956005483 3.31120479400739 1.5731932682511547 0.28848780199860635 -0.6197890996183132 -0.32203221361295503
P 4.697022104399785 1.00576204652494 8.283855939503775 0.1150694648730341 -0.024116433432229436 -0.6465763950144865
P 8.7513713973172 1.5137517996566128 12.447965437700983 -0.6916558038516282 1.1285019146833855 -0.5444791740314042
P 6.251274328680854 7.849549928871845 1.4476644771793123 1.2841050780044079 -0.22877855906343178 -0.3813035976797627
P 1.8387553183726926 3.236799342049934 6.013508454302686 -1.0096372444339774 -0.3649441824851328 0.4185311145726534
P 6.717844626417949 3.761241547987894 5.865548104355417 0.35594712119284505 1.0090410056108752 0.3492676522901404
P 2.394949136407779 8.469454203529741 10.118248564750068 0.9625947983331936 -0.14617132848416114 0.5554264170715274
