# total energy = -381177.8763755577 ev
CRYSTAL
PRIMVEC
9.18874158180047 0.00000000000000 0.00000000000000
0.00000000000000 9.18874158180047 0.00000000000000
0.00000000000000 0.00000000000000 13.44865211720148
PRIMCOORD
 96 1
Ni 1.2677063473141417 0.44097689463082834 6.029985741452036 0.46666782217888014 0.66018807226065 -0.5137336653184313
Ni 7.570209028356782 6.375461288768439 6.506202378713747 0.3549922134787435 1.1964661985385008 1.3467705753544288
Ni 3.7929011613642025 0.48246222487773427 11.80302119033466 0.864319265089047 -0.965494745588808 -0.6940932096485273
Ni 8.036767379399276 5.864558071115782 4.272219917765488 0.2493232159840029 -1.3938711283866576 0.04833082589490386
Ni 6.323158971995738 7.887771935536075 8.662559270114553 -1.0659474889899319 -1.1607615460480396 -1.0890730192638016
Ni 0.7084326753882632 2.3896149328165404 9.753917127787389 0.07791625286150451 0.0447950448275035 -0.6719012469325203
Ni 7.171068473899198 2.6773236187740297 12.330073621221334 0.9908733335629127 0.11599686178330991 -0.6073663004739283
Ni 6.6917653383585085 0.5570941024356316 10.389338819623148 0.5486222496655003 -0.33017978242075396 0.5043110864529508
Ni 0.5280668679512744 5.44896048058302 7.546630717598042 -1.373311301957435 -0.4112970587180594 -0.495413783963321
Ni 3.7816265755103546 9.069949476715237 3.3170291019097604 0.3116439284000955 0.1648971870284386 -0.3328413884133171
Ni 2.376465843691148 5.2132416941863085 12.232773118315887 -2.103636240244487 0.025163900860137305 0.7226046868246587
Ni 0.8139635340796041 2.984181642074159 7.01263803023589 -0.7076118129602522 0.6795140262827717 -1.5511110559801546
Ni 5.9067343947255315 1.9620903557815015 2.3180906876431346 0.6740203501580521 0.6482252434718191 -0.2519323714720758
Ni 3.59313792056334 1.6704305109673256 1.4745504323358483 -2.019471435370109 -0.35951915481481955 1.8781378945942238
Ni 7.672838082473841 1.9413329886716049 5.770252179074042 0.6365439504791489 1.189694427032306 0.9808534874330656
Ni 7.642184440739173 7.238219796979819 13.393660345376578 1.6812651831004526 0.5143502158565078 -1.271526984229081
Ni 2.056467920007153 7.893303557935436 11.311082616319945 0.3200774038794294 -0.4257931954517054 0.5189211230566417
Ni 7.546226412970846 0.7365097939987102 0.3714410931239043 1.236466393080522 0.8842936513284448 0.5380858689105507
Ni 0.26291746131716137 6.290033558790259 11.71867129973762 -1.119253142391608 0.6169102354086214 -1.219540820969777
Ni 7.0636153304803715 7.129562928420932 10.7756381077965 -0.19030097181352387 -0.27556543750998347 1.1191009330844597
Ni 3.2545144178037537 6.93728851196472 13.58919033295587 -0.5611568917974012 -0.11268630935283819 -1.4739879884439067
Ni 0.5439238792047265 7.241353157840588 5.478012524669501 -0.4566523469244071 0.23308387130700506 1.2379473485014227
Ni 8.97080295563698 8.373847173582297 9.960824615125633 0.29310216084216617 -0.3065827118271043 -0.4913349859082571
Ni 2.3224452322528646 3.984945859282235 8.548730058950017 0.18187572386430612 0.4014623320158247 -0.3694610965188799
P 6.7401808174652125 2.6773695624816654 9.89854424392857 1.8947117397925048 1.0685856979437274 -1.264580377707919
Ni 5.437208080169759 9.006639047592978 6.542002634577788 -1.0991877391003004 -0.06722252059308421 -0.3531294492383918
P 3.283596784737274 9.067973897286894 7.215739540833577 -0.041319170463761094 -1.3668274940053042 -1.0274531895694758
Ni 7.350644049564849 6.603103171362762 2.136009342163022 0.38335945176752684 -1.0354068971989137 -0.021670028774265906
P 2.2242727177764885 1.6344198329223125 3.6299930439547 1.3293909464254008 -0.4981296402325873 -0.059488128063304
P 4.972855027093788 8.14045313879196 10.283834608282238 -0.05765133196488136 0.8904532431719374 0.7154529062712259
P 6.668058385218387 5.477675297855454 12.353111633978276 1.1516176747652425 -0.18884032810759735 -0.10906079678510894
Ni 9.043972904417904 8.414985169399474 1.860042949003114 -1.7613612172220956 -0.28315430560083493 -1.2921958254323422
Ni 3.072062766040095 2.0366386157915017 10.143564793373244 -1.0627757761301697 0.3620403785747765 0.9357774210300336
Ni 6.864936361179716 0.8890658752036928 7.982393920286349 1.4655539987439405 0.8782057932631522 0.033397858734155385
Ni 6.083415516810121 8.852056848881253 12.498222077923787 -1.4884918384870365 -0.5725633338621301 0.0684435374843789
Ni 6.169762120941019 4.895384747278145 5.611933838057365 -1.1417914327034402 -1.7933465118794407 -0.8466133631688517
Ni 3.8151379158599745 5.557957332578413 4.804369343577289 0.2105293830452568 -0.21729061302849031 -0.19792712090021397
Ni 4.581230863205437 4.459535170419483 12.576386107724732 1.3396388494056544 0.33645533101682057 0.44777689881164817
Ni 1.0054596641284643 6.486351021518431 3.1773648250674094 -0.20279730450832173 0.6064155065248846 -0.7590865838007765
Ni 2.426801769777032 4.057821768334288 3.203576629147839 1.5229366504284674 -0.6943701174589977 0.012971472559003468
Ni 1.7578338203738484 6.172160382479612 9.483047729552608 0.7509202459399004 0.3475216161333112 1.0891648076466596
Ni 5.451845745422554 2.402010545136704 6.649591771371217 -0.41335085592329457 0.38721224985471375 -0.2991591656695235
Ni 2.1023381177108287 3.64465919430623 0.7101335114449441 0.013485436080944517 0.32307710993770167 0.34940623475053373
Ni 8.958830025427067 4.374906860954168 12.937267499085602 -0.43468535573501266 -0.6379045782721013 0.04648297405288769
Ni 7.59428353115799 3.385472362049103 3.6867059566604468 -0.8661144093162567 0.1299620657141504 -0.26296471802683746
Ni 4.207396102913702 6.335315677036196 8.945693800539813 0.29679272231987597 -0.19219536062275933 -0.00185376537928713
Ni 4.035787166152114 6.512116252760639 11.223398131422693 -0.022714925099012493 0.8105127607915524 1.3531420260984115
Ni 1.933669578237938 0.7198634698480735 13.155942088823553 -0.05202370136545879 0.1272624073948002 0.4980242250029746
Ni 5.161472324422184 2.3947054956225973 11.086772571403378 -1.2383211869010737 -0.17242743396721272 1.3291878292756594
Ni 0.1564493509900483 0.9039920669404419 7.938335742411834 -1.2000906826649655 -1.0566997451394189 0.7983653267957412
Ni 5.815958817178533 5.135376298484996 3.1456397760706722 0.12514099017642322 -0.44090459717184716 0.6320959420101243
Ni 2.4690424145774723 1.6531556768962297 7.940137654625314 0.28326332037487345 0.9664547955092324 -1.0365009015940405
Ni 3.788407866757412 1.1663912832354704 5.283208447670856 -0.43862608555031557 -0.22888037474861872 0.13880228971359967
Ni 4.423331528802399 6.884526758115661 2.4630127623873372 -0.9573692882681964 -0.1448667507401247 0.7220195037451501
Ni 0.3613821777741018 4.4156773071102595 2.215880640139716 -1.9433708955611046 -0.9744470696860896 -0.3326189879898659
Ni 8.119456864402357 2.9550900863991116 8.263698972273549 -1.7226674001963234 0.9833299739980162 -0.028896885540008303
P 7.9608408081601985 7.935222596782426 3.675893564505415 0.19882495012413498 1.1027636293770169 0.8497837904770332
Ni 0.1675199467819931 0.9152684905425955 11.556184945564215 -1.1483716570241191 -0.8327731148516496 0.3607301444037852
P 8.241226067120527 7.873566141135058 7.924443284096892 2.158709269959231 0.8133844259123928 -0.6635618738288894
Ni 6.207656490999103 0.7929957447887351 4.27874208650148 -1.1739304793298297 -0.23064749395137052 0.33771851399996033
P 3.370742809381036 2.6388411692582054 12.69489514494906 -0.7472273704693454 -0.020585023240203257 -0.48370318039461213
P 4.4764240773464365 4.42029924409843 7.10871551164407 -0.9428520684886278 0.6671526765039413 -0.7876985911105143
P 8.176693535375152 4.171367047385635 6.083444001908855 1.044427355529969 -0.28741822308351145 0.11100403655440884
Ni 2.856448946104849 7.808059602787801 5.338052370349974 1.195224869932232 0.34251439272670686 0.10670360940684204
Ni 5.918064113028542 7.4880524903622785 4.5945572950423035 -0.2699349786970835 -0.3707823864334647 -0.7342823802729032
Ni 0.9711213370413979 1.3237392931468768 1.7819735632398992 -0.2693672791190716 1.2749812613262688 0.7092560334318946
Ni 5.464553774954643 6.556617327976765 0.37490984305041414 0.5145654171911073 -0.5563658981666612 -0.15602302446726035
Ni 4.935190375573883 6.692022623121269 6.704488988751192 0.6389430468389448 -0.16449635204559412 -0.0525183816136902
Ni 1.345204193354366 7.857825826899 7.973880551261418 -1.157345064167323 0.0037838925224644507 -2.0265147153701357
Ni 1.360393183098792 5.1776996419591805 4.9576173370192675 -0.5154452486928994 -1.328465606397654 1.7162733237445216
Ni 5.197244095187489 2.008070818383503 0.0592471676189422 2.3344801664773795 -0.204781424817886 -1.0162454937791143
Ni 2.6804569796347977 6.163624041600864 7.124194865620755 0.388382358903415 -1.2165493424416212 -0.9981050754246615
Ni 2.153969656352045 0.004509834341539259 9.516131793421213 0.442481968961296 0.6037022213587797 0.7690354674833723
Ni 8.539924487944523 0.9654518835191286 3.750384854317947 -1.4848948651643976 -0.15286930932962706 -0.9611824913666995
Ni 2.8459829695053926 3.293015244802632 5.811901987794284 0.6352995365490866 0.9215358235093548 0.29335464317260446
Ni 1.3403984815356516 2.883344392554901 11.955313554657813 0.3750383334963412 0.5341955327172091 -0.2084550170147313
Ni 0.5898602358473978 2.7512194781356 4.377697481755972 0.9509600423077428 1.0707868193601042 0.893619556715061
Ni 1.1438604890108284 8.763275228245652 3.8353540660939203 1.4099852603397007 0.5871142350931113 -0.18062668194855344
Ni 4.777640213348879 3.219349103979241 4.2635586100019705 0.3460329474029266 -0.30919340997707395 -0.6855211517088001
Ni 6.424106486413322 5.078332591084271 8.25817194424495 -0.8574654753920071 -0.1400724146752749 -2.108093761795208
Ni 8.03450694898359 5.012936317635342 9.793146621989372 1.2160603186203445 0.007559300404496658 0.9516588681469803
Ni 6.091731327892218 8.493126227346602 1.770582280368656 -0.669411647741447 1.4982039235684779 -0.04455284690971037
Ni 0.7358344214964625 6.182277186901036 0.5933299046480605 0.5012764133916852 1.082045680103375 0.6534499822058681
Ni 4.6361519713133825 0.6630090505228085 8.828152337798297 -0.4585678187795651 -0.3345095201443594 0.26319791708356605
Ni 3.5173491804471704 4.277497012024548 10.5672916635351 -1.2007468281917255 0.3579109297874353 -0.6188102806448118
Ni 7.748645200073064 8.750576387455093 5.813892269209071 0.8627480639471851 -0.03807058161947637 0.2601979539149777
Ni 4.565729456249086 4.280134180842848 1.3676467756603472 -0.962731066800742 -0.34055829744160054 1.3748336521392324
Ni 6.969311276186938 4.472463729748223 0.888749782495158 0.15016965101027685 -0.7953008289378045 0.4130613497073338
P 4.136872511692606 8.909265953629466 0.4771786984996066 0.770698199897776 0.21199491184718977 0.7039716451045037
Ni 2.079200866545393 8.22249022314661 1.663410312440561 1.4588261931018038 0.3646299936788236 -0.020830049371473803
P 8.210425405521423 2.4538442360915185 1.6297611409680328 -0.5663335509023343 0.7329104396260409 0.43781490250292987
Ni 4.682270265038292 3.2896062216960487 8.939439943056415 1.2916402100391884 -0.46019815529413644 -1.5038881184374486
P 0.5727030176678499 8.241336332018854 12.785741475805814 -1.395165678828365 -0.1850896028159135 1.1987192562387354
P 2.5730497799236067 5.869327027968387 1.850198131330895 0.1234404625455487 -1.5057912489974326 0.3239870233464807
P 0.8508563313112262 4.512692040154211 10.409067966556153 0.39257248572536263 -1.08382719748383 0.6411727075004118
Ni 5.735493007625031 5.057749810063391 10.438830300362685 0.5060041578846575 -0.9041255984527073 0.742010087934464
