# total energy = -340874.4321180472 ev
CRYSTAL
PRIMVEC
9.15492346865217 0.00000000000000 0.00000000000000

0.00000000000000 9.15492346865217 0.00000000000000

0.00000000000000 0.00000000000000 13.39915589021532

PRIMCOORD
 96 1
Ni 8.040476264077803 6.923392510892245 5.635819365718089 -0.6248168918502078 0.22513607721483805 1.0697398661528286
Ni 8.628735022024788 5.651325059479525 12.33488787306435 0.6802807292454671 0.01966765363225645 -0.09888874134811355
Ni 5.855891822837427 3.78652209257755 7.7811310165600425 0.5912670809192204 1.8649833594901366 -0.23027519821361633
Ni 0.15461383932182932 4.140808473208003 10.527113670493785 0.4093512478455983 0.9957653715478915 0.9469097834977693
Ni 6.8987566120246635 7.620961054227163 0.2792608678806502 -0.4741129656030157 -0.9699422398372005 1.1762051342966195
Ni 5.966574846735259 4.541180738230655 4.1650342315072955 0.1808285135467144 -1.0389642755328687 0.3123352980401653
Ni 2.1245372986642064 8.064709346315814 8.436618038997628 1.3066963330413623 0.6337995549647923 0.3773088746980728
Ni 4.759882703317115 0.8334660572591691 5.682796024157042 -0.561532272858949 -0.7813379389998092 -0.8671179108801067
Ni 2.8796994651042747 7.0833198677550415 2.3913602876145346 -0.6484764402506767 0.27990031743991145 -2.5304061977871646
Ni 2.081646482538372 7.185552897355297 11.676279021747597 0.09302534058880108 -0.5764158748390008 1.0201468857160496
Ni 4.246987274793367 0.0192354095543204 8.28251412890914 0.42239239730027256 -0.24727867475014836 0.7498591516652376
Ni 8.436829517728151 2.1461795375802093 3.356917241648515 -0.13406940301430456 0.9314947344942797 0.3436891297610984
Ni 7.260742283233949 4.305716108400032 2.2072291442686036 -0.19419465044097522 -0.14992848153374824 0.4395959056627526
Ni 4.912504431307251 3.213350648392651 5.844095704037398 -0.7267169092208194 -0.8998483112335922 -1.3694659600694157
Ni 0.9409888015995539 7.693925793719779 0.3336575917347556 -0.5328888980906435 -1.5559897242286944 1.4889412673196292
Ni 8.736012414418072 8.000075587116585 11.544993758231925 -2.7879949962140693 -2.392075962613977 1.949541800258507
Ni 7.975714335950983 3.787913640934247 8.687690897731757 0.16082018874558754 1.5728335352589105 -0.5976650140257642
Ni 8.397390107723862 1.7864093578335607 11.600828720552064 0.8076063857780348 -1.4176587177245585 0.4802537883934309
Ni 5.6096243833956025 2.146536579592783 12.204205919000694 -0.17334968867116596 -1.1353821867429865 -0.16656943252453896
Ni 5.447225197214988 3.333856905097957 0.863291882201828 0.6239344892452545 -2.7809949107471525 -0.17008233077380386
Ni 1.0826795510508969 4.032963475563962 0.3460561044944606 -1.234808545762125 -0.22285036650445492 -1.4627502107465582
Ni 0.8587821669353208 8.19578953954734 6.203500602340414 0.40655902981244174 2.550333018618079 -1.3571832860473205
Ni 0.22357513081191988 6.992045281463778 7.961710965119376 -3.2389726613512027 -0.8725509089702199 1.3259261278052519
Ni 1.6236805944105703 3.7653467547549124 4.556999530372348 -0.049964761953901045 0.3720365705555399 -1.5181137751185274
P 3.962955776329329 2.6583517271554107 7.720111621118866 0.4611414930440123 -0.015934154731753206 0.8889661171034496
P 3.8891579388073754 4.0607669779277105 3.562728159096386 -0.5570251290172149 0.7173503804042549 0.8922949243663665
P 7.723029295206231 5.180194391503496 6.947435170723551 0.6632397146027803 -0.7245720949636747 -0.01051529770902705
P 8.384362651726622 6.268916191997946 10.052288075433788 -0.04917080529769596 -0.060236319083238184 0.21308274559472978
P 6.908744633453326 0.05399482271687511 12.076524948827338 -0.08819372352811262 -0.2914458561856658 -0.40938955728270143
P 2.591053885246977 7.20068598573438 4.4604855814196505 0.4260988996175823 0.2631822333542822 1.5743404588217402
P 6.701129280603448 2.139716161660286 4.847841376353144 -0.48815144597395294 0.1506072527683277 -0.26841031452244096
P 6.184754981187957 8.120664238132484 5.014044433206178 -0.3528553696413988 -0.4326079043806937 -2.6710614815491027
Ni 8.056854422039194 2.1907823243817175 6.431956222816513 0.7507220138861651 -0.3529217041029599 0.29839014871398284
Ni 1.86270648944353 3.4659624497502075 8.86569922830822 0.648125227558845 -0.4765187468310309 -0.4108656276075956
Ni 7.124462093511606 3.6309433243294316 11.479833590937233 -0.3175739207312853 2.8516100019615536 -0.7837069534526181
Ni 7.169229668934302 8.392235885850043 9.657387708126913 0.3930057166080393 -0.8456335157540856 -1.0045449175127343
Ni 5.85004182678526 2.601160920679831 9.700090848323061 -1.2137866920948193 0.6927120130302845 1.7550170201716224
Ni 3.3492737961024193 3.4609913263443746 13.223693611287755 0.22059319503916205 -0.8026770667972176 1.2729657735581366
Ni 4.013783911042378 4.563967342571574 9.202781676886664 -0.04023673603285973 0.20272299962696053 -0.45899076524959664
Ni 3.5026187630411023 0.8859640500002548 12.291005578734367 -0.05786524774790035 0.14509686447305978 -0.3936202102635866
Ni 0.5107064863389692 3.899200889776434 6.720091873440468 -0.5567384510147315 -0.9070219461638961 0.8276316798600263
Ni 4.10548877873341 8.90823483340616 3.2914760182054645 0.26325293869121763 -0.10529001688876705 0.24329757861521326
Ni 9.043855868643751 5.922585439801505 1.4451925458479828 -0.8334583138441324 0.7230114353447742 -0.1708886287251831
Ni 2.269240017913927 4.81670731285672 2.1190095559156945 1.2948630878518603 -0.09806727388808273 1.3948466049260495
Ni 3.495926514036196 5.1074310603256645 5.682046235930637 -0.8885879078284245 0.32120971771165974 0.15591580946543468
Ni 0.7238578213684184 6.433942841194167 3.7595214769959227 -0.5878899369168714 0.21535277257582913 -0.8841537833164708
Ni 8.235741625261992 0.10942788389978408 4.630975888900588 -0.2659860213516645 -0.3686810238197457 0.2496975686042861
Ni 5.080332487063665 5.3489562494466405 1.4263672768619524 -0.7587500263969642 3.1760996759760656 1.2053107934133243
Ni 2.503606056936631 0.13263103725537165 1.081038073285398 0.26726540228472034 0.8875355553045101 0.46183749066977237
Ni 4.616919419513266 6.3552379647301755 3.843440997828169 0.6055390174572023 1.0561415586431036 0.0635548419335099
Ni 6.5738026059656445 0.12340378996119264 2.7454873725778395 0.46370951088150464 -1.2395835985532653 0.20272428517854119
Ni 1.3299540320666479 9.09942625367765 3.4303040231098394 -0.16481619727885807 -1.1635887310841897 -0.38462957672920206
Ni 6.3772097808885535 6.703729278848856 11.62797489941574 0.14394603869806824 0.11159101940613039 -0.13984255805265594
Ni 5.699928547806539 5.873551670074724 6.434810727932423 0.59824839733306 -0.19559538744324378 -0.5082381894214989
Ni 2.5739250235668414 4.907002322344257 11.143956845770482 -0.1704335434656355 -1.320701389071203 1.0158012071528444
Ni 4.241512630600571 6.870367194563358 10.434995000265104 -0.5084086535610921 0.19895864748852188 -0.9390571202225698
P 2.449115952863852 5.900677708106922 0.21746971239691046 -0.0018028575366936693 0.2923313441144127 -0.7891070414222668
P 2.147873198409084 5.173236649720009 7.632333300073805 0.6611296102383131 0.8173467529942505 0.545282643769306
P 6.920014344157894 5.128707102305695 0.10515070368761974 -0.8305434541901825 0.243454930128684 -0.2571666232878216
P 4.0872887910155535 3.2835414460952705 11.111290248097013 0.18623734326711153 0.5750683596721708 0.6273018630555905
P 3.663049640690862 2.0746795858314857 1.5618326784017549 -0.4895611818372859 -0.22309899218015125 0.4276716434213409
P 2.664238342901176 0.15418630439908085 6.749864599827411 0.6391348511347767 0.7371638155857562 -0.2982608222249702
P 0.16958763203376423 4.216931661273385 2.6624796821161656 1.3399561235357569 -0.9144007551264702 1.0134612461657577
P 0.8285883140720092 1.745065723762212 0.21228436378353316 -0.4399841422401067 0.536838626767011 -0.4504192215305017
Ni 2.758396730063227 1.5447468448615957 4.215053070991844 1.8660529384052313 0.7821709764240659 -1.0599560472931875
Ni 4.380127325789741 5.33499499126267 12.479639113408085 1.5592511685887855 0.5256080481585141 -0.38469411141855037
Ni 4.973293122678764 0.603727832014824 0.7381834455036812 1.6408109317401482 -0.18635432846095004 0.6153243789787403
Ni 0.9111107935935189 1.1917696182772457 7.748919418579519 -1.5060306187017483 -0.5960714442863992 0.9056142671830919
Ni 1.0657795624557442 5.955945980668643 6.013232913839915 1.1405333919266227 0.03223623432588642 -1.2018122933417625
Ni 6.121997981285589 1.4572990165512494 7.570348975706338 -0.7080216468041612 -0.06770485954614146 -0.21175862746666754
Ni 5.0330564626295535 2.1192365980159975 3.4313495153620424 -0.17338028479878526 0.31508689264337353 -0.8652662023833486
Ni 8.208469108455406 0.35038821424702093 0.4554775799478652 0.6898436903435539 1.1235839085564778 0.6520482167623352
Ni 0.5826779166427577 9.04944037191734 10.050210823314481 1.1855860612908873 1.664847918084694 -3.01725846533372
Ni 1.589212307812114 6.1698873855874545 9.634126878753909 -0.8067237260627654 -0.8881973572582251 -0.7838151968957081
Ni 1.2246632580510184 0.14055004599578724 12.28624868053608 1.2762336456761312 2.6754688665881794 -0.2794246633550736
Ni 3.6112053094804883 1.7812093613427447 9.66785270106468 -1.149674949216575 -0.45583833566354404 0.9164483816841186
Ni 1.516476441404482 2.400878661472812 2.113891038243132 0.4796104983824773 -0.1295162364259834 0.9451439498465981
Ni 8.407396438999324 4.62892152408978 4.707927597533609 -0.504077630285906 -0.6124077195525776 0.26387514565624876
Ni 7.828228519987866 3.0532218832150684 0.2801324165882659 1.8343880032017825 0.3749807407855284 -1.77420644861588
Ni 7.3332584314799965 6.4465033960980405 3.498492639065027 -0.8471905758285604 1.3859266767286003 -1.063782620128129
Ni 2.3233089955103368 2.3265132187001 6.3537594446011845 1.369764208036125 0.8211419583706245 0.46192902194231417
Ni 1.8306642575458947 2.6661883415852317 11.765946003489937 -1.4961899784622426 -0.9658289889997753 -1.658888872287782
Ni 4.300259774054036 7.5931300870932175 13.156764712792313 -0.8855257239633331 0.2667632658373212 -0.7119253527339416
Ni 6.029734663267198 8.32017748377396 7.028165116243473 2.416413253807761 -0.11424414075826131 1.7979693553634326
Ni 5.248389415905062 0.03480244130253154 10.762603934109926 -0.7715389506315163 0.17475428232817644 -0.16625910037297176
Ni 3.975736049394786 7.580111786019378 6.364411197976298 -1.8638348477079898 -0.2845087627462003 -1.8689392588140907
Ni 7.737329285555975 1.6380904438411068 9.205849491717776 1.2544620583269943 -2.519604993406602 -0.051612839080285314
Ni 6.189698639823592 5.505578678962281 9.646815602585372 0.5933180499109781 -0.02370300004389466 -0.8900637210430026
P 0.5329749220154858 2.138608415928968 9.772111715213205 0.5380876686827636 -0.5932121204607332 1.0309496327585084
P 8.85634472757879 8.109440302044913 2.328156527450279 -0.8149188602790481 -0.6287236831037817 -0.44253904745147654
P 8.005385442688192 0.05274517567286734 7.592069031471236 0.5405227604868175 -0.32650233356916675 0.17409530858793887
P 5.062745879213564 7.603548389921649 1.7001791343353245 0.25845757418510323 0.6010362444908423 1.5419898104051766
P 6.9341312360396525 1.91094378083457 1.678713585440929 -1.1325586012512625 -0.6917061974735894 0.7989831628853982
P 0.8204404322466105 1.479472241024413 4.992940503786055 -1.3512687203350984 0.36319326123229706 -0.044101618304904694
P 4.853226302296625 6.907700972185803 8.229051207241765 0.23486950245251806 -0.98073033159164 1.8285852804770764
P 2.8475839938194447 8.83915178143486 10.557877875084875 0.4674784910056336 0.1765147166627089 -0.8651101364214584
