# total energy = -340876.53170393565 ev
CRYSTAL
PRIMVEC
9.23656524770415 0.00000000000000 0.00000000000000
0.00000000000000 9.23656524770415 0.00000000000000
0.00000000000000 0.00000000000000 13.51864688633462
PRIMCOORD
 96 1
Ni 5.0090078831550775 5.867675947904292 5.364064227647346 1.5744150208134176 -0.5352080331421234 0.36976551513317607
Ni 5.692910894194041 9.055159243981974 6.333499955501548 0.4071982060583374 -0.2878964482715106 -0.2445800448720626
Ni 1.311278241902102 8.961583600034055 10.588548250117734 -0.9722163805833579 0.13152812464968963 0.8345019246172982
Ni 5.29629277642446 8.197941319998707 9.030496690738923 0.25035988477863336 0.12439974113502446 -0.9057433365617884
Ni 8.659695696885919 2.9343367484831093 6.910421371588149 -0.7724882019186632 -0.587561349932859 0.03294842990156261
Ni 5.363913671631518 7.117272406143952 11.39388069168929 0.05702321146257921 -1.029999353030097 0.23290672229919243
Ni 0.0951828063254664 7.122500302153678 5.507578286023141 1.8623320379102182 0.44306226694479817 -0.14823798120520276
Ni 7.41060724974261 7.349729047268942 6.647740841199871 -1.2830925775794935 0.7612722785981858 -0.1433269170568306
Ni 7.894741824565446 4.692831013351387 12.88059363829229 -0.20536866477992372 -0.790165050373136 -0.9455974924442488
Ni 5.30355271681959 3.6793673492612213 4.228294582969247 0.4843207593739529 -0.06349416389890356 -0.024856654032363645
Ni 0.7211291405230504 6.76711421227705 9.854242225411868 -0.3190052538611732 -1.1506136589807603 -0.17008593031822966
Ni 2.188410200862341 3.8848162731910953 12.93322174056121 0.032907806471614294 0.7682865051324897 0.4238980353115216
Ni 8.21281219027372 3.8777595372345055 9.245105516564282 1.4357680257307597 0.12297020777734952 -0.09238667856353766
Ni 5.772530087840379 3.205540781411624 12.923082762734579 1.1637021167336021 0.025206838282930782 -0.10834885831974889
Ni 1.4206761223600182 2.1065557583920564 0.9327988912418813 -0.6817927950146193 1.3372220124340453 2.0548991800500995
Ni 1.3526118720143254 4.2144692918961795 7.307112458224296 0.49922827261340474 0.781605590838899 -0.4769398935288496
Ni 7.680582819474493 7.192033166396095 12.437898914083641 0.5376222990105709 0.6391716179099831 -1.441035444777286
Ni 6.79172965903662 4.738866055246207 1.9959063233240386 0.5041123401785834 0.3481718481228004 -0.7919931047208102
Ni 8.620329455201382 7.841640810148647 3.0368423038483456 -0.5433113789755482 0.4476632560519193 -0.13449954857318774
Ni 0.643687005338712 0.9715850766200373 12.49282507382115 0.11484526467736995 -1.1349499843015745 -0.49401021874757495
Ni 7.359353548403453 1.8442003551054438 5.0566768734670715 -0.8730083082226127 0.19987653131710093 0.14981715276686458
Ni 8.54510686667983 8.74182723631785 8.716053524258598 -0.8365336103353463 0.20611068515227082 0.18004072753809638
Ni 0.8226482307048264 0.8194810124332106 6.980475178118461 -0.4195747253458194 -0.5334985066501844 1.112763678012522
Ni 4.553617499820341 -0.11695800922816285 2.110219903881558 -0.09928237724210644 0.9553365741088837 1.926497516844534
P 1.4019813140142885 8.31883872436494 8.361634502778116 1.4587601157505588 0.12790621162638616 0.7806902781134812
P 5.9340037239570025 0.8690462696194033 0.2659225648395383 1.603546390961735 2.382337138059658 1.7795921384078257
P 6.176953103362993 2.1695398977742357 10.759423786143012 1.55505692800178 0.6180147813267098 0.6145173096964126
P 7.758862711139542 0.5975669870423201 6.828985345529951 0.7314716502969855 -0.5271743642043695 -0.09971869344857666
P 3.0239037230525465 3.258687978655363 5.662663913517281 0.06163757030613901 1.0085692081807793 -0.38670291431846304
P 8.2697648524574 5.386783407532717 10.72144949486248 0.11076878061515116 0.9742143848499931 0.8768613634201156
P 0.7051572716537641 7.948507871690194 12.95947575402065 -0.043292235029731896 1.6388062426052938 0.6177458439360394
P 7.016556897150951 4.109865188874743 5.62381122486833 0.21350697761634196 -0.3571000038503656 -1.4963463015344487
Ni 3.2211782866138576 7.621570403209243 10.045314435315 -0.746292774470218 -0.22334761785584759 -0.03046114470333464
Ni 3.3846008380273926 8.547933255688621 7.072942434219795 -0.11827100252946728 -0.3895033598817356 1.4426840361243025
Ni 4.7186472136114235 8.556495551803488 13.44092803025475 -0.8270608949582209 -1.8416158884087896 -0.9758822594707194
Ni 1.9648206625100302 6.037998213662817 1.0979579169483988 -0.5170719856630449 -0.12145582801535212 0.08132913519779542
Ni 3.6621411548122165 5.326967410078693 3.302848921432917 -0.9117787441225911 -0.6560779067470185 -0.708092866361729
Ni 2.9081233759113796 7.367167682721876 12.50734403095487 -0.7493184486704192 -0.043292749250364145 -0.18050609721028912
Ni 2.7757726304637713 3.9809319726207706 9.171509487207592 -0.2874999841640403 -0.033479619814684274 1.8962479739313731
Ni 3.0271919403307477 0.8126006948755355 9.557209984688313 1.0377257751400772 0.784810728039758 -0.24785280208606345
Ni 6.706291429195711 4.383359890019532 7.650729316483272 -1.273796496989548 0.38109559543401467 -0.04207533190349528
Ni 7.946799107093376 3.1374672945005435 3.156428115929453 0.9195288203816551 0.45443734155095933 0.5972682928079779
Ni 4.2491987777558355 7.9091785762672115 4.5210142713130494 0.11417703496575175 -0.5299339292273777 -1.1203528032136898
Ni 8.864571953761724 6.444887392144083 0.9443233538767463 -0.7723403634868893 0.9014624497982474 0.7529835562268322
Ni 5.232828335642094 0.16625910064425306 11.305090512269002 -1.2952171287571692 1.3403191633021305 -0.9709169450456442
Ni 2.344480446226864 9.427208097818925 0.672545730237624 1.244437584211457 -3.2499854675219377 -1.166510789826991
Ni 5.556828576329597 6.468653074887939 2.8294527775304097 0.38998518461416065 1.6066664246479556 0.15971924237192495
Ni 3.82423364080985 1.94350266959405 0.15784920785829118 0.06282670551823373 0.2067130946229601 0.25107002347178053
Ni 2.899865886454323 1.886522297714205 7.3505612618104195 -0.873568808711773 1.1169610039233215 0.7494290061063544
Ni 5.057860077493301 2.1590379229278454 6.4268733186674645 0.7760175552281603 1.2202082793504472 -1.4589398358615326
Ni 7.017388188035889 0.8405727094971797 2.6413815277219075 -0.2075420182821587 -1.1676567305059762 0.937803964541759
Ni 3.169555122659172 0.6689037525050542 5.154132798534576 0.32250683925652845 2.88878532546027 -0.8165013742748197
Ni 7.410237787127081 0.6284780767704915 12.151222710473343 0.06608146501010555 -0.14718742845350136 0.11683761251705038
Ni 3.037629259219421 1.9611352729201361 2.8033890373179693 0.8807167326104639 0.8663036425089273 -0.2801250318562079
Ni 7.161977382622871 6.490359003550223 8.83432774405458 0.31597880833002356 -0.185762460513222 1.3596798272169293
Ni 7.0853138899007595 1.8974583911338414 8.532753884129644 -1.3755851855932761 -0.9120391968728292 -1.017824151120144
P 2.502545789715239 5.589359759626858 11.131213092492557 -0.5159939221075178 -0.12747272363339338 -1.9172472018908593
P 6.6483504545154934 8.164264802593307 3.987501017924863 -0.716022662731767 -0.22744827028778247 0.16853864043576783
P 7.049383650540636 8.304716015886372 10.409547307520452 0.5603521365079189 -0.06639822491957596 0.4972894037194791
P 2.984177255317871 4.063183587402748 1.4696253006348174 0.2652789679823109 -0.9993664586355885 0.5710306992676876
P 8.821991387322091 5.75867523975807 7.220039356309675 0.06739786982868393 -0.6157406405805526 0.595247148612891
P 2.1380524463658404 8.1265980889402 5.283344035406733 -1.4767557809970309 -1.3929416745938525 -0.3928108269884138
P 9.23979818609222 2.8736617504479818 12.936331692127421 0.10552398727644408 1.4390775497199668 -1.6650978293119711
P 0.2896817819876215 1.6703035385416827 3.146681692131818 -0.20197146617291667 -0.21908010082874527 -0.9596706827078632
Ni 6.88195242974862 7.952442648545571 1.2085833369464076 -0.2672404625840559 1.0695352063411903 0.2674302099973588
Ni 1.6903838316956434 9.267784979218483 2.9505256766390184 0.13380277961647924 -1.0160313208857792 0.44510886506118186
Ni 1.4593865679019908 6.7655901789879955 3.500667518695593 1.3165616558712163 0.022980005834941072 -0.1204160738969281
Ni 0.9651841368060103 2.4139671276423402 5.042320479884182 0.7855720316858149 0.07067911168311698 1.186341194289357
Ni 2.642285787473413 5.803343269975436 5.389087006940535 -0.6209196136783307 -0.46873576045150245 0.8906651020724274
Ni 1.5793695522947913 3.930758949432034 3.3506509182865014 -0.0980302500025602 0.6421044752860618 -0.8569098599988533
Ni 8.57924521235464 1.6759840262554297 10.200049073324386 1.3096957819893187 -0.2543078136827878 0.7611146699743989
Ni 7.832930728987568 2.2770350457621813 0.9071360179672887 -0.8470021139668381 -0.32739244948360385 -0.7895047910813178
Ni 2.5303663246645165 6.408181281291351 7.8197261351085885 0.04942354473845036 -0.25458600704483897 0.5694870089296514
Ni 5.050904943755982 3.0205600863820155 9.132617081327473 -0.5436921593537346 -0.1670476577125381 -1.214342050377657
Ni 4.112857836060522 2.7604768781809015 11.311011150682841 -0.44047059495822205 -0.35256560631512185 -0.07992531287173331
Ni 7.500922386108491 6.0560372258659845 4.3589522659811974 -1.997223422605186 -0.47269294532703754 0.6626409046765168
Ni 6.218009636513571 4.5667980786293105 10.55733327738829 0.518113796663998 -0.22578425232179827 1.046783000246339
Ni 9.171623096961866 0.01555899439643359 1.0915809922043813 -0.47740552031135847 -0.2542715611282137 0.47851160889134364
Ni 4.38445904130073 5.69590354137982 9.554966422955516 0.5226240258295257 -0.48113773366028095 -0.5940017062415641
Ni 0.7335652521617315 5.9820431005410635 12.324490516934167 -0.3000477389220639 -1.259822037087327 -0.895215183336955
Ni 4.237403683755096 5.987178630896906 0.6910853642848317 1.5734837672483997 0.06823065014262443 0.6531573906661139
Ni 0.2257970774800923 4.1238770585686515 1.1648121772282363 0.030723654336101924 1.0847453384227252 1.0822220577802395
Ni 4.171399187490974 5.0448827031228705 12.170987113091028 1.7028315964173186 -0.2680058799951707 -0.7115453436867036
Ni 4.111675555690831 4.432378342534744 7.334933916830113 0.1125361569282191 0.7151770269020199 -1.204399080232332
Ni 0.06955318468627142 0.191610701665263 4.846502522684592 -0.4073082492736405 -0.24291345580291718 -0.0019897767365191542
Ni 0.22990919639092178 4.791108069081902 5.271813107176096 -0.7492654839452967 -0.4813758178130161 -0.6705344484919806
Ni 1.7121082334887048 2.639791914818597 11.02733590716717 -0.9544729405570078 -0.8496146118890207 -0.5159052190484534
Ni 5.544239137705471 2.6777449619987372 1.8773882582018078 -0.69454263848112 -0.4064847249310806 0.2716853857292869
P 4.77839855510773 0.9824749872127326 8.171143272837904 -0.014098387074595075 -0.44839653467351803 0.3019709240867057
P 4.974232214468481 1.5183528013403003 3.895735740793033 0.4662842135872163 -0.1712948630246663 -0.2697138638252129
P 3.3532426985344315 7.312635000669905 2.2474484795106786 -0.012458023257694673 0.6363292633651815 0.25501769526561885
P 3.0478264274080007 0.8267612732721947 11.871359397493386 -0.7730595010411009 -0.4080494983150391 -0.17850423628891193
P 4.918323284173668 6.693554205525374 7.390198134860829 -0.1769075812257534 -0.3412416966618704 0.36210542748475705
P 8.98798170391355 5.55608965109854 3.0090614861302374 0.6469368636776988 -1.3278184597319584 -1.043034074726868
P 6.467766364610671 6.047456456620341 0.28493788200423875 -1.4011337234863417 -0.14763480040356508 0.08669348483350231
P 0.981551330673912 2.728102716495238 8.915345353700694 -0.2653769270127559 -0.7836997543637665 -0.28432030088447807
