# total energy = -340870.6279995086 ev
CRYSTAL
PRIMVEC
9.16761225034607 0.00000000000000 0.00000000000000
0.00000000000000 9.16761225034607 0.00000000000000
0.00000000000000 0.00000000000000 13.41772720482685
PRIMCOORD
 96 1
Ni 1.262737710704102 8.353491393452362 3.354887615215488 -1.285262845757935 -0.009389668745016087 0.24916869268400957
Ni 8.109064522030378 0.30438488749257464 0.5491381259021306 1.427312952984871 -2.016374284502024 0.11941797164971693
Ni 4.626178707925318 5.001583252140263 10.703481302518188 -0.5991958488479938 -0.0682195943990309 -0.4349576355597929
Ni 4.182026241244187 7.642781439956077 6.203363677064638 1.1093315124025218 -0.6346071384677522 -0.49857418396917363
Ni 5.7479735515811266 4.878498893288279 6.315938285507869 -1.364235822018728 -0.6926047980284588 0.7241123817184368
Ni 2.6782903460099994 9.041539010058873 1.6020099457023538 -1.3449299226012643 0.6270200701491138 0.6830482646882753
Ni 8.75110906156857 4.9189555650902905 0.8689264350946234 0.3781077164502843 0.8468576179691737 0.05032214529331979
Ni 2.2005110784746247 1.4679913760055354 11.396748957403437 0.11688106416047613 0.22497615459820608 -0.4279344101644243
Ni 0.13557523021618867 0.16959257134207636 11.745878208835299 -0.5343549411132088 -0.0940920912904186 -0.7821066988450337
Ni 2.999147598762908 1.7135917017648548 0.1612298756661655 -0.08157853220444015 1.4582330396024952 1.2835764591944474
Ni 7.437060226442112 2.270203264977885 12.651802375720399 0.28706881016389274 0.01927915994458615 -0.5783074354347589
Ni 0.08783122362708978 7.230385581279062 1.7051785842228868 -1.0745182613780784 -0.531436224804517 0.46789115306302004
Ni 5.025290696799225 6.177384498149492 8.486738966979104 1.770476292149486 1.127061325582117 0.24494771262412654
Ni 4.443660720409742 7.952380865160182 10.767833355025376 0.35297081217334053 -0.39201018546398936 -1.659911142904709
Ni 3.9110407978279973 1.0299170360873169 7.202233678317445 -0.4487120090314079 -1.4296238605062346 -0.09466467596443696
Ni 7.8024170678936295 3.3734795323726328 8.49478996384666 0.7157640097537415 -1.861906777447342 1.1583897033817534
Ni 6.470977272783394 7.348904469349853 3.736891006555538 0.33592722642749245 0.9944422818610937 0.0792074608691023
Ni 6.6052919563481485 4.533925028264399 3.8840155943824617 -2.2379864077240037 0.6466129046793767 -0.8125480460540264
Ni 8.263199582761674 1.037902026148398 7.459504374166038 1.0858431994725943 -1.108936333846632 0.7345065804685673
Ni 4.054458920119106 8.05040097277566 3.493627505097676 -0.32604056344139976 -0.1007939287906264 0.2838850131192724
Ni 5.6114494735218585 2.7205163669300223 8.321875049912006 -1.399764353942641 0.06605549686817656 -0.05537256323303367
Ni 7.525848548763091 2.314088623671795 3.850659238082525 -0.12425730201988923 0.49811421361361957 1.414294943458648
Ni 0.7677086644099091 1.3745000687232085 2.6579446646752602 -1.1450878440665246 -0.2523434908675654 -0.5182649775298817
Ni 8.747451184376411 4.204807757090096 3.1718434067705132 1.7652577240630243 0.23876780906565978 0.6326978372601814
P 7.499775860205439 5.939072423938462 2.421202085640415 0.17830857533833808 0.5256275885425399 -0.6349434387612485
P 7.562949874569286 0.5255507769605049 2.7673527799300897 0.43899375330237944 -0.8348762772375814 -0.8621646806398894
P 6.539266814649058 5.6858079745384265 10.162089808764868 1.5201092082820016 -0.24976004641110533 -0.22384589764850482
P 4.674216994859952 9.134764456592897 1.132445775289522 1.9298432933883147 -0.2430216992460073 0.943380173077956
P 7.193265920248846 8.047834041412742 8.213942920190854 0.5218866334428689 0.7174622233917708 -0.4065400036490482
P 7.189039651112041 2.6166564904639036 6.426111896365568 -0.46064681279578085 0.3698259360574663 -0.373572290473776
P 0.9055858820019159 4.764893845255078 5.387914673110434 -0.24616307308846636 0.34048244989834264 -0.3135113206261375
P 5.032762300587723 0.22239343271612638 5.296486995291654 -0.6759913578414939 0.18884315632107476 -0.7085353532157862
Ni 8.690217782595319 6.434416836085814 4.331617833463116 0.3785160076322965 0.8788169444845898 -0.6969713025272706
Ni 2.7326909556798684 6.179108009207453 7.561788338127564 -0.48406082084434693 -1.7565260006169812 0.8657202592016315
Ni 4.91528852028612 2.6396855318340946 5.371679749001171 2.4157080002106204 -1.054572414383771 0.19396273693582725
Ni 6.621353612590415 4.634090357090315 13.283549853448479 -0.42287139381922006 -0.5641987639475187 0.8775671312378887
Ni 8.26504227277577 4.700262180581572 11.485373179469427 -0.3401397218469432 0.854983589510418 0.2735005845611548
Ni 2.578235028528207 5.088611392955239 9.859238662761637 0.03800116183412165 1.055264555354789 -3.003391991764273
Ni 6.282610348805165 1.446089950912627 0.9932273360603899 -2.330704244374715 -0.6610673895418099 2.2266640407326492
Ni 3.531134956115933 4.000333338809549 1.0470861398604432 1.0294252256941818 0.4458120617757935 0.8973247734807901
Ni 7.710960970477617 5.4195621865316275 7.862156894798371 -0.6273010917246422 2.4833748074299744 0.7865035423611486
Ni 4.361161379927916 3.7468672019452836 3.4452298477722336 -1.9202044847469704 0.023481885172024076 -0.07600360921982394
Ni 0.48427910445076694 3.075632985765894 13.000221137221452 0.11529906438533691 -0.5227371543686223 -1.8077907123292285
Ni 0.16127112992021242 1.7927723666989064 5.572328522789767 -0.07885573395663839 -0.2752713033083324 -0.24453067969136597
Ni 0.2704298861283579 6.852478278985271 6.659284607283554 -0.6778554076334261 -0.8880448908407609 -0.4124311723225026
Ni 3.8047331689550945 6.919025974568956 0.6651634235060854 0.6947652960148873 -0.44653171355063737 -0.9792861429459457
Ni 1.9531780740453346 6.957273251876455 4.963391897266027 0.800610414076176 -0.4121689198000515 0.5218082147964498
Ni 6.285626493156595 3.4351500583667702 10.842918847674369 1.3055015414023128 -0.5821898012083006 -0.8283955546092442
Ni 3.0459574256881443 2.912706185116599 6.43420231396477 -1.8849232929471729 0.854399949092806 1.168670259372155
Ni 7.204221216601306 0.7320594883461657 10.43925972324329 -0.25453947007761973 3.366891214272763 -0.72615435184913
Ni 5.031148800873887 6.079877776806598 2.473235617889192 -0.1612451920981481 -1.9107456533269154 -0.34431416493960704
Ni 5.290693064501065 0.2918738473819459 9.136411876471172 -0.043877160998924435 0.2689273633681755 0.3995502025947764
Ni 1.7064592996207433 2.8374309228989887 4.357474166377322 0.9024705793477877 0.9465423728560215 -0.1350371662442126
Ni 2.73314933628039 3.8146158547023337 11.99505848708469 0.6780083882715227 -0.2576808439200788 0.3657054861311895
Ni 0.8297825653325055 3.5786048511059203 7.490795267480024 -0.3250424611941886 1.5922988430723737 -0.22647690751344868
Ni 1.8839075976945538 4.954590072974817 3.3448243275116436 0.47269114555482467 1.7586535884829453 -1.2332918520072824
P 0.5261283365171617 5.531324544550733 8.802928071696304 0.7048422206349152 -0.10843704715818099 0.06501882807354609
P 2.141783355935834 8.348440039234617 11.135022802117778 -0.681818248935916 1.1339799070788212 -0.49900175842489547
P 5.849404010864483 3.412029340876475 1.9850052726619316 0.6915179927221833 -0.19769777849822726 -0.5065721145729857
P 4.535538527978233 2.213813283501753 10.553659603237795 -0.9728578708220987 -0.7169076364398815 -0.4538683564213667
P 8.43407470302401 2.510009659946615 10.819021633446791 0.1139021840378103 0.42963570912624716 -0.3632356844344583
P 1.0013782598988599 1.007144687853418 0.18857686229326703 -0.2779537352365019 -0.6134647000621822 0.34757792329254333
P 2.2757221674081616 6.89761960052461 2.0701678044327863 -0.7107562721265049 -0.8557523493556424 1.1603427133430662
P 1.2727854134675292 5.224374559217641 12.89843405783089 -0.8107194774857198 0.6553405143603617 -0.7917874164679074
Ni 1.341670850113872 7.869468982137888 13.25980023777427 0.5590357316893405 -0.590292632821093 -0.3222283887841612
Ni 2.201189481763396 8.316967627202825 7.190720991154752 -1.5205689215272393 2.3756748955481344 -0.14865090037290526
Ni 5.405169035675257 1.0790187660151598 3.4035410489160216 -0.3231989802275466 -0.08917254250161417 -0.9927515244222324
Ni 7.571530759411044 -0.006244977301502365 4.926036628607144 0.663553132078141 0.17103106784031835 -0.014711080957929503
Ni 8.251336692820182 6.7778172467723605 12.840711105568444 -0.023463630339578944 0.8143509035907202 -0.47070676813494416
Ni 6.782575237405771 7.133025541728336 6.17612578502046 -0.04486497883349047 0.052656706963767376 0.6779055441450712
Ni 3.7591609696512656 8.870535543228392 12.648166500797064 -0.16659720043868081 0.3723528162443781 0.10878980251190941
Ni 6.181665772958361 0.6128557796581962 7.014881608988772 -0.4128191517895406 -0.6833459984343521 -0.7572533872467797
Ni 0.651885971031385 6.6778536054106725 10.776594841823739 -0.0825997743801029 -0.8289025761526498 1.1875177310959613
Ni 0.9656612435062392 3.7914034610919347 10.449604456635855 -1.9148383353390508 -0.9484964112585988 -0.06700526237595557
Ni 2.5611465997407725 0.5144047942782286 4.715807700267652 1.043295555918371 1.086130648806026 0.7693321727881847
Ni 5.06906604414901 2.491931129062054 12.832955305807621 -1.0075443664606905 1.0330042012946918 -1.254775218692039
Ni 2.8583605811187915 6.406345608109889 11.599571371999703 0.5199094551118402 -0.25986242495242984 2.6287020427462857
Ni 2.770901562539325 0.4773355551140701 9.31469351047673 -0.7213008804115707 -0.6753290416671466 0.4301902960781365
Ni 2.598211255098926 2.797588481101676 9.241875168277913 2.1086925717214715 0.1779781885821128 -1.0369657570456012
Ni 5.738613419718481 6.610004108921507 12.149563919341206 0.21005167207788986 -0.21667431960073008 0.039752083086957345
Ni 1.3925877672197795 3.429191110559993 1.5968705824093088 -0.3385165844212234 -0.13691947086859 0.9529827291647265
Ni 7.9150228462176955 4.630001602133666 5.67552374738513 2.2067243643859284 -1.074601565120504 0.8891658918190815
Ni 0.3964552149132855 1.4705583073684547 9.263692251340327 0.8206575625350383 -0.32396208364581625 1.3372657211877872
Ni 6.368116666026411 7.435749257924621 0.8786138507060409 0.1198458032157549 0.5285640454630445 0.8083864584771691
Ni 3.0475800930139894 4.9698449793601664 5.427362907591299 1.9432400264101952 -0.4699302949802358 0.6104642226729615
Ni 0.20974762870894437 7.732367344521962 8.802109403943772 -0.8108328631351327 1.5621968814806708 -0.12476020979823675
Ni 7.535584552718163 7.805084842988664 10.53499526194577 1.1470776208030438 -4.778701186526028 -2.6732037247030864
Ni 8.107120988284167 2.7198838017013034 1.4814375125412278 0.07263700674043619 0.014734220886381075 -0.1325488526047201
P 4.5084665697114445 4.777600155501529 12.806146458005534 0.5724615181769431 1.1997667236666434 0.306052293244931
P 3.7514235051144658 7.866287820770269 8.699208459693944 0.03865396492677214 0.053455805826295034 -1.2387731868368277
P 4.854415576536891 5.987633264757689 4.693171949452709 -0.03198298066449976 0.544804675691623 -0.8019638427802769
P 0.7366827150830236 8.778126014163297 5.590657329482212 -1.167258466626293 -0.34983920852289424 -0.6302048956349985
P 1.5550103492085015 1.5776451832622438 7.4201909035817275 0.8456196317970146 -1.1712385343199634 0.18338341875808417
P 2.8891087518017615 2.1016383829421774 2.663834855391959 0.454132922936663 0.1263470946693824 -0.18977852365115058
P 4.168724036217058 4.410052254779519 7.879332415899905 -1.9226573171628372 -1.8906224002144796 -0.4262475093803046
P 6.689817339084279 8.634588712916052 12.09911271692543 -0.7574341357990181 1.0807670705012677 3.8481724154894437
