# total energy = -340894.7027826672 ev
CRYSTAL
PRIMVEC
9.04767595728983 0.00000000000000 0.00000000000000
0.00000000000000 9.04767595728983 0.00000000000000
0.00000000000000 0.00000000000000 13.24218831660048
PRIMCOORD
 96 1
Ni 6.24557463000402 2.060897760339877 11.292475128336442 1.689371100037039 -0.24282449563353667 0.7893140152267504
Ni 4.804334111281819 0.3120308251747086 5.988594390138019 -0.17133188691018883 0.15782022557699915 0.14838659096792509
Ni 2.796727163246698 1.4958251487110958 4.742609960072265 0.17767428418844886 0.10154700490656704 0.46642253893729346
Ni 3.2268355902999204 4.145690433293821 4.681802338452943 -0.2874796724490662 -0.893529825214732 0.32239988136501896
Ni 5.121210871782576 4.441793729439448 2.754785755857916 -0.43242355628402945 0.011900350982011762 -0.3394347253601187
Ni 7.147872225711385 5.975691499233467 2.6873697116057604 0.3781789360078519 0.4734426790088685 -0.24457953065143037
Ni 5.125083277158882 4.685384313426026 11.469522768815754 0.49449641435537417 0.1307789051884909 0.5473122726048251
Ni 5.513020485850055 8.139569909089936 12.442638334993708 -0.3739199036211818 -0.6853987671983229 0.4293330902841638
Ni 1.7493772240979337 6.465125538558724 0.3847569505375027 1.0081781433899475 0.31144698189794107 -0.22330673731558315
Ni 2.709932806296015 1.633847447812802 0.31387564633412113 -0.0859380947247165 -0.08397788567455214 0.4811667871260036
Ni 0.6522858759834894 -0.10128240071020839 4.487777638515458 -0.2017092136504655 -0.9509423016959301 1.7642683635665617
Ni 8.75017947459475 2.1289272370324848 1.428461580980395 0.12900021602151332 0.8301436476486027 -0.15083839494252732
Ni 7.160330875718795 0.46787342714830726 4.89746455581434 -0.9730473611250855 0.07034332561025305 -0.4210631369658877
Ni 1.0287388693846076 7.496868236412801 2.474978229159165 0.24325592674400043 -0.5327351461215987 0.23195541412951662
Ni 7.555117175227406 3.938417221224272 4.014184270528599 0.8766276501427548 -0.2557594585276498 -0.718140480405718
Ni 7.531846552265125 3.698943329869047 12.68278537345173 -0.24115816367470727 0.6855702597791806 -0.3374346642109543
Ni 7.951875868128619 8.624787731346599 7.14099599186561 -0.6617183928622474 1.3472781111184668 -0.26689156388506935
Ni 7.026669556503489 0.589511289577232 0.3037015345452081 -0.3009406830499785 0.8257252068659328 0.034486720922959964
Ni 1.9502356338034648 6.581885798795205 8.910311579813458 -0.9129933332559824 0.19508605190699305 0.7742818034839761
Ni -0.08070165185628174 4.864193536444513 1.450310814025345 0.5352545701093427 -1.6141542483845686 0.39198087488795075
Ni 6.595511599021174 1.8867661858717395 7.060284387565605 -0.2875580910954854 0.3872104500825009 -0.34528655615520537
Ni 3.6282900271037097 4.364617052196738 0.4079615254641592 -1.2136524805098001 -0.1364229908481457 1.0327401490000279
Ni 5.901563888840791 5.629464077422586 4.81217120833078 0.3098858080584082 0.33646330143662057 0.9075510791944886
Ni 5.270045143839153 3.0338758018409173 9.469237200291161 0.2499474798315631 -0.16005785665826627 -1.6001432788174572
P 0.20050283603429556 5.497078480539193 12.489317105595186 -0.355958948267387 -0.8231857282735308 -0.24359788346445146
P 3.9124413431042457 6.197440993083596 12.540776668254699 0.07382357084936964 0.8736870794571922 0.6183060873148835
P 2.397697503641156 8.619268648917753 1.0611829311577186 0.29774454471018397 -0.4118251633073875 1.6044303362285852
P 6.3804302424662245 7.69028945635356 5.904466383337796 -1.2743030043123216 0.18733931808203863 -0.23415267889115157
P 4.672898520390277 1.274998517824479 12.472287569615558 0.18591055605531207 -2.6376273702603736 1.0879892992813198
P 3.9051217731289407 6.239829355672352 8.045039789062756 -0.010954442128974683 -0.13994103130373317 0.7771501261707068
P 4.939072103954556 1.0765739329933077 3.9123915808856253 -0.4810801409494683 -0.5546496868065028 -0.8949745280810587
P 0.23416109594175258 5.604429157618298 3.676826285611156 -0.35040973631438366 -0.358542392723847 -0.5024814894433798
Ni 1.5567069612745426 0.9228358204835608 2.690852162141601 0.028889943561472824 1.1563058242695312 -2.2429540361419242
Ni 1.9134930211091334 6.561664242682959 4.73749892783611 0.23680760001549545 0.13602112742403671 0.2018693933774136
Ni 5.730825192914977 5.646419422458089 9.370569577977568 1.0219502574733754 0.49478514924038663 -0.2581073899345362
Ni 8.658861279587638 2.527993087342478 10.031699557361382 -0.008522949869346612 0.16588243375984332 2.125249447638888
Ni 2.35509199682569 5.087797803897779 6.850713970530998 -0.10368667695738916 -0.12808850284052134 0.2773855214378578
Ni 0.3523273650461723 9.045866577639186 9.154695644995131 1.4714184279445175 0.010664678802697763 0.3842482821303834
Ni 1.6106492062594246 1.1877427293920402 11.44905059207518 -0.9488663930035076 0.33053048089195336 -0.9352248909606732
Ni 4.0378421340285096 6.83362833895947 1.560697891207926 -1.1553707140497715 0.9791799563853846 1.045720620420096
Ni 5.535178244650453 7.8393770633412965 8.13129942835517 -0.42503472001912607 0.7794751747594576 -0.0507682316918029
Ni 5.339875108078219 3.03593867199465 4.868120227877495 -0.37024862541718173 -1.0046955841579859 -0.06996768743838917
Ni 0.7722942519444878 7.440944550359203 6.796672201108875 0.7988363528948887 -0.5396542418389352 0.19716581725415722
Ni 4.981659515417797 4.504638887719386 7.308178046311458 0.2692852609282265 -0.3236424955228684 -0.6083618316179781
Ni 7.865407227517999 7.273381588749003 9.11866327487566 0.16319254563250604 -0.727369969423786 0.9863075685691014
Ni 4.633586367679892 0.2288663958805059 10.4032224720486 -0.4543771777369852 0.41735303510415217 -0.42399445168006983
Ni 8.155910012149764 7.104642429244131 4.900497336847371 0.34163044745985677 0.12651318793360147 -0.5838085677586462
Ni 6.937785186370735 6.109832345282755 7.236564785110546 0.8757552748401305 -1.1434042857165145 -0.9225611794500755
Ni 2.263981898369172 5.299042945780874 2.5457310563617437 0.132326709291585 -0.4078906041396717 0.2888212740786251
Ni 2.2952778100435607 5.268597515661095 11.451579417548725 -0.5648065727348467 -0.9821202699606313 0.4569968747480194
Ni 1.160129221895586 3.225605106348571 3.6390594759808486 -1.0283908708923966 0.2701864325862573 0.25351308569563435
Ni 3.6614769030856866 2.4552045330145056 2.4880485020718046 0.20717923562610124 0.10063426328431055 0.42117395151213916
Ni 1.2488959722388726 3.4625637437444206 8.414298070418926 -0.11427499399619674 0.19263219104986182 -0.3931460988406455
Ni 3.6424586878964513 2.6125707636455098 6.902834918314361 -0.24823692489835958 -0.13438770558567179 -0.10998176593748156
Ni 4.055892247873669 6.9746997049112105 6.040874577020968 0.2808418554175744 0.3608183332422173 -0.7484625284280271
Ni 0.8390633873545738 7.2489347678920515 11.291786600184253 0.0751695433543028 0.8688552052861874 -0.20299502234142458
P 0.1017854515020835 5.7270975503564765 8.117594008579406 -0.14346755639975292 -0.1916834539833473 -1.0294702199995045
P 8.599752811542311 1.7413971737663898 8.064241672077083 -0.5727168287208588 -0.68237386432907 -1.0177935549925248
P 1.9180440021939027 3.2963217428466987 10.544225075661883 -0.9827972414229977 -0.5788802772190934 -0.25367018009878894
P 3.961443556931505 5.971004803007005 3.9897654974675962 -0.2187779962072942 1.7033080218331051 -1.698785194262087
P 7.009958498723034 4.171069164790399 10.41563045506978 0.0945885713108629 -0.3268990547869531 -0.0735093820430605
P 6.135717746641653 7.720237264287133 10.427747102920122 0.6345246060562749 -0.5242145102450971 -0.9761748510104736
P 2.401361812466865 8.59630564694331 5.770230536689323 0.5132125027076387 -0.05050957871377753 0.28727449841679553
P 6.914306466857859 3.90303175994687 1.6175860595351554 0.9620445822566787 0.4935029400938533 0.7442325495070795
Ni 5.44822102952974 2.836247412507678 0.566270523946124 -0.7854856426195956 -0.5786241953442293 -0.265019286563021
Ni 1.4762912159834274 1.213673369131502 7.169426504515055 -0.1820184200897575 -0.043057236200790355 -0.7388951964545661
Ni 6.941711877803717 0.6353269118775414 9.238015694318475 -0.845716305275879 0.49628075994930654 -0.10895152490075428
Ni 3.102059089027444 1.7949684640306443 9.287501958817774 -1.1164665807854062 -0.11167869402393026 0.05549571907445927
Ni 6.58509772381527 1.771942128323411 2.635831434164066 -0.2936510913671007 0.4292528718655317 0.08230075508244536
Ni 3.883371159753621 6.781839440889449 10.364912801851522 0.3227796333019409 1.294800867155357 0.12410380716116044
Ni 8.320252001063785 6.918902686323192 0.5682474411767843 -0.5047890545306338 0.9639605683324688 -0.10975705152118517
Ni 7.753903667103091 3.8868726104092985 8.100578044113949 -0.06988901168165383 0.2877920614831624 0.424912592618965
Ni 2.984647396110837 8.30110711840897 12.21272783728978 0.3945568631452431 -0.09202980944475118 0.4366123975543964
Ni 0.0791011179519165 5.208294754368871 10.269635343777418 -0.6081286325612495 -1.2635097703515594 -0.3690939429874482
Ni 8.625113447686664 2.213333007489372 5.557653576882413 0.6273782248194808 1.1323750244855466 1.8354226151138842
Ni 3.766954711209429 2.9237746312235027 11.673267387201287 -1.3946141772002691 0.10796190729397537 -1.0222623893971556
Ni 0.7998914736239388 3.214286463531381 12.69778913474969 1.1109700764472092 0.47401269257972556 -0.5719318709257183
Ni 3.1498036758750154 8.565462119074565 7.974684154841532 -0.043731122339363396 -0.010543065623168939 0.05533168269276922
Ni 5.750549126841015 7.9017879331678165 3.586130570720608 -0.5231698710306667 0.2312195644047566 -0.15856378861124304
Ni 3.2513638402418885 8.486430668228717 3.389603283570304 0.520173250296188 -0.6215407922020973 0.3887358855880918
Ni 3.3901913825176395 4.499816476351231 9.422969194185207 0.2206402462270136 -0.16304496431104823 -0.799464987617823
Ni 7.120123003073238 6.204127225731 11.712146156225867 0.7217947893288537 -0.5507459808767224 -0.7222095082687692
Ni 0.3878829226344964 8.992964815407284 0.2081906464273942 0.8446102166958938 0.3336060344934835 -0.3320348333516217
Ni 4.746763748175679 0.2572326700295501 1.289965183650375 -0.4520310461023118 0.20195475400236831 0.674408072514774
Ni 5.6938563883178235 5.785536490369451 0.5127281862454307 2.0961615291339966 -1.0001493595482 -0.5844292320617805
Ni 8.050658395928844 8.678693785627031 11.203196279525166 -0.6318524585407506 -0.25403167720326575 0.4460755998498253
Ni -0.04440237529148036 5.028074093876778 5.940949327727689 0.050367396708958415 -0.8797019181927044 0.06263670099461471
Ni 8.095390106630832 8.716594500863808 2.4238109064380975 -0.3799722804628488 0.2812853707128962 0.541501579460319
P 8.601218535072595 1.5479126200928413 3.587811628942377 -0.20604357935976128 0.18533180073370664 -1.3553076662911627
P 1.8024327968237552 3.3542630606734654 1.5470983292426836 0.3622692067561309 -0.47602458080343174 -0.7797950199927215
P 4.823831853305037 1.093963566482228 8.15889665003462 0.7090004657776628 0.21693554368191673 0.24876734348053284
P 8.374592343797634 1.4875555727439402 12.109835854999092 0.8612907626753683 1.217227085234936 0.7189583483213231
P 6.470056522040234 7.72617253981717 1.3425728964086097 -1.3823767545938126 0.01296195947730671 0.4421515822050708
P 1.5824204567872957 3.1371550246692346 5.924277174954519 1.0287783361388023 0.3869276287347594 0.31119269979528985
P 6.79410808969849 3.973151249821548 6.094200675262564 0.8374458377369707 0.338431738016901 0.48977766872346623
P 2.334146626624415 8.584570811024928 10.108040229331262 -0.08913011929945296 0.1673212230888989 -0.37803983932682633
