# total energy = -340875.87097099045 ev
CRYSTAL
PRIMVEC
9.18141682068053 0.00000000000000 0.00000000000000
0.00000000000000 9.18141682068053 0.00000000000000
0.00000000000000 0.00000000000000 13.43793158889996
PRIMCOORD
 96 1
Ni 8.453927107501768 8.253028529646132 9.15921323636074 -1.1338305259851504 -0.9627302954697936 1.2435598095921938
Ni 0.9953022912052714 1.950977588122122 8.729481620472793 0.44741051661116493 1.2984880861989572 -0.16333832718175095
Ni 5.978901800890261 8.851868068217415 8.676280819799755 1.255527009256399 -0.5626360474460891 -0.14209715841478754
Ni 7.41469173759629 4.469357544184492 5.538739177539136 -2.396662296433079 0.5392924876241422 -0.5529316756741316
Ni 2.926089944100277 8.198812264290911 6.412406060882267 0.025806162429826522 1.0154903607806447 0.548403705896791
Ni 3.891488361256107 7.305469605053415 10.36096794435702 1.5297814412644428 -0.46397202051427194 -1.5617315118084782
Ni 6.984092477834326 2.125488774507667 6.423022532961902 -0.48052426844599827 -0.33156020770804834 0.18591544115131853
Ni 6.327152934662226 2.2628519491019814 1.7043867721349382 0.8649766961673877 0.34065599936172947 1.647030687397615
Ni 4.048710940077914 6.4738995170792375 1.0842693004627708 0.31752506977122086 1.3950710622320297 -2.578549847371927
Ni 2.3286184366107756 4.5994031297037665 1.4324166842265187 0.6285084817691821 -1.1957974546062504 -0.9608058247535709
Ni 8.771044057392354 3.2121369800260746 12.523829675363997 -0.8613699526527357 -1.213855854769858 0.07137253820571579
Ni 9.329604721092622 1.350806744135681 6.342219639395149 -0.3519649966166455 0.7254596397749506 -0.2113914739352359
Ni 4.822979806700368 0.8590298689097207 6.557697388759263 -0.9366611091865675 0.6304365520298304 0.38042659439144805
Ni 7.796482586413574 -0.6147619513365705 4.751007599673606 -0.9167484294230405 -0.8045220904257564 -0.06216696044704778
Ni 4.15400342629191 4.317313284356817 13.168487237475016 0.3185365417548708 -0.4194063180887551 -0.3049464617752619
Ni 1.4671352931705022 6.401219422828278 10.461013250951964 -0.23183122984682655 0.36193342068326695 0.3259438899625354
Ni 0.6064013533293797 7.797951613078576 5.814862020201182 -0.6367581233724839 -0.22041681736229782 0.38706672541578496
Ni 3.8912221001730756 1.65182867062784 12.574248506790187 0.47875972034640774 -1.3989549706674682 2.899936456981083
Ni 5.117235029116864 4.509728233222069 2.2844613313441564 -0.4832552942239161 -0.1963402360290683 0.6510786537602142
Ni 6.458089117597157 1.6051962554306924 12.875742358098478 0.4458022915837806 0.17243489016638044 0.5712348448586937
Ni 7.145547689734668 8.921105131222275 2.364968583294577 -0.4521104931899956 -0.6654621761753958 -0.9854151386618191
Ni 7.479540083439459 0.5106254054795976 11.179297511371205 0.502736028656347 -1.0253654538025114 -0.05235434523200015
Ni 8.215862155021588 3.4625325750756133 8.079516281392788 0.10124644294701272 0.916349394212409 -0.2768432757811426
Ni 0.4032322111346488 4.113669462920957 10.06967372881217 0.07421129320609154 -0.9597131059100248 0.5708298961107912
P 9.001993411963932 5.041075177953181 0.6868553530631942 0.5328798992295791 0.06202657821444156 1.1508334883010505
P 3.3047040227544935 6.266096513898092 12.341664860053793 -0.3055249599865512 0.2471624608872582 -0.6210581961387239
P 2.6613346134003466 8.677714957081463 0.7952006603153972 0.9266489763662041 0.08265428176712217 -0.8822223706217129
P 9.120580589496193 7.818389446555411 11.376324285822896 -0.3329159504049944 -0.2426288346829628 -1.4497615117963742
P 8.302066476007218 1.1283961070544246 0.8799524811860072 -2.473330021599463 -0.13374904356040837 -0.6543061595585763
P 3.3584887615268686 6.105807341913096 2.896478957242171 -2.7808447583225333 -2.6973746655223354 2.520059564445518
P 7.64219806092177 -0.19074668545881032 6.889775457091223 0.12236419876223442 1.0647223583335792 1.1738656875301654
P 6.383747186931415 3.692756597731347 12.313861694135305 -0.9221204923682312 1.3320939471788606 -1.0973658554002135
Ni 0.5855586193780026 2.5842198949044137 1.2563602654177253 -2.473548308257856 2.8916379644177166 -1.1968948014354872
Ni 7.83823048794959 7.870007370996909 13.02201426127436 -0.21541165083822258 0.55178882031894 1.8413214970968221
Ni 2.252375952697188 1.4182442494759147 1.7007986745056716 3.2134552338063886 -0.7926952729941574 0.4887404857082035
Ni 4.891069192623196 7.507056789158272 3.1615556375250695 1.2747272363339335 1.3525704698656578 0.1308354694580392
Ni 0.6877734947288203 6.6103629128412384 8.149715556863224 0.7976618729708134 0.15143206266246823 -1.5099880606875995
Ni 8.295887382597556 1.396475110583921 3.43288118998422 0.05825656964904806 1.818608628880339 0.022355741987380853
Ni 1.2373060714309876 7.3623943883222305 13.109521425283516 0.36509047825500995 -0.8649815812633942 -0.3242662451497964
Ni 8.085192233169687 5.460234392561445 11.88699284396078 -0.6787802334405406 0.4185437129781437 0.11036177498471961
Ni 7.224498691561853 2.9239873996859926 10.572696003158718 0.7949506446872373 0.7696021386201196 -1.1246938537912048
Ni 2.5906927936470776 1.852341628983915 10.566755626582118 0.2066673289866892 0.4464617795446505 0.44672763161152734
Ni 1.1368705546281532 4.971268867115632 12.45404631806809 1.8024050225372827 1.044109567179234 -0.283326312402325
Ni 3.3189627628216667 5.4084603840367915 8.961030521552026 -1.030175216486329 -0.759673309542182 0.3273243152498298
Ni 5.983501690635048 4.639737093074719 7.394866304610427 -0.4853579423892157 1.2668056674940118 0.37071862307506476
Ni 2.5155979868155227 7.765596300781913 4.113673135487619 0.5885535386427992 -0.7188899569772328 0.1973339674009053
Ni 2.4825173426030154 2.4450204369788477 5.082951619322386 0.6140028319538393 -1.2115835137959134 1.9619342603855892
Ni 5.346412370273783 8.647581547615617 13.045154185673134 -0.0026819177075373163 -0.10233376247392054 -0.7101155532187124
Ni 1.463352549508123 4.299326889127202 7.783545052203237 -0.2893442364616307 -1.0653790180809717 -0.1655286499648504
Ni 7.592544959644714 6.201248168054924 2.54369312178368 -1.0804523674743263 0.9567794772029973 -0.18337236301449064
Ni 4.299336070543858 5.757262402808131 4.955358390191998 -0.6528604282509852 0.6366609356729874 -0.43395310555467836
Ni 6.942473116131497 4.456944268865227 0.6872896340710354 0.2090607689195303 0.6550098704938204 0.9292270215060255
Ni 4.652884881726484 0.5744114614156367 1.6889197576358015 -0.6815747654665423 -1.2102982193255867 -0.11154962464523369
Ni 1.1157441149020977 0.51385542785927 4.379099627745122 0.9416637046074815 0.6211988354816463 -0.47558595060411646
Ni 0.8299752759009841 0.9658758508219563 12.712766703599858 -0.07782343603738211 -2.164209116731537 1.0099876857948606
Ni 0.8636472033461542 6.055428908720193 2.4459854038694204 0.42092301184359765 0.8488859612531123 -0.9359599693544848
P 9.05434584973793 5.335018232203364 6.494242781964514 1.3891148446485948 -0.026874198683024684 2.752439467706963
P 5.999376360033722 6.165257014762383 9.308105515850322 -0.7002833976196392 0.37083072317289684 -0.4593082964900155
P 0.37272970871921995 7.94511135924512 3.445781080386266 -0.9817826841155542 -0.7670251219215629 0.05259705737042555
P 3.7625537271522402 9.641956515738606 4.353594570415696 0.28647617088521626 -0.8838293100975166 0.4040347207286913
P 4.806508345219036 0.43671041068837174 10.935036020789715 0.5001027047985581 -0.7643329198013804 -0.6676342441260502
P 4.141562606722677 2.7250352821614823 1.1818135891605488 -0.24783274748140546 -0.28506746346314776 0.18890743390010692
P 6.743713808356768 2.9697108546341706 4.063414978852915 0.12366620540310959 0.0323799589926023 -0.699721354468582
P 6.42871776571378 6.489260027145162 4.547691554812376 0.8486244800616094 -0.5466586981812263 0.24847140950666885
Ni 5.020178273643532 3.6788742957470815 5.1904549906672095 -0.2348535616129181 -1.369179024956616 0.760823106875909
Ni 5.963541290824337 1.016575633597827 4.432568525784521 -0.3314774181862549 -0.7289002900253834 -0.5925197223793989
Ni 8.139335047191656 5.783218267695379 9.23701931553089 -1.46590469721514 -0.8197155103367431 1.019561702636541
Ni 4.085555965119487 2.329986467692559 3.3591066708678348 0.28860298742023194 0.8434393363162441 -0.4178096630255966
Ni 5.131282596600941 7.912085803532551 5.560844356280748 1.1979736363219626 0.8412608406076867 -0.02871716542903441
Ni 3.068603893438753 8.553453664055633 11.94797397710833 0.00826429689132125 1.160574369737898 2.8659472445198317
Ni 0.5470692026132926 8.813039857178088 1.3896165923416945 -0.5953384227751166 -0.5310531304334855 1.3498289025647785
Ni 4.7112786916603016 4.980165659855548 10.852675040816393 0.36055890893324355 0.6799567702471451 -0.04040977127561427
Ni 1.6213371859123986 9.008447947873282 10.259349861088861 -1.8266073308150994 -1.3411010357734774 -0.7999429556955062
Ni 8.426924561115706 4.01562111444875 2.960040068470131 -0.25538921967242467 -0.4827780974771815 -0.7014077410320694
Ni 3.771955497808251 0.30607629636143063 8.753750859120286 -1.1113187180358794 0.07810291495101386 0.7325882803999317
Ni 7.257533428691079 6.815971557441538 7.201172384404957 0.2047639413163893 0.32272101214986354 -0.7922422446171389
Ni 3.7817520693804805 2.886215051562137 8.723408113354676 -0.18383850401763177 -0.5057588746430709 -0.6558840455686575
Ni 6.728849094790282 7.370804565979364 10.968308556610337 0.11750070002234603 0.4043424817770972 -1.6380598513575726
Ni 0.9045320517164824 9.029941644265588 7.82885809782688 1.4282958857234307 -0.9990299012317764 0.13524105472490255
Ni 2.086486116551872 5.92881717303036 6.128462487512418 0.6750613898280567 -0.7029845986008861 -0.34415707053645245
Ni 9.026801599769147 5.852868494449773 4.514338222525178 0.13527859283105734 1.1896162654962028 -0.811821452300647
Ni 4.856749057162094 2.704395457518209 10.911076195883536 0.6945035577130685 -0.22681783579263518 -1.118407763672177
Ni 2.1446320282359705 4.357133088395019 3.912870044365207 0.6398511604755109 1.3577664122443003 -0.5953805888669617
Ni 5.653741930008794 6.275535010220728 12.66890523994957 0.21072787220930805 -0.2932381721993982 1.1188679911380472
Ni 4.602019833450801 6.925928203316914 7.730707835629788 0.7643192929546256 0.07090382609941338 -0.19610677986202354
Ni 7.863947636003776 1.2900808543711735 9.060256845781229 0.006246238020027953 0.475607033650039 -2.2581469418322784
Ni 0.2453678512885701 3.4506242776724436 5.130118392968927 0.4439593248377709 -0.5116274176087059 0.957078753610971
Ni 2.049696180010236 2.877795692488346 12.758966674072497 0.4573871682079026 1.3450883025559994 0.17558166332547825
P 1.0549264109710277 2.5113010838203924 3.2922935018602266 0.552622629074145 0.2830751156234673 1.1982991379821817
P 2.5980471083887426 1.2887403675393594 7.101946978317418 -0.49985125090938426 0.3466919211431642 0.08778286124293913
P 0.30749941594315106 1.6722114156047385 10.844182230409354 -1.2805458998982397 1.1542628256975733 -1.6490166074793924
P 2.5655816190922054 7.5672777010066845 8.517229302780024 0.29202126907316156 -0.1783250303985703 0.7161514750001473
P 2.4680841556193744 4.056166250402797 10.707383712939398 0.9677915120427848 0.15124360080074598 -0.08932423758813005
P 6.104586213497812 7.3384584350993585 1.3116874821883515 0.2552056429067089 -0.40193824321097876 -1.3721851587727918
P 3.788766671705864 4.325319479681076 7.136159691203641 -0.8919665944926702 1.043109408049494 -2.2232074496426164
P 6.003636537362227 2.878713834153972 8.50281080606303 1.2623944258001936 -2.0145765691716533 1.2353021975690919
