# total energy = -340871.2806408767 ev
CRYSTAL
PRIMVEC
9.28405734447637 0.00000000000000 0.00000000000000

0.00000000000000 9.28405734447637 0.00000000000000

0.00000000000000 0.00000000000000 13.58815637053513

PRIMCOORD
 96 1
Ni 5.820723378007372 0.9643629000361422 1.6614238598530688 1.5745528319428626 -0.5941929963167638 1.17535435626055
Ni 8.364815074320216 7.959092479473822 0.7192702820610754 -0.11933003992160093 -0.6907944842925974 0.5656684065145097
Ni 1.5806107817349382 4.5775416644789315 11.40856174518742 -1.5952494410602656 1.460464500036175 0.9480148436364899
Ni 1.3363936503778893 7.468290782108668 3.9695621643496697 -0.44033458360099 -0.462034694282243 -1.649450095472385
Ni 1.2833631141942183 9.025199365160672 1.9525904697606817 -0.6377672813632886 -2.073966738204512 -2.2581988781161364
Ni 3.022629153779778 1.3215391584496903 8.45279823001094 -0.09236251019382156 -0.5253583940415533 1.3613821546200167
Ni 2.6518424671370178 3.0374279413632466 10.33486607093675 1.278041131198515 -3.44113798870248 -0.1626749825661392
Ni 4.40839542170402 8.863870298762974 6.273733391095695 -0.2695148604405294 -1.1882695216603214 -0.016833526617571006
Ni 0.48521176637142377 1.930034852173457 8.867345321468427 1.1447188907628802 1.8555080730098497 0.1527916620141562
Ni 6.092894806361801 1.95040407423 12.996718608821883 1.9857187643996965 -1.1034704256360544 -0.05286522343014767
Ni 2.7085959103601933 5.957050477678419 -0.24714160945541294 -3.3101143144930347 -0.23418044680529349 1.111505637235705
Ni 7.057016320904109 7.928956428974487 9.92787434543624 -1.4601212577641434 0.000547387863037767 -1.294100241543907
Ni 3.561076634004631 0.2755452548336207 2.029296280860666 0.5349200695880594 -0.07630365695874601 0.04178068348121192
Ni 4.929797372441264 4.033663010642831 5.253656862271352 -1.8967169431479916 -3.243689607210898 1.1720995967686783
Ni 0.47903322613503846 2.2328622382447065 11.716768314148167 0.05233840439240019 -0.4791698113006328 -0.9528395187186428
Ni 5.164693310113368 9.005777116964552 3.7496655499020655 0.8778149855826367 0.06809798121950209 0.6664885605573811
Ni 5.376666909928769 5.2754242633806365 2.317745447151164 0.33320931327569714 0.5253326830099404 0.9760825484069836
Ni 0.759232578970913 -0.38223764310791086 12.78792294187337 0.28614167036393295 1.7945742136389546 -0.04102195093831645
Ni 2.1231896675273214 0.6284527036293024 6.288245301303801 -1.1521848601226221 0.011830416976024787 -1.2224222562826301
Ni 2.7878724769695014 4.750977141798113 3.503189607366185 0.19467236140834213 -0.8292759003316686 -0.6102932443127361
Ni 7.459768017364863 0.6692672770135204 4.2902158691405035 0.3673090831728835 -0.8357720495789734 -2.013604692176687
Ni 6.195316528206733 5.90077980544291 11.452002778425692 0.374262117451949 -0.02874030535748599 0.5667336145542303
Ni 4.391953355950994 8.992862993044474 10.397697786575796 0.1511960353922622 -0.5365200670853276 -0.38322009797618517
Ni 0.9026694098410948 3.003773233088421 6.486238967403276 -0.9972329572323535 -0.15284051297422063 -0.46614537401650685
P 3.6573801619866373 4.541714486759607 1.2679162994003823 -0.7560349414586464 0.040216938538517835 -0.4001610967058979
P 5.729925296096255 8.080657927791222 11.882014324386182 0.7739591300372348 -0.7225003000363105 -1.224231798687543
P 1.205952643133391 2.9097907194701955 3.793323830084788 -1.1434161127910567 1.8771608753929347 0.42069598343445613
P 3.1586220273824415 8.677372152604434 4.2844133332310514 -1.1688484368212322 -0.1798332395129806 0.44655613903066965
P 3.346197124205776 5.053098939502772 10.12725319290802 0.030191693092031877 0.6549322231783494 -0.14805697554264824
P 2.3032353937545498 0.6559010194953779 10.675698674606295 -0.384347526712409 0.7554721269766409 -0.3403829482060009
P 8.898536969300409 1.238641809432884 7.009586856583115 0.9694691568555239 -0.5999170432847346 -1.9595716736906834
P 1.1163429205765296 3.0197046756814143 13.61737084737739 -0.5554361872635402 1.7298153240950145 0.6799667975494741
Ni 7.463119562106163 2.4691786367074444 5.774178684361851 0.36890573823604206 0.7163404510825018 1.3767856336592805
Ni 3.739191276281194 4.224051176875069 12.46092358381196 1.3747686032292517 -1.9000465217418567 -1.0676418459732193
Ni 3.9731216719779647 6.718965220848117 11.48946580706861 -1.3192970525245087 0.3737728365203563 -0.018178984901871916
Ni 1.9757866873123104 7.512575736169611 6.126777902450022 1.4110697516531312 -0.6102639337366974 0.4128579754472761
Ni 7.871599522016728 7.106156837014082 7.782779872749298 0.24383133963149617 0.3730141039774608 0.03275251184067263
Ni 4.398851410640152 1.7876174108118479 11.426321218693326 -0.5374150680957712 0.7195273334509156 0.6214338343105877
Ni 1.1199172826967525 8.530619056411282 7.962224920459181 -1.5145247722156885 1.204300864091571 0.2448322700921848
Ni 7.5986575168935255 7.028867058700172 3.1721414718485934 0.6852067057921747 0.5938826641651965 0.3417358626894695
Ni 1.9544426392229792 1.9798716725925651 2.015775907988768 0.4379717397957683 0.9867518551953717 -1.091118846049237
Ni 9.125912820433863 1.3172870601352433 0.5539240040025454 -0.5377652523463383 0.22608275739882353 0.8095100305586511
Ni 8.177871293403829 7.910973209683912 11.815337152149224 -0.35252138334074773 -1.3045026678241531 1.4057007740317338
Ni 6.7584688853196715 0.21433639243773067 6.463682421410306 0.11583102562940696 0.14378097387511368 1.0511181372865832
Ni 6.947501579163461 5.3489261462528574 9.31960054068565 0.18992199120755035 -1.1766571342323735 -1.2726168748591502
Ni 7.439853714123621 1.9607279461200984 10.789838733771088 0.877049825281838 0.29102805192195685 0.359174112770575
Ni 3.093262262898365 7.146821008667528 1.8738068866022413 -0.24946976886419617 -0.02876550216846659 0.3912015735197649
Ni 3.732711004177517 6.303438661329113 4.817966258365562 -0.03191278954819665 2.11794391511641 0.5907677726852988
Ni 9.464818053775726 5.397788140639178 13.33510393494626 0.1519426837502996 0.03277488043817581 0.6850586102500847
Ni 2.5397560414813003 4.834988577709533 6.329525934372266 0.4109712999475245 -0.5566032109884479 0.039465405084473965
Ni 8.57935107399323 2.4880809776860775 2.7447127506721185 -0.7369427007138856 -0.19222107165437216 0.15430295645236006
Ni 4.696126930353237 -0.22184069607870777 13.390856556775772 -1.1878316627919543 0.43483576526994794 0.3281570955637703
Ni 8.205454228103005 4.566242966556046 6.942039768162611 -0.1361432548241978 -0.4581525856190174 0.3325297707101692
Ni 7.871553101729453 3.5887152730485368 12.583869571472935 2.733066719607306 -0.3036107736829739 -0.862228186887973
Ni 0.766662610152249 0.7145149878325606 3.879037962133479 0.09241290381578278 0.6791023926666497 1.598705775039982
Ni 6.800228575752822 7.4257233786769214 5.5431254180704235 -0.576526432274936 -1.6370692053095288 -0.8242036280150837
P 0.5169780973598775 6.486102491758686 2.032054574330583 -0.40275508268531923 0.06348259393467777 0.3467999074759382
P 7.829477753342829 0.565422309160717 12.581314598861285 0.2107255582164629 1.0517418869135113 -0.5812143246689087
P 6.634526718293761 3.0328694691527804 1.6091908242047932 0.20923046172817517 0.48170723301050594 0.20847687139160223
P 7.346038313539588 6.230400981329648 -0.21817163657244257 0.013744089058969879 -0.5444999999670106 -0.18164021081473233
P 0.1993435680534502 7.312671411045871 9.566986320852134 -0.49910974475766945 -0.4134205328189654 0.39081128005988175
P 8.847511789527045 3.9170366808915578 9.68802907673481 0.5276183937203236 -0.7053716107758239 0.04650714242260377
P 8.337844887413079 -0.09667767549744746 2.4510589417722777 0.03218764047613811 1.0925080130872797 0.8513963863797918
P 2.6132857765258857 8.121869858834518 -0.2714871933199858 0.8936326693411836 0.19375756290355664 1.1509980389033725
Ni 8.97202028405772 8.576909366882534 5.58607718148081 0.5305209120790992 0.2737384116035737 0.8241892298373805
Ni 1.0145617986960003 4.363312038701935 1.956585399683622 -0.47876126300830457 -0.25307059884157707 -0.905946196601214
Ni 4.502340799092424 3.0556711142625663 2.8683782527858677 1.4774085840896813 -0.15745975691378689 0.8052319720085873
Ni 0.830103359960351 5.955806413979432 7.569391382577736 -0.285511750089418 1.6917216025470863 0.5353196190193232
Ni 7.697801966456799 0.7950978213258043 8.614864450570574 -1.5391885935109557 -0.9946711100424482 0.6440811393964585
Ni 5.740676234629289 7.728383651713979 1.77651553490701 0.2761120540420729 0.37310409258810584 -0.21448322548668222
Ni 4.257659464862619 4.029206663064372 8.244056410595666 -0.9633489028903989 -0.18659524082716253 -0.05505400355135034
Ni 2.7028490787954715 7.6643793596183505 9.372241146456206 -1.6095252342529893 -0.20727025267801077 0.36857123771475875
Ni -0.014110838926043656 9.474473473529056 10.173085799346731 0.9084321962478613 -1.2955889102742912 1.747981710591396
Ni 3.075585417503808 2.2427126232045937 4.453668199478188 0.23108740970226652 -0.9369567860501153 0.8130478685085805
Ni 7.088164333666051 4.098679265001068 4.19250302123681 0.7563553009125425 0.5281632104802 -1.2574350249123891
Ni 1.3127100198098667 7.018719583901721 11.72395695983567 0.06174452819764851 -0.6293394623109098 -1.5925765222137926
Ni 1.6551988993294078 4.340009054489573 8.781876288536552 -0.355427244133633 -1.0100658473309636 0.0540265907281005
Ni 4.356915323115354 2.4370743660276237 0.7452080817792021 -1.8754698608437572 0.5962503930664248 -1.3343966271701082
Ni 0.4101650163386707 5.098822922469259 4.381745534779085 -0.13394856116572415 -0.7897158786508592 -0.2866780024833772
Ni 7.718152620398432 5.112943973858504 1.7045937986136521 0.6309170912106747 -0.5637380222610162 -0.2945872300281249
Ni 4.700481153299689 6.608605629879053 9.228845165438827 1.8413528645553903 -0.555877645676333 -0.6368907922956063
Ni 4.962746492349501 1.8099548530488774 7.0144916241366575 0.7899717034154073 0.7601659329078844 0.3700509075840788
Ni 4.805567399634244 6.310977315982673 0.13604857794739372 1.870103454325521 0.917281161998059 0.2749630280392942
Ni 5.858388799102812 5.426884376703537 7.083125875685155 -0.24284403601756238 1.4996496548760687 -0.7018384008115848
Ni 2.568750152913654 1.6085650787323178 12.929429617198632 0.1133033741115468 -0.9155240700976363 -0.025481689210872245
Ni 6.067670022256227 4.375409165565962 -0.16875538395605166 -1.7123739886901155 0.3684869055310686 1.7085859824025929
Ni 5.598453758474237 1.5448578764752536 9.476434266463578 -0.49309619157373785 1.1236466434736132 -1.7458461523056321
Ni 8.640904374920707 5.635849941903478 10.968264391972397 0.4331159543653638 0.31817967263608427 0.22260971124855855
P 8.862904756787641 6.391163720222583 5.882679607028399 -0.5272741230070274 0.7540518495903464 -0.6435820882728529
P 5.68600242027606 5.7011540020428235 4.525956656041024 2.549641134757377 2.6831549223785274 -0.8856535077904489
P 6.358827348106384 3.4729523606405897 7.935959393512888 0.3296370225434065 -0.36970663687078265 -0.14450731051817692
P 2.9905620193297784 2.573382897583761 6.63838517257211 0.42039644991616626 1.500738002844241 0.8109436776813841
P 5.6260831134606875 -0.4005662293358176 8.38516944188483 0.207770589353197 0.17023556852221652 -0.3953688175235771
P 5.637288970809022 1.647808789595129 4.920081606314476 -0.9684756825940031 0.42586775744338273 -0.6205048947384152
P 5.816907630393316 3.5265028040417477 11.311216545958949 0.29553648131527166 -0.011180442096851713 0.18120132350510085
P 3.660648150210841 6.466346017494181 7.321964752558451 -0.3855379474760844 0.1711881622434729 -0.5812559765401215
