# total energy = -340866.05833140673 ev
CRYSTAL
PRIMVEC
9.30314547144908 0.00000000000000 0.00000000000000
0.00000000000000 9.30314547144908 0.00000000000000
0.00000000000000 0.00000000000000 13.61609377382145
PRIMCOORD
 96 1
Ni 9.375616908921325 6.561917793395651 10.124736877408951 -0.14088745437740252 0.2126315169899241 -0.0228157123429349
Ni 2.8867195038189926 7.356676202302506 2.3662187518016595 -1.5614502331226334 1.1395170348469665 0.6251279953327233
Ni 4.527999022672839 1.125429409225076 4.612274356278586 -1.071800348226283 -0.8692105317430773 0.35754866135201
Ni 3.5230174370219247 0.2591307424590296 0.16436239114962106 0.7232986275678899 -0.9438594267072196 1.6039611099016506
Ni 6.934769254985614 9.055197974840745 4.773366691817927 -0.3018793928141639 0.9926538225021033 -0.4554405860044931
Ni 1.7111740502906794 0.4826006679469867 12.490178816569191 -1.5473878414922961 0.7995616610966876 -0.02454940720458998
Ni 2.960400415436152 6.531282535573011 6.5882149945153765 0.6891073263981616 0.501466160804988 1.9989373199724993
Ni 3.3633568555606006 8.907296569172866 8.047315668452175 1.3681811798197212 -3.341474831082187 0.6660432454898465
Ni 7.9281498183149886 7.0417461240115875 5.693147280895175 1.5725327161890401 2.029834009551356 1.137442411706125
Ni 2.077076062262206 1.1500641382607122 9.058011246011581 -0.7965498708535572 1.2110883193270499 1.097263268384078
Ni 5.181796172384846 6.607317142977941 3.0298939813059773 0.6131548821312471 0.16363040450087304 0.5991462265569811
Ni 7.2707709576215915 3.380521158835052 12.924300793804434 -1.0225570378194389 0.6509634683385885 0.6721804687358359
Ni 3.329605044026882 5.116562516796523 2.166783502470638 1.1592584791399518 -1.5683101934672603 -0.588517028977909
Ni 9.159188534191326 4.467416939787619 11.669182746673211 0.899326377291851 0.6758664022278553 1.7733384441886295
Ni 5.289703355951441 3.014842422353275 10.410647654234287 -0.9537072660355768 -0.43730993784205335 -0.7315480120608756
Ni 4.7817516167725405 8.962045579888395 2.561159651586942 1.0964392298208858 -1.3595307032335746 0.16214070732922398
Ni 3.1902532289873076 5.75216271409399 12.710990833414595 -0.4705399035397767 0.017070068108409314 0.9046002240962808
Ni 6.347805901871797 3.34805318136739 2.2880211630897866 0.5656920606635936 -1.3142103820302204 1.3246205216199511
Ni -0.32880106809157306 6.59085987875436 3.3798550536239684 0.9288004754915682 -0.48848568938492 1.5353111128334205
Ni 1.723193714155499 2.597568441448674 2.4285395925632995 1.4154000035973688 0.3672923710023352 -0.4471030126730751
Ni 4.044821559710668 0.8270282293773655 11.030792536068423 -0.20586334502815512 0.3571946204467009 -0.48061631393917237
Ni 1.0630518192764582 6.664494274644489 12.34207646296054 -0.542485283529827 0.6044961780149848 0.14841513021301536
Ni 7.888685875501858 0.5419686903566965 12.954147144896627 -0.8055528456831159 1.2495178269478415 -0.4467944802937209
Ni 2.836798825569286 2.8840774105236298 0.30737406359199715 -1.3307400042541275 -2.9419541961737656 1.4500553888877092
P 9.269654082744626 8.762214016563068 4.817618963571631 -1.8769073646212318 -0.717234680761997 1.2560291457037982
P 6.392423787239966 1.7258078980146432 11.821165442230793 0.7599939261063944 -0.7872144523852442 -1.911489987692108
P 6.470784180996448 1.920792522583335 4.40518726985096 1.2739785310933671 0.4285890130292877 -0.1990226679572379
P 4.169130188628405 3.6813662749809737 3.5560882583119096 1.5025125782461608 -0.5541066698188393 -1.3881799915391513
P 7.036080508459208 5.662778093031153 4.723613470185532 -2.1800411986677872 -2.6774866683491565 -3.2407323243547865
P 4.400238926809399 5.10308225910293 10.519794016768989 1.2893532137772246 0.6365611768703295 0.04286260369148102
P 6.141108617236691 8.46994640048167 8.504980185452364 -0.3238852076612938 0.2795007680086477 0.16464573313926484
P 2.0269879273951874 1.4709110170299782 4.97127622530233 -0.29312555788093386 0.8854771301135845 -0.6459212779289908
Ni 3.0870162244146284 1.2791359776264277 6.771024592690965 0.5326942655813341 1.9205526121150085 -1.3059705106189314
Ni 1.250873021882371 4.386163267809807 0.3231438253700586 -1.021273543121325 1.5539269281623949 -0.6384743347326424
Ni 0.5414960905700612 0.9982554115222267 6.9030734385866666 1.641284014721825 -0.6229353585567787 -2.5966000200054182
Ni 7.174139186287319 5.875931760578168 10.851182289598027 -0.8402131160694627 0.12918842077291945 1.206134060645568
Ni 4.472756945250782 7.148834630782437 0.736113240895208 0.6642851251481592 0.4216912574681899 -0.8680627912918791
Ni 2.2365691871062183 8.47784477093154 10.603287886160617 -0.40906277007090197 -1.2299345054992754 -0.6603068572267015
Ni -0.6055640620389867 7.992350824763223 0.2838687364086746 2.735631652121005 -0.12704463495703927 1.612093509200798
Ni 3.6731609007326993 3.711275887461929 12.040112178422252 0.02839834863703496 -0.9202158191463508 -2.745107967042556
Ni 4.441405345231864 1.8590382433769332 2.2432516364514967 0.6899305936304053 2.452391471674583 -1.0665604399835826
Ni 4.960986016168524 2.069354451575054 13.252666474690997 0.41823363793689255 0.2342120713741773 1.2380324520160613
Ni 0.10385473342765092 1.5744550254010619 3.939271793190006 -0.5384885036656081 0.23622421670819965 0.7175722666070738
Ni 9.217779743959618 1.5330746346342532 10.721747627561472 0.4786537908961627 -0.659770010886625 2.8419189999260346
Ni 9.298521742940087 8.66704283905757 8.943254156482396 1.096165150223893 0.7752143426005746 0.9176827683118517
Ni 2.1002781069052863 8.550334879936704 4.615011341657093 0.9011953121797899 -0.6902311555899596 1.2880627771005753
Ni 5.22556747152105 3.1155024556484343 5.963304111289641 1.2196691190175253 -1.1321667651294824 -0.4209227547332815
Ni 7.382213336442544 8.200601734681166 10.425679676581636 -0.44191298383170347 0.5091997820038199 0.5432913243708901
Ni 7.909497011775543 9.074427576395374 6.940435800852534 -0.07585962744279194 0.21321849984164573 0.6302974553488048
Ni 3.0220058443160545 3.463877341674667 5.227000155913607 -2.0214732962914863 0.06864356931032695 1.1314836230195287
Ni 2.736027154529252 0.5802771825103756 2.864281247413762 -1.3777220294306207 -0.7146008426835758 0.2652640555839754
Ni 7.925758909945594 3.616421016900243 5.018687845235982 -0.6034543670140318 0.2645523742289315 -0.9632594285003862
Ni 6.531998877769289 5.2041516307959625 6.819484677111896 1.0538620185803074 0.22349442784635704 0.4460691720919221
Ni 8.70074813486426 4.853181167201398 1.9423897746438443 -2.644912076847245 -0.6622215577509112 -2.007726379019039
Ni 6.166664357667541 5.280809548943107 1.3477113230446605 -0.18113756014670096 0.9351102197596799 -0.6897495879678508
Ni 7.575095450149433 3.3882148600859856 10.445845174564132 0.3175009014015048 -0.8560961058483063 -0.4156671627612971
P 4.400322655118055 4.184247799913491 0.3999022174875911 1.9245226525063504 0.7256540151739438 0.9963731803352196
P 4.254058603041669 1.4888195719369268 8.649950170002747 1.2259117574931275 1.6328996473128714 1.2755741577152613
P 1.3838986980457244 0.32511051030893073 1.2356074905853258 1.4400404278538683 1.4201737708369284 -3.315948661786625
P 1.3411972606312343 5.717275918820714 1.9904823848212316 -0.5079633384935575 1.9144377574665223 1.1154126855995952
P 9.228301601414039 1.5285905185484616 8.730326555368753 -1.3975966568673608 2.0543165680737525 -0.9375121443329533
P 4.273883605902295 7.973251467244279 4.62516944612613 0.1536077301575484 -0.4532983428505097 -0.008551232004120758
P 8.97238137443469 2.71165291356499 2.0054325394890062 -1.5446007656654623 -0.37341262496746014 -0.2216738296978505
P 7.562415262960775 4.959311449995407 9.052932658934333 0.858864669732379 -0.1697239189931206 -2.3116536555011673
Ni 2.3506350529317217 6.106296247126664 4.539578647759945 -0.5541138689076909 -0.6750202521774762 -2.683081903048747
Ni 6.276543808060252 3.1788289664284854 8.154964224576476 -2.3137318781864344 0.5710803215587004 1.1666743119880487
Ni 4.724146540417307 5.302588212339038 4.979542069995745 0.642948568453912 1.0534478138610244 -1.0335790999615555
Ni 3.2636271368060616 4.019982161476095 8.979909479697392 1.1845853879405148 -1.248651108072172 -1.5560020655238687
Ni 0.5159115103884514 7.6751693852840015 6.900908596650643 2.1261925282784477 -0.7207887166618425 -0.5421425554784275
Ni 8.083065795619147 2.828584148175605 7.107396560514109 1.9307290384273779 -0.9219831954594186 0.37913255817037284
Ni 6.7857979875960215 7.110077727020178 13.44254274211714 -1.4633562197616734 2.534754447453531 0.1404413679789194
Ni -0.06919679553136747 2.3776234777551286 13.450236443368073 2.060684162162993 -0.2121944294525055 0.24091185199185605
Ni 0.6432045883525002 4.166450882751417 3.7350714727819248 0.673894366103149 0.4095762193722107 1.3965653873893689
Ni 4.7123687583330485 6.570113864498519 8.474752405398517 -0.36936185193685417 -0.3276667861909131 0.6728852081123443
Ni 4.832872400779648 7.272110610560085 10.966551526094943 0.28149003052453453 -0.4015633763700633 -0.431790807796037
Ni 1.6197148278022588 3.1929883537367325 7.3683079250038865 -0.5180266362668304 0.007436401673387194 -0.48547055670768
Ni 5.565885833625508 7.719173263055361 6.514878299278246 -0.09913736702380992 -0.21372937803979322 -0.9082609607773195
Ni 0.9342125585458979 5.326087957635117 8.114810918688747 -0.1888981779287263 1.4400730808640168 -1.5380264548820544
Ni 2.3001840953938615 5.6405249692195065 10.222663646583767 -0.3642713247878243 1.3500122222201782 1.0680894750335994
Ni 0.8496162664236361 3.7610477153851365 9.719276960855693 0.05302360338488288 -1.974622911596851 0.373392313252486
Ni 7.367914401953205 8.052588691268413 2.7590970945075637 -0.9745658546521411 -0.8235569955700204 -1.1680598794816657
Ni 0.39306161467040707 8.730732172508464 2.6904175538607817 -0.8145943870600939 -0.9395168334678078 0.8158832810748465
Ni 5.9891045244446754 0.8656437253294496 6.665935331867911 -1.8820428860755845 1.3575841210301651 1.0668540599646013
Ni 5.744943473258774 8.97346053930181 12.411613753613773 -0.8915210223148194 0.3219617653863358 0.5385610087747563
Ni 5.589841433046491 5.435725526247265 12.655233361737034 -0.9589829126122195 -1.5638812111616291 -1.537669328652952
Ni 6.975265846938833 1.154101703367006 9.252393957072492 0.029100516910382138 -0.2542792744376976 0.21601791696365377
Ni 7.724438843355275 7.035485107153211 8.171085645250892 -0.07222408757273367 -1.6722069295529265 0.45491916628338425
Ni 7.367263181774771 1.1258201413321367 2.456711377482375 0.3210420817855439 0.728607698485629 0.35341252769644943
P 7.936029582474046 5.505043262668915 13.238451268510314 1.8488355460856805 -1.8450789072567255 -0.11880682042827925
P 2.1518268356010792 7.244508178139869 8.683745706319876 -1.0374478388883421 -0.49432440755388407 -0.24781140732516677
P 1.7975723616781236 2.675789288024062 11.761200157886005 -1.3989559991087326 -0.11433901446491276 -0.03242495329792481
P 3.30785429006717 7.76062807898542 12.43190205311563 -0.08521587184671131 2.592564416483464 0.2715357475253001
P 6.369491533813666 9.063589411997143 1.1117128516381645 -0.0898806243122323 -0.7649070471372955 -1.9414983611287404
P 4.461267560674116 4.809716871863599 6.966034335752254 -1.8766726229026065 0.04541622335127017 2.8231126658528085
P 9.200243314868917 8.621429517130938 11.730142537261923 0.36373447844774776 -1.0572355630382306 -0.8145833313165004
P 0.9112254165617012 5.121604821606687 5.796521041705325 0.23029139616353245 -0.4629428079188091 1.0723665051423985
