# total energy = -340875.19448102126 ev
CRYSTAL
PRIMVEC
9.20549964633326 0.00000000000000 0.00000000000000
0.00000000000000 9.20549964633326 0.00000000000000
0.00000000000000 0.00000000000000 13.47317923857165
PRIMCOORD
 96 1
Ni 6.100475320448635 5.026994405970905 3.795367612643733 -0.8326129351247016 0.6309602857437843 -0.008424476618269363
Ni 5.082880993502264 1.690092888223896 10.31743732024768 0.7217580225536473 0.42407904097407606 0.10281301610318423
Ni 3.426406589492587 6.470122153313351 9.5582100658771 1.4776471824630486 -1.0310797305784694 -1.877470950434186
Ni 7.722714471776856 4.1007094286742705 13.045621500629169 -0.9251829333436388 1.790286127786562 1.0694683576589967
Ni 7.289411609793485 5.229174791731279 10.47192033084169 1.5274185974592212 -0.20602403897573554 1.103105843207784
Ni 2.141641050238093 8.428067460809185 8.014399008732855 1.0694259344568358 -1.4379969150612784 0.14113685138404725
Ni 7.273136286658015 2.9031383807880893 10.981327818932458 -0.5899735589187775 -0.7918920603665717 0.0548791685363829
Ni 7.239131171464334 1.2360040083446593 7.290377266692191 -2.032623656481351 0.26094228828016997 -0.5804679334211874
Ni 3.0708994038767856 3.0013334440720625 9.482288629209975 -0.5707131680272687 0.44026310693310633 0.9661503768949361
Ni 3.3785748140333642 6.0387248297287615 1.6844029689761388 -0.6741350213590455 0.02049374907797761 -2.1494859515887494
Ni 3.246613978542997 4.786224566260367 3.5350250398728793 -0.6075079682581151 0.019211025710812075 1.1471393272789148
Ni 7.269684224341386 2.828573834748886 3.448850517850387 0.0390951662292488 -0.3154429904312116 0.29782682001134514
Ni 0.5388337878276689 5.8064884880649315 7.24547191952752 0.27840444962067534 0.25974004044195265 -1.4882378134947016
Ni 1.3019430013420434 3.3163364318394075 6.868841794733749 0.6642658418744495 0.7235451963610571 0.9822521675528051
Ni 2.189178249712963 2.0945273037407297 0.8134145066922059 -0.40401877988909135 0.29177598583157494 -0.12821474400574046
Ni 2.3510661641136332 7.613454398080646 11.069051626522654 -1.2021701909018134 1.214482175499947 1.070492428048137
Ni 2.521542809558078 7.40807049849044 3.299945119410098 0.35192822984143907 -0.20280758892096684 0.9334683132808828
Ni 8.566582611951395 5.129985534500117 3.413564917674724 -0.06638176985934374 1.4818735618395704 0.8139451835118692
Ni 7.351677608485977 1.76811870207924 1.2327931301152177 -0.31911761106932135 0.2196323737877895 -0.3789698073402635
Ni 0.009154869263702174 3.4298310353106833 1.8751160639956432 -0.9401493248454841 -1.4923837173422747 0.02608075624745186
Ni 2.4150812077132153 4.9173845232932765 11.134356360603729 -0.3028965212247686 0.35057120159291233 0.4963854038479709
Ni 2.019410427730866 2.5391621356221563 11.841671041581856 -1.0166039055597977 0.6294543906222192 -0.48875025590021637
Ni 2.8107243711970327 0.7582146494243691 10.509119754365695 0.8999550120147857 -0.8977906573736151 -2.1505473029737288
Ni 0.590345921991394 5.259313597130334 9.384217840169399 -0.1703558961501647 0.08643663162768984 2.253526669451448
P 9.278038847159527 1.7605241649826544 3.4154235080259974 -0.17969722815574857 0.5897473018405843 0.6360132747866594
P 1.667787962908712 0.3732830051715668 12.806377932737554 -1.1274940422441615 0.33961650235362156 0.11659618593020565
P -0.22755994791223505 7.52587327573287 2.8798788451736135 0.7680972719398191 -0.17820136033651246 0.1936881431182019
P 4.28986403262656 0.20315156595878478 8.788163587931226 -0.9196095530209194 0.033148975948142916 0.4515332805302869
P 7.2545135611472364 4.463967644878345 1.8256696439221893 -1.125417619331107 -0.5300573421791195 -0.31525941366549576
P 2.852231968492189 2.061497971495216 5.559949561810843 -0.13458825163225208 -0.03156569062142305 0.1474810484345202
P 2.479215922806441 4.740638932681832 8.342390035760287 -0.08153508056101441 0.6574619315787387 -0.12048755056481184
P 7.155342714915097 6.391893818468765 13.143975819054681 1.0188153113888194 0.6547519888467433 -0.1588684643358554
Ni 5.524165023561682 2.80552326397331 13.5055144479501 0.20251602582247705 -0.9278741070225568 -1.7716122055261425
Ni 4.205744178094926 3.2523029772408028 7.385094492260904 -0.7909196691509733 -0.0014688712360426315 -1.4414787029622915
Ni 5.620601836439051 9.397158010832031 0.2721550697433852 0.871945671286053 1.0631632413765755 0.5924582730138442
Ni 4.637979202135019 3.1092403093401533 4.384414638654123 0.29597356885269027 -0.9957134352640336 0.7437810637919577
Ni 7.717218788568782 0.9206880335939397 9.757990577914953 -0.5595378681367397 0.4736730498521198 0.12074106133651463
Ni 4.655874693184427 0.5766149989207674 6.653271089384657 0.772447835599031 1.4346326265747358 0.15205169852433814
Ni 8.825330792206941 8.722155553687509 12.99920645154469 -0.7794944580331672 -0.504831220622479 -1.1293192683783584
Ni 5.266806873732299 5.847627865379648 12.257803805877284 0.041842389957082775 -0.07796458960093669 -0.4574612159789477
Ni 7.6495399561638155 7.907063804984397 10.709560300718486 0.4244693344339593 -0.11368184049688808 0.7553751963874603
Ni 4.843197402734026 8.630588450051466 11.270328032231044 1.1517757976096616 -1.0320073845990612 -0.8839442384088261
Ni 7.787659270827051 0.34893261786503593 4.549690176874846 1.001350578945153 0.5267799569794283 0.2682457639201187
Ni 6.50338162304664 3.8637966932588466 5.938303876663026 -0.035842206509589886 -1.88389742278582 0.8651988394805229
Ni 2.8170945768586533 5.9106210985335075 6.4494355548122035 0.7626077095801576 0.2546466850794453 0.47386176882415804
Ni 9.33925541890776 6.356968153323983 11.870612211494528 -0.03702568529472978 -0.6047368332708811 -0.38959900491933547
Ni 4.140191816077004 7.812357626015098 13.548763725752739 -1.5390163295991495 -1.9334469515791735 -0.7527323594479747
Ni 1.190280292273459 -0.02686348867303739 3.8555927520946316 -0.6950656008641254 -0.018543310219826126 -0.1452380180366144
Ni 8.742729845094624 8.650048876017747 7.998595007172348 -0.41388435982926136 0.009032799626229606 -0.5481807912527076
Ni 0.5662450037216116 0.7709375702985398 10.817225061349438 -0.38403976566400316 -3.168678700921646 1.7539595254413856
Ni 1.0189751518730228 0.37155697401325194 6.3473088226870775 -0.19462016801416804 1.4401648692468747 -1.3213801603057824
Ni 5.1393567330023275 7.513298563400827 5.321515157326248 0.2221991060737012 -0.8403555551845978 -0.8207290392029221
Ni 8.859022920417248 2.096313170645866 12.911522227602394 0.756991906055277 -1.1900155578171505 -0.6308862379727393
Ni 9.235233274433316 7.582063644748092 5.602376788507148 -1.3836720763664685 0.7562231462100524 -0.37581866330579144
Ni 5.031910142709786 4.356714370075535 10.009925767982399 0.7032108556790793 1.445920026563097 -0.495286000136205
Ni 1.185217267542402 3.5050031443176137 4.460443779665528 -0.05866434661042799 -0.41386636210713246 -1.0464004200959398
P 8.770834235101745 4.549523557333696 5.75155190808311 0.0812939110844858 -0.13139211329245756 -0.270703738542308
P -0.011511477138521438 1.7093784096994675 7.947895718615445 0.5111072834391778 -1.0283728731702677 -1.9680583710054558
P 2.5058106108937572 8.118845526734756 5.547298443832857 0.009093734771152079 -1.0458188365608567 0.35818063850905413
P 6.046172078833171 3.3244648879076313 8.435395958969902 1.525552747895076 -0.6954168135559572 -0.10468040832922618
P 6.882123489428238 0.6893050417347809 12.117359182037568 1.045237253025774 0.5829228227195832 -1.0220901254853496
P 2.2518124683858933 6.333880760550364 12.84468201620288 0.16213890755701107 -0.26587443547446465 1.2786551106334303
P 4.567317787888484 4.920348694135823 5.666185628917685 0.4231644995796067 0.5647137559107243 -1.1868446162883368
P 7.106774499494993 7.964294395444363 6.614993701867915 -0.37362114143384045 0.4656319247151981 -0.08616538024417418
Ni 6.320772129246681 8.464484416874752 8.817737175660307 -1.166839119700687 0.047356377796776504 -1.3517960535934783
Ni 3.285295487488272 0.05313414317756556 1.7574145472478342 -0.20510872625031773 -1.4374258730491567 0.7479791610337054
Ni 4.318971822080383 7.578906158415815 7.371540314780888 -0.49478669190228336 0.17525770432715623 1.967731069573024
Ni 4.918351100741933 3.8756533766290304 1.9679332744652824 0.5925822001862181 -0.4023503910477329 1.091360786856714
Ni 5.725553736364108 6.096737887647164 1.6609197397235453 0.911370710050895 0.9076521235487272 -1.0606674715379152
Ni 3.5665695250472664 4.160839751480205 13.57773067106404 -1.0176858257700667 0.6651474731484545 -1.1749175258334474
Ni 9.126930572686252 6.197326380804 0.8449055999694294 -1.1940349633891887 -0.059979980098057994 0.8939838820330152
Ni 7.389871225957168 8.138407213195658 1.463644964652591 0.17603006371680652 -0.2753628345808741 -0.4752920735127814
Ni 1.5219636451547591 7.938491380314995 0.9175535610104398 0.5906176202606797 -0.8543066180480512 -0.38658001558735355
Ni 3.661248087518033 0.9910732828551432 12.597637708025635 1.0864939456827158 0.3596024585572452 1.2540162290388275
Ni 0.44924126383673735 2.599467362918801 9.692160209811798 1.8242604278494778 1.594084988438519 -0.8570109043530918
Ni 2.5593313850507853 1.476378011576224 7.857369756974097 0.10164496393701206 0.19145848245673477 -0.2375056545237845
Ni 5.909829425575561 0.6664514686487408 2.7857010618762463 0.053297940092192075 -1.1776248974622816 0.9142146072575932
Ni 0.9564606046937352 4.241065679718682 13.352378201934547 0.8207598924408575 0.8091382490415291 -1.304329889691715
Ni 0.22317628904509076 0.6085102136265245 1.5469906366753494 0.1437964004940814 0.3852690100854139 0.595541025704226
Ni 1.26473437231853 5.862365870096779 4.767416810209417 0.13824975964423933 0.02838395045933176 -0.4959205483964105
Ni 8.659410869020446 2.324333393533652 5.6878369637675865 -0.41255587082582496 0.03391182225609644 -0.33307047370498766
Ni 7.6710532085210525 6.314447951082615 8.326262921166945 -0.4804846734573144 0.8171508349333605 -0.05631127299721915
Ni 5.343313780168326 5.4483301185899595 7.682056542086565 0.4733668314656106 -0.14398023437011334 0.44865158810711764
Ni 2.7508425968778942 2.130962670805318 3.1827287324865194 -0.5852283309243081 0.01947070713010195 0.5147330531172232
Ni 4.010062874989328 0.18428029196120865 4.465038244471475 -1.0715730627068256 0.6258432762321932 -1.1934811477682479
Ni 7.149828620708 6.058636325171082 5.633850391335302 0.9606749556026615 0.24484358294609448 1.0088008645756108
Ni 6.946911794986746 7.5540421042365695 3.8579907847172503 -0.11056000703845476 -0.6256879816012514 -1.5998344893277867
Ni 8.179574207008908 3.832405939926293 7.999457562476529 -0.7845124800730489 -0.21069136254441778 -0.4154751013551489
P 5.875179925416109 6.602920689259221 9.87115194230393 -1.721754658574067 0.3635676138525803 -0.07758458055369864
P 6.1298316583892545 1.653289301178867 5.051418437273525 0.03674980592552381 -0.7486067673153752 0.9577120163195959
P 0.7559068306969582 7.869661860471152 9.454520239935002 -0.29089281189567323 -1.5885853987765286 2.8244858920512517
P 9.259904013122831 3.8609521939099434 11.228022318128284 -0.3468323033757704 1.9755443949698555 2.1108996066751198
P 4.0347612301773745 3.443841805566445 11.526964470898765 -0.05916674016814327 -1.5252825249528248 2.0318345849211523
P 4.38121020427434 1.7224502190051056 1.7962580729845035 1.1473272749200047 2.71262002171718 -1.5035705871970297
P 4.701386682766874 7.709440141481975 2.8168782476201444 0.34657879260406765 0.22433517858009752 0.3887898787544788
P 1.9573193335290848 4.097763668830746 1.8366232677903434 2.2246740068858135 0.7224681612467945 1.0999153612949444
