# total energy = -340854.663404138 ev
CRYSTAL
PRIMVEC
9.48935996994251 0.00000000000000 0.00000000000000
0.00000000000000 9.48935996994251 0.00000000000000
0.00000000000000 0.00000000000000 13.88863751521234
PRIMCOORD
 96 1
Ni 7.959342781023107 6.877498840117943 11.755828725256258 -0.7950802282865662 -0.008055780424940966 0.6568896040150364
Ni 3.6264916568608783 7.67718615997795 7.367727702166499 1.0591867732273306 0.9994975848968142 -0.38385104669196474
Ni 0.23463200984187602 8.636370637520308 12.763615805262768 -1.5852419362255925 1.0093739634702616 1.832354517711522
Ni 6.157541120379729 8.774326948704626 11.325863939795832 0.5757432742520084 0.29536473162409776 -0.07106272027478083
Ni 3.387018175704775 3.8696659882963793 4.920604982560666 -1.4899247142788212 -0.2819050065747661 -0.3950618278061196
Ni 8.793039966014812 7.2841938177446774 3.2045947250095406 0.701690819490127 1.1953667948267348 0.13982353188926244
Ni 8.053524675953934 4.4624947562574375 0.5105379896587271 0.709494631805262 -0.16520546229747676 0.20570059419804576
Ni 7.704354196772606 4.687582368122343 6.982289839183042 -1.838987192536691 -0.4540781584393276 0.7838059409243275
Ni 2.25879973399085 5.8686090965153666 6.7267394848388475 1.2335276221671725 -1.535084341534595 0.1464852601801542
Ni 0.4283534921849331 0.12578241163703707 2.941960563656191 0.6927539220118134 -2.24680426312595 0.6195163055729008
Ni 1.6363356957155384 6.414845108394776 1.7970503382462133 -0.17534769293780123 1.227058726613377 -0.11213480772474237
Ni 2.7502631617351736 8.365212184356745 2.598717138537714 -0.39169908198147385 -0.5565008810826286 -0.6586189280013174
Ni 9.435820723388046 6.199047579667128 10.138983225409579 1.3120750808547728 0.9074693181139596 -0.2660654684393482
Ni 5.91937717086095 6.699364580002934 6.666878706037574 -2.072525634882611 0.5030553596689789 0.24738974640671593
Ni 6.582408221814275 0.8785619286736633 9.550812784120716 1.6444125330484776 0.9096588695661106 -1.5639138641717776
Ni 7.007398684924802 5.942502740427341 2.411011910238601 -0.10471177578779385 -0.9451411216331205 0.5335650982220618
Ni 2.4714088378624024 7.750311165754972 9.348344010014713 0.43118942676661226 0.4578155139945728 -0.4818748689366217
Ni 4.746758015153944 1.4015784263257443 7.289728961252299 -0.043382994971325285 -0.12592569086124766 0.0859884883466777
Ni 8.852908336303837 1.406807063515355 13.372021357156212 -0.09007885636596744 0.386538877936773 -0.023052510944089333
Ni 8.596097794992708 9.210922898716955 7.94741180908391 -0.588674894712012 1.1954287584129217 0.6117523453567658
Ni 6.82414017057678 8.661972929965987 3.586295678146774 -0.8226457966096608 1.051049231721861 -0.8164846621042712
Ni 4.375856902280768 0.2756364820016335 9.733754353855065 -1.3509357624757121 0.08794021275640984 -0.66848167972801
Ni 7.917693981340347 7.33816929566574 6.461855396302817 3.733910019898737 -0.6607670846925717 0.14652845471326378
Ni 0.7429836510278514 7.560969971845172 6.941818669037906 0.5620542068006901 0.04075069955480078 1.4223234701900795
P 3.550605247413844 4.432555826433079 7.775303292372536 -3.5417383134250615 -3.150594332616109 -2.0567976826243934
P 0.5882634370138315 5.771295712886588 12.66438177523258 -1.7772663184881263 1.3291083821879754 -2.868676984746169
P 2.4699284977506437 2.166781413069518 2.207098855587664 -0.5879177048310132 -0.4661985958519455 0.37090914181931606
P 4.576632774617939 8.957386186499141 13.403785090849105 1.4733123025331207 -1.5571559766226537 -0.7095594236049263
P 6.27839760540129 5.055190673182825 12.22144503507488 0.643452247563208 -0.817667883779095 -0.580774923138645
P 3.3899598772089115 6.081170753588465 3.976816991116572 1.7651188844923147 -3.0076402255176653 -2.1651563111361547
P 9.252201613371776 5.264336160767248 2.599730602152688 0.330293939401115 -1.316830850372203 -0.6000839078799021
P 6.885166242748079 2.35837158522603 7.366199915256285 0.23733004817786868 -0.9118772173736682 0.27455267997475297
Ni 5.780566817304464 6.775260478809658 13.29498104157078 -0.08664360543217335 1.29670605459787 -0.7494971403401286
Ni 2.8364455264466866 5.682124199872486 12.758171759608176 0.910289046950942 0.4040064385939171 0.5693515117930518
Ni 6.384868221131655 4.363900309070406 10.117010613045617 1.3338207000619804 -0.8575978872048133 0.4869013756169357
Ni 8.435471403507156 6.938316146376045 0.30457618225055444 0.5527838372423577 0.4122565944178513 0.30522079848257117
Ni 7.808424004501207 0.7851401314540674 1.9431314391977623 -0.2191073545222549 -0.6863457044926244 -0.7330688195807762
Ni 6.943772528198234 9.294182540643712 6.244789140184514 -1.1347345258566586 1.8506558871238707 -0.36747363377520587
Ni 2.017542253212883 3.56074937292327 11.975241700026087 0.946106056649551 -0.837358677339803 -0.4899370771194659
Ni 5.145491420000128 4.675625774911982 5.848186096588905 0.7799829676338116 1.0852335909130537 1.595474669697194
Ni 8.088882030161717 4.613517915735936 4.561930909649039 -0.18895371375701006 0.33259764783362716 -0.8308373312815175
Ni 1.1416743537554275 4.743531632859084 0.37712138815047097 -0.35634924172727017 -0.6825129610100956 1.7055083719185336
Ni 0.18192905505534554 2.242231311970777 2.576967526126485 0.74997587974876 2.2163827134112988 -0.5216881442788176
Ni 0.9766069419345991 0.8103059133539717 6.048432462655332 -0.0197823248332498 -1.4966352935297773 0.37972725433157833
Ni 5.600591621409446 4.455937608711119 0.5427543658088687 1.3079446036261666 1.0863990719760643 0.32792698183083524
Ni 7.191435326767466 3.082125048840549 2.500635116773984 0.9672970889048697 0.41522801834134937 0.5836345040746271
Ni 2.108962744473697 2.8179128069706256 6.734086147111436 2.8194128484037186 0.1661518853711461 0.24528838379299692
Ni 7.580612946405052 6.547269122879379 8.720230955915492 -0.6699474656402591 -0.26399804438735824 0.2767049504310654
Ni 7.072694968956944 9.149346443683593 13.50121329573014 0.8122179164081174 -1.6564039010823988 0.8929377001566879
Ni 6.269221394580322 2.7440096736989608 5.407707100591115 0.38573592241950344 -0.39628284469741426 -0.4761454226520122
Ni 5.47444007368044 1.3073585739561553 13.273106169611635 0.6403424982896327 2.041672139836864 -0.4038398311090658
Ni 3.9577652036654265 6.992414985973086 0.9805307921667299 0.9019722995551304 -0.5533355959807696 0.345251846262528
Ni 5.463081310130596 4.086953346495479 3.5356585569649224 -0.9437735518616328 1.2571424333726349 0.37784829214131055
Ni 2.791304642397725 7.526125043060689 5.146656713370153 1.7676506497752331 4.793001148088468 2.4650176450790258
Ni 4.716069425914015 2.5581415854359792 1.7838980857148155 -0.473989552651274 1.0318238078333455 0.043919841311401774
Ni 0.09767492823299606 2.764724945903897 7.677193751465702 -0.9525569544812177 -1.9146164491362314 -0.0038335148134772683
P 0.3377433922417104 2.7177621047943097 5.36818012173521 -0.1437444642102234 0.7249451620323772 -0.7504492198407527
P 0.45057093002891735 8.095704879779376 9.075558131664186 -1.1981780390232848 -0.010957270342452098 1.2730691319052203
P 0.7188047625357863 1.6778231762835556 11.55701240569523 0.654855347193827 1.1694536745053987 1.352575354961664
P 7.091910922330739 6.8621830135770505 4.624165926244942 -0.5187863972509904 -1.966987249428464 -0.2860624803865654
P 0.9360256952170498 8.312005344570634 1.058551358608217 -1.1068959063778354 0.6793353346130623 0.7611192979600893
P 7.092309475437752 2.415734764556694 0.4989030857418822 0.1785533443592925 0.09869179484595907 -1.122564209042712
P 6.515432321116868 8.418513917739762 8.871534051504867 -0.31655062167309356 -1.0610616216525406 0.031186710015449516
P 6.0648585442800425 1.320188188258067 3.2117753234875415 -0.3777637028473042 0.48010594996165706 1.4297359606040665
Ni 1.306561467742131 6.314751342376605 4.2075488741255445 -3.1201815246522067 -1.4285486251641848 0.1828684267948786
Ni 1.633944377073466 4.434178506940199 9.21001381805858 2.34016770378046 0.07855157245265827 -0.18379993747021248
Ni 1.4884250462156103 2.5714456677224296 0.10179331033878734 -1.666544846171143 -0.6856180822979805 0.3536963774854554
Ni 8.250485825695417 1.5860990255126373 4.61130499705605 -0.30072162506063693 -0.9048467928894481 -0.9639885933569269
Ni 4.717796489377735 0.29126166166844436 1.7179413422481957 0.5429629944971939 -2.3716194945318385 0.2233162503972799
Ni 7.889842710647956 2.8169923390806217 9.199528075600288 0.13025440014358858 -0.10355400803426681 0.5177785248117664
Ni 7.2403719546927325 2.1884361318838397 11.467708990581425 2.8420670954681246 0.5761286826158851 1.4332992524752928
Ni 4.948321504345448 5.4194682129918474 8.550289808957487 2.879346291534557 2.4105436824008613 1.110215971890004
Ni 4.108826320582688 3.178261751867672 13.28587030733168 -0.9945991191539323 0.12806947667712784 -1.5322916092808063
Ni 2.131101420632248 4.477298157375028 2.914905450241856 0.5032669614591526 -2.0306019980656322 -0.9020797716672723
Ni 1.6750712619732344 7.507184281117925 11.632483181187808 -0.6046087923334491 -2.4091496302668123 -0.7574405635569214
Ni 4.288981814311829 4.308264193203461 11.115604401383713 -0.2955033140844911 1.0664727653657826 0.9628480519945805
Ni 2.3683069448222587 0.11446635020580177 11.20458897401191 -1.3124329784148234 2.451672591230687 0.11741713916960424
Ni 3.5059103632703486 2.8201617852173366 9.666213836256059 0.05474161451725411 -1.209199586944769 -1.4963455302035005
Ni 0.11131018917265391 4.0967653444157275 11.05799354976512 -2.0868690480884773 -0.8795836474472852 0.07966665989370794
Ni 5.604747960954001 6.5103934711210725 10.597904791966368 0.28090870409976787 0.5628504774497403 0.14776798354731968
Ni 8.850033060317536 0.25964216624285186 10.847997815552404 -0.7625683717017899 -0.9048809885614932 -1.046888929696584
Ni 2.598376470524816 8.562268227695137 13.611711195713266 -1.5183438888514624 -1.4339417711552982 -0.29691304994782414
Ni 4.2736280303321745 1.4030208089987404 4.889675363584591 3.2063281358433033 1.6176440067053819 0.2962432775743092
Ni 3.9232903599088833 8.037639487831596 11.29536513774972 1.1897772165540994 -0.6420689940624362 1.4976053707525305
Ni 3.122473806245675 1.208650254452835 0.16882994293821582 1.1788867948938406 -0.49710274162996965 0.6446190141777994
Ni 2.6986600237368026 0.3798087748148952 4.20511864910874 -3.1495527787254725 -0.5640380699999382 -0.5924348759750765
Ni 0.38433709725932746 4.583920602860445 6.349120854240581 0.6435617765578787 1.8208640005734187 -0.9125138225164026
Ni 1.2904675137065964 1.5823697071541674 9.454398042854654 0.0441268151158853 -0.0384323358342693 -0.5347125815629437
P 0.5990746645095181 8.301586027630178 5.0668663813463395 -0.512933023794007 0.7644118526684318 -2.7899127820620726
P 5.3651511181219185 1.884102877241369 11.026689101081262 -4.058317675722404 0.36404018261362464 -0.3621889883374988
P 6.291948411039701 7.61266800344045 1.3425811792563305 0.04755203874735036 1.199147602025406 0.18165383766148716
P 2.6169471474396397 0.8048163187728652 7.744637477595865 0.3302633432734957 0.18135044748845544 0.46012025086834957
P 9.141470275140257 4.5838636667023005 8.69678654386349 -1.95436313290655 0.9780718109228703 0.15831670559744349
P 3.4309444217133187 4.603335832787747 0.8111751387016457 -0.6291173189977746 1.3104218615220657 1.0929828958411694
P 3.095362705609164 6.1382018053299525 10.545572871143746 0.9714573909301463 -1.6534054805757072 0.15597982993415072
P 4.839212846621051 8.982675330075025 5.866380045924006 -1.069582257529042 -0.2993882509611941 0.38617712372198004
