# total energy = -340892.5804688785 ev
CRYSTAL
PRIMVEC
9.03101564402038 0.00000000000000 0.00000000000000

0.00000000000000 9.03101564402038 0.00000000000000

0.00000000000000 0.00000000000000 13.21780426407746

PRIMCOORD
 96 1
Ni 6.396957269470055 1.843781155012446 11.483932326250963 0.2209806602855678 -0.2676001599163198 -0.10855660345518078
Ni 4.677009398961165 0.38716505299286624 5.839917008763594 -0.4149896770782982 0.08026752670250048 0.4145816430066021
Ni 2.432224062807279 1.371630633780645 4.826018445367477 0.9069777231895219 -0.11327457775614042 -0.27402971759174743
Ni 3.397910549969278 4.022576860925121 4.658469627246072 -0.34664281307278366 0.7128257530610239 0.28697136535407997
Ni 4.7982056269394135 4.655949070820683 2.7253130273612927 1.1000760552425248 -0.230692488256693 -0.10000434300979551
Ni 7.245159276023333 6.042896306885316 2.653752163659591 0.12690245295222016 -0.05083559459462858 0.4120876729401548
Ni 5.084768779694837 4.617973650653132 11.72395414063933 -0.7176098047132287 0.022344172023155067 -0.016226746271507535
Ni 5.658003457391653 7.706291958348021 12.282657914400454 -1.2273672589927314 1.586454725586771 1.6412408201887154
Ni 1.744421922507477 6.466125817166434 0.49385024526951565 0.5947712374177371 0.0671962953408391 -0.48875025590021637
Ni 2.7653872555304932 1.5897386890640028 0.30240987564912136 -0.4288543508755324 -0.6013612319304289 0.1313985410503608
Ni 0.4557357474633013 -0.11864045059241726 4.7305199719877455 1.013595714861093 0.16193553329695337 -0.11433541492048696
Ni 8.483293438717954 2.34042379027383 1.2185756924313942 0.7306481259544255 0.22671679143839663 0.4756957367091033
Ni 6.814253402569227 0.6203549041572727 4.715292776757186 0.5823906043651971 0.703856202572562 -0.40903731614960526
Ni 1.051074738692128 7.382493928695853 2.727811006247938 -0.6242792741791829 0.1147179950708863 0.25224116096174626
Ni 7.4182838431129765 3.867514324830746 3.8887308895393375 1.2863799900815136 0.2507643193059036 0.40430314389872946
Ni 7.22651022902072 3.8045862088432325 12.775919337459525 1.196795042632829 0.2079629078696612 -0.7959878277025001
Ni 8.071235294607408 8.925867384195003 6.767237935888545 -1.2273420621817508 -0.3914080331036162 0.08190351964402669
Ni 6.92451307077984 0.6588938596918757 0.5866692163510979 -0.9325823111315036 -0.34084086167902594 -1.9946960281976422
Ni 1.8431038288501234 6.586744060152832 9.121751916541784 1.0770554259776353 0.36324262641299376 -0.5457791237897504
Ni -0.023103143846047187 4.804987919578137 1.23832471712162 0.09613097609731831 0.3438392821857175 0.26808095620748024
Ni 6.5414173933702076 1.9218000978965055 6.961090489748357 -0.3198691445233652 -0.0994376718730481 0.6019525856575246
Ni 3.4415393858383476 4.33079638884387 0.3154380186060081 -0.6795019420979136 0.6672344375844702 0.2930522814408373
Ni 5.939716954824847 5.686577590426168 5.006402142714118 -0.38054769335034466 -0.611962661595359 -0.38738965597284253
Ni 5.203336982163273 2.9329306550425986 9.54899119770385 0.6045419436512556 -0.7779512819157635 0.171876189449433
P 0.12424238950559961 5.8867500489312246 12.300449014930795 0.05851213730327987 -1.0501971681342106 0.5445449942723332
P 3.871885336331601 6.393868662169864 12.543299343373018 0.5958860677484705 -1.785124123969648 0.8815775379488623
P 2.37309800434427 8.51816218955432 1.4273908327676865 0.6203393156948284 0.08846214669815088 0.14490557439786012
P 6.269719292123891 7.793531568055165 5.694229569857313 0.9314422839897892 -0.6265865821561208 0.9241076980015891
P 4.759318074206602 0.6919853066783062 12.66039639341689 0.3335628399603739 1.8976168292544418 -0.9003743589403913
P 4.1066285221616 5.964624495567323 8.202215724775794 -1.2072774302213918 2.944704762335709 -1.1764959260641608
P 4.460924291149278 1.3828471550287067 3.8192444500974423 0.3975563120931992 -0.3304852294763147 -0.699963295276059
P 0.15811682553567483 5.455482934857213 3.455635897928605 0.9242061712526665 -0.328538390162589 1.0375640527512324
Ni 1.365959156048131 1.103996489508263 2.5262531899655443 0.5062841510189215 0.47266672007479243 -0.3828125781251213
Ni 1.7599823622099005 6.373729497610141 4.928694769864727 1.3120704528690823 -0.03666058864582719 -1.7915706509259404
Ni 5.703185627926318 5.337772678861052 9.411724277647563 0.773035589781701 1.717909573796364 0.23547808257079444
Ni 8.883439673387118 2.305717597716423 9.989593672497767 -0.6035808652895669 0.372906631865319 1.2979021317885002
Ni 2.2660082225733267 5.22098358644565 6.9786440745711085 0.9871416344346227 -0.1048884105749742 0.08198862315866526
Ni 0.315571677635373 -0.23093841900084622 8.844006647318249 0.33000134786136076 0.8605693111283114 0.4682148549510259
Ni 1.6256550376980932 1.0883908947283514 11.303046504442653 -0.27704150783487774 1.2253682262848316 -0.3533065982462045
Ni 4.109626819306815 7.019492260768456 1.7144949433514176 0.08969473355367133 -0.25592452335060445 -0.9958887844996334
Ni 6.06188853247684 7.698272416586122 7.840246301919777 -1.3389243398371329 -0.11416623633247436 0.35141658031234313
Ni 5.428715004922226 2.8738136275950867 5.023743498672674 -0.23796279666586112 -0.09654543792691761 -0.38476918763085993
Ni 0.7379369197333672 7.350659599066693 6.771031865499101 -0.0314607896124426 -0.17663812961445063 1.236007965386865
Ni 5.133545294397558 4.293760194288073 7.274669925364952 1.0671541077035234 0.44406576850864815 -0.8742614639034234
Ni 8.013048461756153 7.068873853509519 9.347063109786053 0.2682833020262735 -1.1808423759583146 -0.3543664069692865
Ni 4.331645304300648 0.388280383406824 10.322761380728728 0.9457658997013132 1.326100191489271 0.7593004995837955
Ni 8.235328846199417 6.995234953141812 4.850021981458638 -0.7123603833888312 -0.5235820188674208 -0.4897604423322855
Ni 7.410824224311931 5.913788909331141 7.091563376845774 -0.6228386850779144 1.6865369730223534 -1.6133006421350216
Ni 2.3058259699023944 5.077589122374218 2.578344087355897 -0.5755980069233957 0.019266047318463594 -0.1558420188047058
Ni 2.380187351509912 5.464522981370344 11.293846608955215 0.1001876626651952 -0.6982126311335395 0.3997756883420212
Ni 1.1125940162620105 3.2176785736829974 3.8788039973043382 -0.7175079890280418 0.9272873812811513 -0.7444377235393502
Ni 3.5919961040289294 2.675772488747472 2.2595971046715557 -0.9430145622084211 0.4108334888180796 1.1336358934758413
Ni 1.1910554789054542 3.348402523011249 8.197007538138308 -1.2365090733929993 -0.016965424209744978 -0.8142303188524557
Ni 3.76902206981355 2.527329687012862 6.843187873122097 -1.0206431086261778 -0.032765624466795186 -0.6768989572574278
Ni 4.006790645835257 7.004265968639445 6.027623053475717 2.420669972201586 -2.358192422492655 0.2762264681327501
Ni 0.8832622149181933 7.543787865483595 11.166453298142489 0.4286234658116489 -0.17818876193102215 0.19636723261226183
P 0.28282792474560164 5.533836025314685 8.044104317849417 0.4083834846156902 0.27952827881247344 -0.002922830073749805
P 8.444721971527558 1.6884747814996348 8.00302313145223 0.37912510197120514 -0.26931251462173617 0.08552131890227206
P 1.9060590378841298 3.434161046176781 10.332185245400511 -0.5563792679030999 -0.5486006523989454 1.078422481528491
P 3.9061219160831313 6.253779549770567 3.871944037932336 -0.3981810901613917 -1.0119908322678184 0.18613347069939556
P 6.878996752671766 3.9588630465893138 10.588108871877111 0.9306573261946489 -0.5777906436993404 -0.16229445929826888
P 6.172103045609965 7.72408305887836 10.151974040449876 0.37784572103814923 0.3194757657396885 0.185690469624706
P 2.5561566884813103 8.326253110229596 5.940715785138885 -2.9498217718473003 2.6768942861807963 -0.5995442333263481
P 6.82611112591762 4.035572492226216 1.7243811960166777 -0.05887054908396313 -0.8520005956226939 0.24954175975271214
Ni 5.277499681429842 2.7888498337933467 0.44379403567077996 -0.25088233294100665 -0.5259844576613264 0.030856066148908148
Ni 1.3230166773568814 0.9168286933197991 6.9512963534411725 0.8788506259360026 0.43906960084563734 0.504205671223338
Ni 6.780341939375612 0.5601812478965376 9.212901955959403 0.0534249525883596 0.8779589673596685 -0.059852453381258205
Ni 2.945528921661798 1.857914694266243 9.119597116244048 -1.091876550150868 -1.0082876723846184 0.02775325885386833
Ni 6.403595065860816 2.0758872843171363 2.6474205186942 -0.15221316380286687 -0.3719005591983079 0.16945729559529524
Ni 4.124853111435826 7.161342421189793 10.348087057488746 -1.0173958053334737 -1.8646342036808337 -0.4548867703835521
Ni 8.186949696178594 7.2048448228418955 0.5386783999966711 0.04524421654978014 0.10808609157666547 -0.4338155515355496
Ni 7.61472649221751 4.190942082847511 8.417877277960843 0.3808510835233763 -2.595792950723091 1.3429920821486032
Ni 2.9421693838966783 8.314232828602245 12.45894333691427 1.0026870383683892 0.4733228656015526 -0.601957213643215
Ni 0.2293327044453669 5.033743542133204 10.26875319874823 -1.0349744376471854 -0.7711008346528332 -0.22361758368778262
Ni 8.69824063857714 2.3147576442295543 5.772479706738113 -0.06780538967974774 0.18275144160104012 0.3415864815957988
Ni 3.6167320554769486 2.6922721540616488 11.577580344555228 0.2264691942039648 -0.15457009407081765 -0.45301937815751014
Ni 0.7485781652942293 3.5843739269489268 12.368850829411421 0.4608625283510127 -0.29497032439915655 -0.43353530129096945
Ni 3.528869305700468 8.481839445222834 8.032036171839929 -0.28689963157588005 -0.3049312922666103 0.22697441597515747
Ni 5.695455078660342 7.7617333624879965 3.5933390160334273 -0.5265009922864288 0.02566603730753644 0.23189370765364578
Ni 3.351753029760871 8.434300179643289 3.5308452918913504 -1.2461746215072216 0.3192538795368695 0.9245242167137174
Ni 3.3682165710130576 4.214142761660932 8.969363464136258 -0.5631361270109592 0.10027636572425956 0.7810121802292742
Ni 7.0635997404589 6.183870458803382 11.524352442313724 1.6325836587343494 -1.8723439136202658 -0.40202591782877856
Ni 0.7868434810592542 -0.015397881423465893 0.0252615565499817 -1.3053051091207906 -0.03239487139093776 0.7839789761670821
Ni 4.671789472003534 0.5931778692202427 1.621586565216409 -0.11841344164460253 -1.278199254042934 0.7272612117600636
Ni 5.907981966366162 5.595815884674947 0.6461628371448611 -0.6806653662783955 1.3851872274594144 -0.9099393769210071
Ni 8.016146100071841 8.75697836337375 11.376260043980423 -1.2832787254483706 0.2542278523744718 -0.08777823325724883
Ni 0.1763621861455447 4.717332883158102 5.867819234245085 -0.6785753165185862 -0.019063701499670394 -0.5468134785915356
Ni 8.186723920791152 8.957810086010134 2.391894256899495 -0.03953328220793192 -0.6574737586532806 0.8382747613961692
P 8.570424676239126 1.5942632278283173 3.7236935968278257 -0.6969764447335932 0.5145780155965977 -0.8459991266236203
P 1.5851148091292142 3.2193764045965527 1.2376943522398853 0.7504417636415851 0.04313025553057088 0.8297322711427968
P 4.8444715193337915 1.2562142557208833 8.172938075634013 0.5917455632175357 -1.0475090797790862 0.4322039840740557
P 8.55891916249514 1.5938748941619192 12.3143540694925 -0.3651141324040938 0.4044867206644453 -0.011834530741082845
P 6.393534514596452 7.792429784164454 1.600570489051865 -0.535253284557762 0.10489149589876773 -1.1330561097129712
P 1.8387508793802638 3.140806569767137 6.017286153137125 -0.27652214499629796 0.1782936629400026 0.014227713563607754
P 6.975800207790903 3.900775554908532 6.136564193423675 0.9288392991493036 1.1305557118886207 -0.2660940076844385
P 2.1974266908842943 8.701247966737851 9.832645460367484 1.3293791193508588 -0.28256552297690046 -0.12458434634200478
