# total energy = -340870.2916001361 ev
CRYSTAL
PRIMVEC
9.28269552236277 0.00000000000000 0.00000000000000
0.00000000000000 9.28269552236277 0.00000000000000
0.00000000000000 0.00000000000000 13.58616320621988
PRIMCOORD
 96 1
Ni 7.3565360672446936 9.08411065130363 12.444530841613778 1.7756724916384452 0.8521738879757645 -0.6837825717511384
Ni 5.538362376540571 4.5932633145665855 0.08180839414590219 -0.2888140749897736 0.7252161563055768 0.2975447699945521
Ni 2.528513387200987 6.917993690683379 11.505876755023372 -0.8264803398644025 -0.06577164707917059 0.6826811111568436
Ni 8.385949851109888 5.340910163687119 3.855997303659302 0.7200495245029729 0.20907748109007862 0.6355610177405894
Ni 9.322146808240358 0.44183680514208984 7.540823561548536 -2.0203926616327976 1.0153682333804837 -1.2156324870543065
Ni 4.308971486685909 0.7170585113933595 3.9465082246986323 -1.3320317264823576 0.3126566859353261 1.5344531357084994
Ni 5.648733624287625 1.0956736632948394 13.399733189209957 -0.44390327478885483 2.0723361445796242 1.0329635778647437
Ni 0.24144754747895028 4.587730828136204 1.671369720235653 0.45172842726022844 -0.5168238742079809 0.4190137106360267
Ni 0.4360332640074004 6.3329518160611755 6.284863741054545 1.0345404354335601 0.2934081221183592 -0.23486256047398263
Ni 7.448592557060297 3.5145212875956005 2.861952445628069 -1.3063158097734924 -0.9566573498028363 -0.4845233623030623
Ni 3.4853829068825646 9.17609287955641 8.052640750417748 0.19135178167554143 -1.630250896836115 -0.3450309885009735
Ni 5.253522869634069 8.457008884037029 12.317949222971798 -0.9769839771753303 -3.142521582910304 0.2923110323994385
Ni 0.23760543987234767 0.7511325012255804 12.128639790481987 -0.36281350929537515 -0.9895253041754506 -0.30160428477590634
Ni 4.495154507380833 3.7021431260702373 2.2249376879940086 2.7273023063197033 -0.6926143111101556 0.6006145835723914
Ni 7.181009580815003 7.2285741118037246 3.393171396054566 -2.922584276287586 -0.08490322570229894 -0.632429156979827
Ni 0.08278122061889555 7.419797636075321 12.558682002908569 0.07771313571176294 -0.46528508289874054 -0.46454074853354826
Ni 7.678172178530449 9.386383060083048 2.70389135050503 2.0778218502845442 0.6920062452125114 -2.2051840164820025
Ni 2.071266379503398 1.5174793401347118 6.5678095781090375 0.9298363729552503 -0.02938102426527843 -0.05208129407627159
Ni 1.5458194090473907 4.350994248548896 10.852464116048253 0.3118133640984243 -0.39859786598383606 -0.5027910502639986
Ni 5.634438273444021 2.6211546868238287 4.914495628604486 -1.2108417505338824 0.526429515618545 -1.4893919817038026
Ni 7.394455877761658 6.638482450909493 6.015436293242612 -0.2603776740259516 -0.05349308682213368 0.2972372660564623
Ni 6.700685792469881 3.258643790190427 8.886722489048113 0.8556752162608038 -1.3642147389728054 -0.20866379059142773
Ni 1.1014753478904582 8.917384160068575 2.173935774916075 -0.5922597838497928 1.1725762792947807 0.9874828198241252
Ni 8.22986132874936 4.529649003312544 10.774438420258697 -1.0653299100105909 -0.3070984751212582 -0.602595361447846
P 2.1431144415355416 9.041809408580054 11.17002698061312 0.20727230956053982 1.456864955610375 1.9750983085713727
P 3.522207359347876 4.030425647228734 4.715254640356512 1.8744162227682624 -1.4182850384546477 -1.330982716392553
P 6.785548193386917 3.2064286288298574 12.59088181654902 0.6263798654619535 -0.3358236109700926 0.30505393388740365
P 3.7542376123912184 8.699426473180367 0.5152146553684064 1.3408323554931232 -0.8399014983663147 0.7374754332889041
P 6.910316901626457 5.595014666279871 1.9189642685773534 0.0913420393491072 -0.26071628831229293 -0.724986556793274
P 9.642399797918518 6.061572217416509 10.771557999890664 0.03593605177497682 2.08653480467751 -0.39663122917576854
P 5.980525004289552 1.7008311387469732 2.4376840697110485 -0.1919801592881597 0.19352590650872478 0.18037471383874742
P 1.9587972426065694 1.1117698570369243 3.9537635793865293 -0.16723663379489262 -0.9760840910688803 0.21246182418127926
Ni 5.423581848500849 8.818393496824289 1.864986323369251 0.02041327354902936 0.4254322125678609 0.38234926533545766
Ni 5.703984227028622 0.7124784295061941 8.67208893536581 -0.07519422594465114 0.8162589192467102 0.31506503826650256
Ni 0.12017006096166928 2.9922768470363748 6.981996946872711 -0.5400864442803472 0.3907562584522303 0.8139582961379918
Ni 5.492765776966685 7.301164789464107 8.281241975797695 -0.7077172281898649 0.3826773380988377 -0.32645373971941843
Ni 7.5804996580262864 1.7285399843756486 11.064000034291265 -1.7729340096613595 0.8414025083918735 0.06781438854081225
Ni 5.625944607196034 5.1225069074219665 3.7897374242296586 0.12878475757659755 0.19987498865520417 0.4909200098580255
Ni 1.814869051158457 7.878604136592212 9.475125627657635 -1.3140401750009434 -1.3959359813354861 -0.8620662073888122
Ni 6.8371878276356 1.6343763227149166 6.735598009692477 1.318404108396594 -0.5548188653945154 -0.014160093550465935
Ni 9.103242286426143 7.981864839698875 4.154146339162922 1.9684075268147585 -0.04894866198456086 0.42847459893861045
Ni 7.159260225602948 6.832073062496103 11.397391750972046 -0.30252062594258866 -0.374114279020175 -0.11774598326393268
Ni 6.38214081873667 0.40394112963304285 4.445881960447161 2.0753795593916387 0.6359214864038015 0.14788008364515176
Ni 5.729585900812169 4.593356141520116 10.565551783269429 -1.2941161823835068 -0.10103278427430988 2.133019321392294
Ni 3.657391251773472 4.304775708386358 12.156599268885195 -0.3195770672042431 0.7707912738322145 -0.477884516830306
Ni 9.695032680569971 2.351130361700698 10.331692839241548 -0.1837621422537416 0.8098697278909149 -1.9248653805577494
Ni 2.044931372786965 1.062980010261608 9.438674339545514 0.3528543412001342 0.060723543132301876 -0.3228624228237343
Ni 2.1209380823372483 2.1487861683962186 11.974762406154541 0.2202684647098916 0.8256485879917265 -0.14881313698238244
Ni 6.976548932970042 5.688398581530952 9.028508234408756 0.7701184161349061 0.6739036220745297 -1.013233446425668
Ni 1.0859453985649057 4.9737238663042405 8.508062780208938 -0.44524590485967835 0.5682420807789569 0.08043644818019695
Ni 5.0165913534443485 3.193247201428611 7.182298018929998 -1.2346056857226995 -0.9080588720688426 -0.29920621685737503
Ni 4.261434803783247 8.500990294619495 10.104395832558696 -0.01442003208007194 -0.6910703636618034 0.4552109864921902
Ni 3.1345248706255955 1.394827086435653 2.1703758612482034 -0.7726033873402888 -0.24522564887586154 -1.327627426767075
Ni 7.069654367360533 7.477090431793976 0.42537580147263243 -0.053670235829946275 -1.1399212122639206 1.1734214009038952
Ni 3.4323972818076967 3.9806796828320596 9.618854241155658 0.4210011733797008 -1.7380073729875034 -1.0033388130197753
Ni 4.4564085369774515 6.496819237127511 1.8863300247943813 0.7064491601107188 -0.7440533436167379 -0.6587654808815107
P 1.2058778225255382 6.218644705484455 3.544303887366134 -1.2889701194061929 0.2833293977261185 -0.7801871132248176
P 8.366938891026965 5.027285018490993 7.504901387071534 -0.11280020922288314 0.5540688746023683 -0.2669352726388113
P 7.950730679484946 8.716395240285632 5.866070298856719 0.3922981490180534 0.9283366484812722 0.5182582926616623
P 4.8551467158651445 5.066597233310907 8.084935247550801 0.08537810845618844 1.6917300871875187 1.5375505436869004
P 1.2753587972426697 2.910681954883591 0.3140307989830508 -0.4690761745100567 -0.3122118850884236 1.6130342758475125
P 4.623524901417334 6.301752676979776 11.793087990592563 1.0376244736755227 -0.46292660996889307 -0.6981354980387009
P 4.823056438029857 2.4430940245627712 9.975585438762463 1.1092464088878833 -0.811231641235448 0.42847048517355235
P 4.408259196181492 0.8832428932198009 6.53410225474326 1.4924176559040039 1.5622781283405676 -1.8795509728916662
Ni 4.904734874440817 5.834341117870663 6.093488908848695 0.3753262970504052 0.44576835302205164 -0.021598552106382157
Ni 1.950628470695938 0.276284574869187 0.03092901264662788 -0.06331598644982644 0.7293209225025697 -0.5172349936034705
Ni 3.478402319977116 6.14592407008913 9.658009578424107 1.6711733460820895 0.8845965272808443 -1.2395735712509364
Ni 6.865221567601631 4.344514927192509 5.9307409808419305 0.80203403389658 -0.7002391746452651 0.500284738902377
Ni 5.770541152709561 8.42345194033597 6.122902985613714 -1.6045969437134366 -0.9030858443342835 1.1408833190668737
Ni 1.1429875615090301 5.037236067909399 12.984540504539556 0.36094894528281063 0.46211054182550093 0.9638322702847205
Ni -0.0016291130344497713 1.2377453156723537 5.014924181358951 -0.2610621016874859 -0.7264076055105166 -0.09040461513650237
Ni 7.707607605494781 1.8417331715100105 0.9105108108192095 0.1204096461390249 0.10016220874389847 -0.7065149803516477
Ni 0.22067101873988773 2.4052670409993366 2.6103505577024833 1.1287453981527593 -1.2019531897950009 0.22424313308692348
Ni 2.3657691722723633 3.813646862650355 2.7150992768742297 -1.5551168347054378 0.4355826707383014 0.7678054517310132
Ni 9.11465071901497 3.177726534798412 12.36419653948993 -0.9776457791290454 -0.6142846248603162 1.8562166690411
Ni 4.086400300207265 1.0088062001815574 11.567136974735895 -0.29854338646239553 1.5221154400787529 -0.2609944816743441
Ni 2.806409437983453 8.505056115184106 5.657210581683975 0.08296075726394744 0.10906953853585732 -0.6030509609280259
Ni 1.004573291100594 4.455433853965388 5.028945692689644 0.6917180245481312 -0.1640916604080077 -1.7165247776336954
Ni 8.436002144453212 8.96818835173549 9.892981517624811 2.087021771616257 0.1291241431938873 1.2349121612195246
Ni 3.158576334285193 8.198225902986369 2.906664404334817 0.010948014371071468 -0.5690967154697683 0.5946493671278921
Ni 3.4363145792466585 2.84725329753661 0.3826911834309778 -0.19323100097612528 -0.5756298886025958 -1.0146876623736911
Ni 2.547264431814027 4.067018032310221 6.571722234200323 0.7660290765568807 0.11276729910241867 1.507655813009997
Ni 8.833524290249663 7.38005841726917 8.251257013268466 -0.06126270346522352 -0.9284150671276914 -0.0965040431660209
Ni 3.01728442831733 6.079840561871193 4.703230765065784 -0.5611077837270207 1.1122720830880846 -0.5358909181417609
Ni 7.983368636346059 5.10364447046469 13.536804253600817 -0.7226249985396329 0.18102623137981724 -0.2934243200682753
Ni 2.218944779874118 7.007924443263148 0.09865834275064991 0.8650546005931746 0.6290237308427039 2.904977104728784
Ni 2.7124871264018986 6.451900274314392 7.297657787159747 0.5962624772512828 0.8046244203315756 0.06940101630164176
Ni 9.277998309141536 6.92706288404325 1.522872586134799 -0.3178762824630525 -0.06283493304834985 0.7035381571115109
P 8.257486630119859 1.5356455749405133 8.949069712386471 -1.6944402870298303 2.042590280775759 -0.5576581346155235
P 6.527201499017847 8.426552360583868 9.989878004797463 -2.2570678498354875 -1.6117926901309272 0.296057129705432
P 1.533297053016207 8.429921978997003 7.4438314626137485 1.4903450896456913 -2.3073357448521037 -1.0917821906648488
P 4.9736774528274745 7.244085495738571 4.068009424173921 -0.3549765297494596 0.7582607454653716 0.32164269148402025
P 8.962683713391167 8.993381586923507 0.5018847048415125 -0.9617897859333951 0.38492833891654354 0.6112985456487987
P 1.9622596879732346 2.9884616592462954 8.418407723681154 -0.7168762689813137 -0.764104091620026 -0.1444936836714221
P 8.526155681721452 3.255608348809999 4.992575164027093 -1.2875372436144084 0.17588171106440031 -1.5160550928172858
P 3.148551023303964 5.022318776477143 0.8192591306907104 0.28105011477363856 0.13613194197028816 -0.06965015619797037
