# total energy = -340865.2829020704 ev
CRYSTAL
PRIMVEC
9.26906111250528 0.00000000000000 0.00000000000000
0.00000000000000 9.26906111250528 0.00000000000000
0.00000000000000 0.00000000000000 13.56620786920842
PRIMCOORD
 96 1
Ni 7.931062863050806 3.3392256073791566 12.182766360139942 0.6459881266111842 -1.8989777141577102 -0.49199370253817853
Ni 7.688111502500598 5.895530699698459 1.2835434320967003 -1.7078200507708459 -1.996945486353451 0.9010798696478483
Ni 2.234483290850331 4.4316400726420335 9.845200913865748 0.19281731047747439 0.8048414214383881 -1.4734899657615657
Ni 6.848955593733594 3.4473862813809255 5.017109194290242 0.656083048953341 -0.8499776516553942 1.0530554635186122
Ni 1.4021679491767622 6.834709046819486 7.4150857462981365 -1.4437857538289136 -0.40527013579768906 0.5363676006678634
Ni 5.062872402764109 5.2152743054067585 5.226992252452182 0.22393537203851757 -0.6021955549062662 -0.6583157949386017
Ni 0.7907436026301254 0.3551450030375515 2.7383800402684795 0.163378436391067 -0.7540423365086497 -0.9706359234701153
Ni 3.101983988467915 1.6752808345535841 6.391053779316865 1.8653597689929489 0.14598775171844536 -0.0582020622620288
Ni 1.760491313266264 8.338883013426145 12.695161911682716 0.2803541171478785 -1.4909086754586451 -0.6435319517612078
Ni 4.485113286140723 3.227783685747202 8.710970933252439 -1.2516374443940057 -0.02392720023955879 0.9202186473598282
Ni 5.960071172153195 1.9331924597227697 6.915917144948229 -1.011014584397478 1.2600284966711783 0.47432996670982824
Ni 6.465652109973616 8.513178438392233 10.610348004262102 -0.16573099578364361 2.494378871849962 1.1619046585135473
Ni 6.494441813757103 3.1578764269142825 9.101636832245907 3.019491982649929 1.806573809202992 -0.7421815805153218
Ni 1.354460091683652 6.9347036779902025 2.6059464759583353 -1.1396833852215018 -0.08181121704053651 -0.4145577317472022
Ni 8.178361413257953 7.424323292592606 3.1186673715457944 0.7340136999925487 -0.013043463447519471 0.5533705629837631
Ni 1.5713839286588343 1.9042915272060572 4.402274760164101 -0.9416583052908427 0.96926552548515 0.8201274010631813
Ni 3.3045037044902523 6.6403646426893035 3.761380360749075 0.699325404581744 -0.9342352733538943 1.3498651551193526
Ni 6.360976602946281 0.6947745246961021 4.922335825238405 0.5897961528006487 0.10502802147663201 -1.3693129794313192
Ni 4.286115813337228 8.72322463202957 12.010191272914426 0.8792869421424727 -0.46972820627175876 0.4463522505499796
Ni 3.191560194959739 6.107504858045057 6.4557508989042285 1.0515184580487953 -1.2043481723897387 -1.5204192833232524
Ni 6.532732305170361 7.232963526137338 5.18349903704225 0.72075966319612 1.1947049928730198 1.1017886670582573
Ni 9.189096912088095 2.802380126460957 2.147693364125833 0.2422742795570214 -2.5147898314061465 -0.23887579539843376
Ni 0.0414910982118536 7.129437382686677 0.5682991128624625 0.7704536879871376 1.644435930087245 -0.2388331150859564
Ni 3.032744102034354 0.026600351551142116 4.267955868825765 1.8345777506150855 0.2854790970792696 -0.5392498073116648
P 8.522642149777596 2.199214513356395 4.238680466240523 0.16615265670209448 0.9716689927203201 -0.28773781120645925
P 5.062446025953407 1.5401193855610569 12.133493885132777 -0.31141381466716045 0.1099560549058687 0.3639653635116312
P 6.585992330263699 4.619106833434371 7.0562053116363925 -0.9810095533949557 -0.5980254826889765 0.601269443547571
P 8.734412388779946 1.0511115289913988 11.842892135268293 0.0638497474661094 1.1400523385251464 0.3071007891141034
P 6.928771478884783 5.741970164418031 3.678762438426685 -1.5693818292648845 -0.5340597784702932 -0.7976055658115813
P 2.8809168811800405 7.122504124982219 11.259341709268243 -0.5116610990601188 -0.5318216331683938 -0.6149531116822506
P 1.9845801344734602 6.326922072456736 0.49430419808346476 0.6214729150786394 -0.2257240885078242 0.28488208692521905
P 2.5093387597143693 0.3846521321503489 0.7913127229818016 2.1234501896466202 1.483292296563968 0.09004980290024492
Ni 7.199956399552344 6.476914019212811 10.284420008724847 0.018759539995690272 -2.4889407315535266 0.6555744847480387
Ni 3.7971728401952856 8.052153877290166 7.461142784008943 -2.452362161098544 1.8584147051336835 1.604469931217269
Ni 1.0541888572773348 5.234655912171495 11.653915444422406 -0.3958449858290473 -0.01251895840261715 1.3627088438512402
Ni 2.976378941471773 1.8681607270296159 2.4187874479945912 1.018870075886155 -0.39591980493104073 0.9567290835810363
Ni 1.638065554228183 9.122294788724417 6.291288093955374 0.14930524612745255 -0.9085190995347128 0.004601760438069494
Ni 0.9106046124612232 1.8044452010129768 7.170988729795695 0.055935377715039154 0.5631770075512237 1.324226628615642
Ni 0.6586029406508108 0.7138391295711419 0.3058660396876153 -4.165187121283149 0.9164131575708089 -0.8085834049793236
Ni 5.432364985481781 7.945392831514833 3.267136411562775 -0.3545726094428216 -0.13755659023195665 -0.7793664170957352
Ni 8.677704272956582 4.605425699247499 3.2958287902046868 -1.0772577717964287 0.4413630248655044 0.4612348240887669
Ni 5.396929364888006 0.007549650267755681 1.1168106340839123 0.08996264250307733 -0.2796511775435829 0.2603074829096485
Ni 8.648997990723018 1.4851909294693195 9.093130614872402 -0.42265953491873015 0.6479550205295679 0.37219700739280415
Ni 8.012167147695203 5.4748821687576505 5.6741206371498025 0.899947812925934 0.3459308746074236 -0.7918154414923654
Ni 6.846591983152528 1.93269193042325 2.3338485527722064 1.2453829788438615 -2.201239172901641 0.9806046046470531
Ni 5.344494286232765 5.517825728844222 1.8358877100839168 -1.466990474080151 1.893806968590048 -0.31513060139711535
Ni 8.065232522505395 0.7965756958756403 6.7907282787955765 -0.4313112970564572 -0.8271416275974852 0.672038800951649
Ni 8.18771389591009 3.127733440209873 7.0810584451697665 -0.3940274730043343 0.8533835920131496 1.4311377260475997
Ni 4.737111250326695 6.359827239369607 11.903166985803791 1.7429711447506822 -1.061968963958158 1.377114220643293
Ni 5.3011336183965945 4.307684918522087 13.27998776049043 4.788771940498469 0.0676421246290061 -0.2855765418890824
Ni 0.4433688535145624 4.507933714574381 0.6739784592071683 -0.5679294346345446 1.4178109270317067 -0.6148775212493088
Ni 1.986749094771379 8.632146837639185 9.922134121014148 1.0276642771390172 0.035244425024590915 1.6342505049138112
Ni 0.413961830261669 8.750744474442051 8.291300288257915 -0.04650045755438443 0.6266624296993788 -0.6138030572382075
Ni 1.937307922852154 2.696203031535062 0.5747012533657637 0.6091573309360799 0.538414455894563 -1.3747261800270907
Ni 7.340243639334396 5.456028898475742 12.458540392959211 0.7115947088674003 0.9505008432831372 0.4899519895178013
Ni 0.7620938616692832 3.7467862240436345 5.879540642391024 0.874806537773616 0.22977357598684944 -1.0715224119745481
P 2.913905469642831 4.36347539729633 4.899259570718327 -0.10123795830658049 -0.021012340585608975 0.3123023879197009
P 8.547112471087448 7.846575371104098 6.5785659585086025 0.08642660432536084 -1.0184373592241105 -0.9840791934592148
P 6.11554113402068 4.583337526640916 10.903541383610767 0.29199581515186485 -0.4254733502184414 -0.09623227756187297
P 4.9440337703725845 0.7858124621237461 3.1366567653329773 -0.07283292480132618 0.4910866173428768 -0.8171166392613154
P 7.700782309027328 -0.20091060701499264 1.9509566153251683 0.6025243990005945 0.1283666962025725 -0.31961537664134637
P 5.192407531667589 7.233946046614173 0.5118560921866228 -0.8193887231249436 -0.9795648505286291 -0.5419101277526474
P 2.5498723639143632 0.5792542161791726 8.270923184330801 0.35019144965599047 -0.9456725686565584 -1.6944284599552881
P 7.4648568967926 3.2966620787977763 0.7218744786406538 -0.0008926870175984626 1.1119985177117235 0.13240692771021714
Ni 8.528648501371833 5.682963321441318 7.9229635574596875 -0.9866713796664233 -0.2905166595031771 0.7832708943564639
Ni 8.769736780640494 8.77260092052108 10.413922695914472 -0.15434537965452128 1.107128591213932 1.3370744311125877
Ni 3.357884227377919 4.7084883896430485 13.063037043238051 -5.473172091228949 1.670499717053833 1.5523487850419975
Ni 0.9212390062637965 5.6876534663590395 4.684031971924849 1.2570635005055835 2.4008064005084395 0.8037605296693835
Ni 4.695799044994114 2.3217236939443966 4.52323137301748 -1.4226111766338274 1.3151380360508125 0.7017471266493592
Ni 8.737378488332656 0.11611723605191224 4.67834725675086 0.013844876302892287 -0.9252212427807419 0.32591200828333544
Ni 6.767610313500538 1.7453085911808326 10.747733101013049 0.1391018232318895 -1.4111322294599504 1.5512756065824769
Ni 5.920371783452399 3.8207904078837345 3.015103224944615 -0.512349383376395 0.11445754232064806 0.16323111217992534
Ni 4.054750779164792 3.632072323842598 11.187427698706694 1.901120985752958 -1.3878534614376679 -1.010688311406311
Ni 2.7626065852713437 1.1842430536025403 12.10121994128097 -0.19264556078630046 1.2709981083088047 0.09238873544606668
Ni 7.100962826980667 7.655734672070555 13.27580926774555 0.03670404028925292 0.7383838040357864 -0.9086959914322094
Ni 9.133695733880145 3.7710526260092383 9.795168375848203 -0.21592201481573783 0.38653039329634076 -0.40788700459524596
Ni 7.567103909811156 7.73641257990425 8.480493875133595 -1.307613188428677 1.490765979233194 -0.45859790068655215
Ni 4.400737022927243 0.44597067896595466 9.645967080004146 0.466969412579699 0.563875576280145 -0.17211401649185198
Ni 7.499319265970643 0.6905376368662788 13.626170508348249 -0.6969990704414125 2.1926095222511015 -0.8276404216107746
Ni 5.489944393048753 6.563431435540903 7.407963399747193 0.9263052198735401 -1.7776267871513385 0.5554480143380821
Ni 4.82280372021669 7.29940415611803 9.840560821877977 -1.679055577043644 -1.2238031957905569 -2.16048384536115
Ni 3.287522784550991 7.982765685878971 1.6639225270789273 1.2958753311664586 -1.1857657814018612 0.3295830293770195
Ni 5.211446183171543 2.3170613562099813 0.7329269070989372 -0.9588137340242068 0.05559059278111071 -0.2683339527585507
Ni 1.6797763291881591 4.410664187367717 2.9546114783793267 2.040133848815467 -1.0016966494306618 -0.5576907876256718
Ni 5.831611254337571 8.85772797768384 6.877904725368038 1.0424663751488563 0.24561902765953827 0.4780035589066735
Ni 0.35174418451914813 6.814873256060742 9.989626789429941 1.123979858443316 -2.1721494546245363 -1.8811674254491668
Ni 2.547073107461494 2.124413190261505 9.566225347341774 -0.7236873783658762 0.5599865256383839 1.1612436278907807
Ni 3.0292125897544095 3.8614723170613647 7.290330672205069 -2.1401770154829984 0.5305810758930734 -1.4286895216174234
P 0.9716756753453998 4.498080702622725 7.89470497087736 0.30382854612073484 -0.4699084406033649 1.0264504593365742
P 3.9109320271027936 5.492641689829498 8.725880218035355 0.1535614503006452 0.05395614250148127 -0.6819594024994707
P 1.2978539355324132 8.169472383660926 4.503519787677506 -0.9284068395975752 -2.4935553475074026 -2.193965522058363
P 9.065614480084362 7.127185000838838 12.00460202906979 -1.2355068573807302 -0.07683613242344832 0.2909372919803635
P 6.598551908057203 0.6048099445440949 8.7790864825743 -0.24994182340460824 0.38418657565451253 -0.3833131719106237
P 3.526608946621574 4.025868384770284 1.7015280348767317 0.7213088508313706 -0.4684364840435287 -0.5049235232259691
P 4.40407388492404 7.885811306749783 5.376478108472075 0.05997818032584509 -0.8090107223247293 -0.1644773258822006
P 2.0659717600120273 3.2732947757590876 11.915064752634596 -0.9091392496172148 -0.08779211721431977 0.02904780929557578
