# total energy = -340860.652501017 ev
CRYSTAL
PRIMVEC
9.34309635075689 0.00000000000000 0.00000000000000
0.00000000000000 9.34309635075689 0.00000000000000
0.00000000000000 0.00000000000000 13.67456592398156
PRIMCOORD
 96 1
Ni 4.197815736225189 5.825747469568332 10.813955506521772 1.1466364195005672 -1.0754369165376059 0.5733547194151738
Ni 8.382121355390396 5.606932157296702 12.439697218122964 1.5459791340702278 -2.0772983736809065 -1.5140082375905861
Ni 5.83935101759 3.443248603446311 7.826637850084409 1.8516496184957079 1.3256911289763105 -0.3574980106197327
Ni 1.7077030884317494 4.753019882955731 8.997672560274758 -1.1192150900648208 1.872618764548207 2.9600339364936117
Ni 0.013554963921591787 7.61798689213474 2.567850945155731 -0.310145232367382 1.6854805067333811 0.9299441021777081
Ni 8.131922583088006 7.662581490148082 9.49327989947383 -0.9308727846395645 1.2314368010764147 -0.3550762885521175
Ni 2.375388769937618 5.721955014229923 3.833377058448518 0.8537273485058134 -1.8850335932727922 -2.2292677969040833
Ni 2.7194015708702133 8.470777994935464 3.3472604363376415 -1.2220895555335598 1.1561441018806864 0.4246716802527525
Ni 0.7081057841510231 1.4378557848865234 0.5415548175376461 -0.3194865643729659 1.2158877975982223 1.1946944513500586
Ni 6.183158270406884 1.114201590505588 5.762940374193286 -0.4886769794601197 -0.0958368418956672 -0.3624802943256725
Ni 4.246166258898361 7.74903315899733 9.531733280375466 0.7018021482570106 0.6226232266329986 0.06985738711277002
Ni 4.351229375315716 7.313644877534567 2.271003027992495 -0.9689891318953119 -0.32305191312672105 0.3320857411942152
Ni 3.924885210944282 9.293176005899314 0.40062075199968983 -2.526983545258861 -0.1952266912499154 1.8460273872129238
Ni 2.160497558056855 4.052409130551262 12.726193919040865 0.5043352548226668 -0.18512585537048762 0.012494275812268805
Ni 6.839109023124829 0.8315617196861385 9.551588294043631 -0.24281498255183986 0.13938001659394061 2.5063545561545997
Ni 2.4470783468402746 1.615580160208083 7.695046880715181 -0.3742256077870587 -0.4726476939113989 -0.4906976094345743
Ni 5.817852553305755 0.4080877544577379 13.280287171636946 3.6975165688713676 0.48671857018216824 0.46954771482983654
Ni 9.283580646134029 5.6736512070375955 7.788212498471277 -1.16300560488721 1.3849494004169955 -1.0190243420758323
Ni 1.9236874425642538 0.9905924281933055 12.42071765256581 2.8479652061201146 2.2167262127936467 0.6255434856035872
Ni 7.7997755142896965 4.067395456805903 1.5633447781479541 -0.2815046858125539 0.19348862551288615 1.530061948619339
Ni 1.3005776728793907 2.3679423222911407 9.732407102816275 -3.1999091196908376 1.5803712383968525 -1.0166977508251844
Ni 8.657817437137245 5.5640286596899 10.080219740960692 0.4798822639866251 -0.6083831717742167 0.11364250261852042
Ni 4.201674434942874 2.1066346086441334 12.700621864827054 -0.2434806411602968 0.8345716015129692 -0.2757981223460798
Ni 8.845520239167008 2.0497444960727433 5.307399968604191 -0.3114418396916185 -0.3031685439392327 0.9876939073936667
P 0.8853975741199708 7.108311653034413 9.261236631646513 -0.2864031515554358 0.11491648423493757 -1.1767440375192249
P 2.780608193871556 1.2001861045463993 2.1221693746438786 0.4803769442348566 -0.6253786778909487 -0.8603265989898861
P 1.4297366343158981 3.5246269710759393 5.09843881986172 0.5385101009321629 -0.4509002749319783 -0.42243893426749174
P 4.649358230963684 8.644951993712906 4.449799039895805 -0.00362551256772924 0.4686858810501734 -0.5103310673947856
P 4.350911710045979 3.2510050566785464 6.351808630729375 0.2895730646429851 -0.7800760415682501 -1.04727639494299
P 5.646173161205364 2.920053904189834 1.633317093974798 0.2051663189611305 -1.1882296695613213 2.209841312748355
P 2.447040974455599 8.179721863087224 12.548711529910076 0.8767811450014835 1.8636957510269643 1.5094432439277232
P 1.1256842556969557 7.093745766107364 4.699072845677491 -1.64387311560524 2.445586018716975 -0.21275878659640776
Ni 5.131321846827561 2.8543345657389954 9.910217434622586 -0.754662486591152 -0.5235966741554402 0.46796185839995535
Ni 0.16751797706684046 2.9660686528208235 3.1846971031690785 0.764719870827154 0.7108398329792468 -1.0528081233944966
Ni 0.24900472461202583 8.887536142637781 8.021677785535474 -0.4625591993271453 0.34738046256975663 -0.8279746650217417
Ni 5.08767090152726 1.2338025645614858 8.02502821982158 -0.9383914616141129 -0.3330560755272845 -0.3655280800130608
Ni 2.4164423345030124 7.058989448359694 7.546924236985006 -1.1237790552864193 0.2088170283398404 1.7495225727159545
Ni 5.111860177508099 5.371411389075385 5.9347617813554425 0.1080683509648526 -1.5750428842054036 -1.1748655895495894
Ni 0.3920998482938091 3.569997046071286 7.037163975709543 -0.010417338678582059 -1.1045065802100527 0.31104948934920623
Ni 4.700165987929232 8.259362414829468 12.010549190591295 -0.659866170144857 -2.8540852029749235 -0.7545624706781779
Ni 3.414462524150457 6.2149434835729 13.144074172593049 0.16358181065112473 0.8376996056189895 -0.041186244430322615
Ni 3.4814151512955682 3.3938236247137357 2.9046966570172943 0.3461933842401909 0.38298252804408234 0.855327860223714
Ni 8.613045320296697 7.163407891141407 5.890264351542254 0.11314705103934063 0.8692812370800126 0.7718217719792578
Ni 3.139252283404381 7.222334798677579 5.407073987151424 1.584757026169374 0.5993298033226969 0.40615870905022955
Ni 8.884789272364175 3.255835437397779 11.421120348285083 0.9669875280842507 0.5818959241169656 0.9201785381505121
Ni 0.026993139141074464 5.218016436177196 4.803013856244982 1.1476208949010236 -1.0700077751022348 -0.24457104601099813
Ni 7.817574112491124 8.547139119922484 11.679692403373888 -1.3384180896246756 0.04961663458586294 0.5611818314980657
Ni 3.1106717522242398 1.5884478089340948 10.326539259733826 3.7405169836922934 -1.2039637924671265 1.6716374302027017
Ni 4.952878053101009 0.9733637588581696 2.8633039380609753 -1.7693761171067721 0.2786864996374684 0.1590648966173777
Ni 0.6822216705251767 8.985442447389891 11.487483426061948 -2.8247514870078128 -1.9636828676455793 -0.8562542286927253
Ni 2.2298607040134977 3.1208930994328288 1.1497660860718544 -1.44492629519126 0.17656999538067655 -0.8502046800645358
Ni 6.32908808946626 7.587416281470659 5.159098871737192 -0.7942903853954192 0.21633261999059517 0.7470422510417328
Ni 7.529741348821096 1.5777312776285626 1.069557474082551 0.6226805622334954 2.6875605076453906 -1.7122816860866255
Ni 4.423853261835245 4.258536518225758 0.5769651520171284 -1.379609733371637 0.6850156728272913 -0.24739951659872877
Ni 8.280758105055856 1.8604159953096222 8.144954333624149 0.9600602048367983 -0.09255482871028577 -0.8965624413934689
Ni 7.260267769122619 5.868800456713834 3.9456455706311977 1.6216132757657749 -0.20580446676576167 0.35910186477174283
P 5.001938651083004 3.9882033736797573 11.777670649966495 -1.455545208357687 0.21147889144271964 1.93841483710741
P 8.158821356957777 3.841927860062139 8.864728710580298 -1.0818577324622851 1.1983109650567234 -0.8418177415524212
P 7.722844460436383 3.7304460365768666 4.064313169379839 -0.8592760462381847 -0.19689225187779638 0.5589704256690438
P 8.509140747804265 6.359266290091254 0.6399338829558933 -4.840143095881594 1.033862435529929 3.250452122745712
P 3.6224305017701925 8.98448945158068 7.8044713544241 -0.541039809332552 -0.1782952056018994 -0.49802062545854875
P 6.325771290326362 6.9302042107699355 10.708005730278003 -0.008767718890301028 0.9663084997393552 -2.826977548124854
P 9.304098085320557 0.777041950612755 2.615124208840648 -0.49285270810436405 -0.7584355804803389 -0.11823037909951896
P 1.030683653853321 4.84276966475254 11.183470288446912 0.26669487449323104 0.4112425513310401 -0.5693602535438
Ni 6.282438010295797 6.057007785936707 12.497431946588007 -2.9042484540928757 -0.41185884475880036 2.6729910944716484
Ni 6.293247972563016 6.171731663792529 1.9113078401406882 1.8221608650079715 -0.39817209130032716 -2.3840721184728944
Ni 1.9422802039400244 9.091626735347495 9.627960630746054 1.07810443606744 -0.5099068353731735 -1.4761106912138644
Ni 5.387864581428517 2.906104661609922 4.0609496547590975 1.1342886965684917 1.5621017506637032 1.5657036090823488
Ni 8.705056131366339 9.029915585153041 0.4811246058279249 -0.25349123131876344 -2.242755289867557 -0.24763991474430902
Ni 1.8440282046296719 8.300294519144668 1.0286954429886155 0.5148302408167198 1.2190296856613134 0.9647558105402546
Ni 0.23757998661690422 5.440877309089885 2.110559643344616 2.694587589695501 -1.6430269655548606 0.9125392764376993
Ni 6.487313423083683 3.4367644947052134 13.501199074688838 0.32783467922734505 0.36924023875732537 -2.9318711009061507
Ni 0.7205395765323674 6.946750834084754 13.35959978070367 2.9078911930517855 0.42406361435510836 -2.667200970152432
Ni 7.332975743507666 1.6003789427415613 3.3861370594957223 -0.6363300346961299 1.9372840659370767 0.005124979931391174
Ni 2.121480788456243 6.871912633773237 10.993570924507882 -0.3768337348338671 -1.113839170464888 -0.8404828247910816
Ni 6.505373627977836 8.667450169287205 7.985235038929347 0.12810032991506326 -1.1842398316756377 -1.6652778065332607
Ni 8.056009926717085 9.106080505120518 4.293417099152473 0.9907069831883777 -1.3187131549965805 0.8660542455022827
Ni 6.8122849940244095 4.272523133190345 10.851520358977764 0.8785618910509901 0.5049289225426078 -0.8920167310043152
Ni 0.9635908802656793 0.06424966942349755 5.7074900327414975 -0.26362472020833955 -1.4195279097228133 0.27101998423114615
Ni 7.56756220211211 4.409156571561835 6.179399542818205 -0.6345773136710813 0.1878442827429152 0.4157854335067161
Ni 7.013806235287721 1.813326790619229 11.839548107272753 0.23342377114492702 -0.5095728490725224 -0.5709720781156102
Ni 6.670176501298043 9.232072156955827 1.9493781540994075 -0.47168378733623284 -4.028339384192759 0.1563400414870469
Ni 1.8519044346999103 1.4617460817899632 4.081461488087925 -0.43960721851666223 1.0367330722095047 -0.7181767329602922
Ni 2.526849701928881 4.521142922240219 6.977734409599493 1.0770988776210613 -0.5066705878240629 -3.431807969550806
Ni 3.3880309050891237 0.6371346913437421 5.631103681394821 1.0972822945474716 -0.19482251383296126 0.7986430059371601
Ni 6.420631745727465 6.085793865232561 8.506591951169435 1.0555427487168403 -0.8586618096929534 0.8965974083964624
Ni 4.837929940937139 7.091708971142582 7.262192446933377 -0.5995753436745996 2.3331388219581366 -0.48309562871760026
Ni 4.118857230503261 5.2423645447929035 8.484671178938363 0.6207113543222664 -0.45597100458666634 0.5078509812854093
P 5.215904896443063 5.5969537305885 3.6536112166140913 -2.0925285603670996 -0.5421556681045502 0.6645568907523071
P 7.964699847860098 0.23775376820564256 6.6070853757994685 1.025676300174711 -0.801194311604104 -0.8252168997709465
P 0.019257055513366997 3.8523360691941027 0.04158051518931079 0.5650022336854205 -1.4238589329979994 0.1784481862399959
P 5.4026547026636145 7.469029909916697 0.39068623784348044 0.27831034724497233 1.0986881737560628 -0.39014536434110875
P 3.1054022459850765 3.27097125319112 8.903605333738378 2.215412636188546 -0.26903612103189795 0.07409610778446593
P 8.941623326358554 1.3877674463259682 10.374318919231088 -2.126770769379421 -2.2594985707641664 0.6430190166805313
P 5.072665889080281 0.7482540026976677 11.111500418659196 0.6461053689153389 1.3321399699254475 -0.9038085814329209
P 2.6845331359685174 5.5806593708702374 1.3752645150329752 -0.5016317398485747 -0.8798369011086719 1.5402206343198959
