# total energy = -340866.5707307447 ev
CRYSTAL
PRIMVEC
9.30684812415942 0.00000000000000 0.00000000000000

0.00000000000000 9.30684812415942 0.00000000000000

0.00000000000000 0.00000000000000 13.62151298033384

PRIMCOORD
 96 1
Ni 1.8261152713787654 4.821300954857567 7.396835275241188 -1.0722073538567147 -0.6793037100441786 0.728239773623249
Ni 2.7160267759450822 4.6903442958174955 13.139161458411563 1.1473804967554433 0.8581594161352382 1.3814637558612402
Ni 2.7599457919361345 1.6397177184504332 4.742329557021399 0.36483696748330713 0.270649745375921 -0.05578496818010393
Ni 4.784687814592934 2.6500226095097057 9.966166581393399 0.8704734576159009 -0.7164031859996371 -2.1926311195176558
Ni 5.9504356819358595 0.5162676141666596 7.7417731234872535 0.13947926117596623 -0.7898683450683235 1.9402991986143168
Ni 7.4453946856745254 8.439710411768205 6.168134026256671 -0.030065966147444997 0.030354958142773527 -0.599729866974593
Ni 2.8818748083588472 8.25721242817665 10.752263918599299 -0.3058435196682346 1.0965983811065694 -0.19249335147915236
Ni 2.8462947282287785 3.0885054489677364 11.587548878482533 0.2710598363301461 -1.4809176256842043 -0.6395068897622147
Ni 4.19924984428118 2.18214874388093 0.5295475556622377 0.023597584814281942 0.9560996775271534 -0.25168991644396654
Ni 3.2561310893607955 6.234676128509865 3.606063922960198 0.5957184318223547 -1.0590685024819115 0.11815016068088685
Ni 6.341742108582141 1.4945029681837683 13.588562161327763 -0.12853818878343024 -0.08289339436112177 1.3070200349293684
Ni 4.654680454054894 5.75649027523157 7.495264500314588 1.5859615880004363 1.404894733190671 -1.0120090871002636
Ni 0.7275926289365758 0.15958638503957948 6.170872100955668 0.4095733911587333 -0.5342911777548088 -0.6590236196389037
Ni 6.473564304491712 7.172136319810297 8.972721976278052 0.6705560457585354 1.1355102276804185 -0.4959467736486555
Ni 5.290068277900019 7.233952404619064 2.9523127572095955 1.6513920496901044 0.29662920015881816 -0.7761535665853924
Ni 2.6153639073374912 2.024704795264563 8.738473264053685 0.18656387336859484 3.1265120948559253 0.0187346002950258
Ni -0.005997332889305835 1.7015524169553182 10.524021846112298 -0.30551750378738346 3.200942703161674 -0.8134559025802764
Ni 6.579252871051237 4.071541275213746 -0.044219627183362524 -2.157718366800871 -0.15498635567262986 0.7123845517585472
Ni 8.573701103275555 2.8456060214724026 0.5170549735124622 -0.16311001322102878 -0.6954684927294991 -0.04404659669725317
Ni 3.7944764084933325 6.855852395368694 12.295076873688421 0.41998327363814764 -0.9141742409379611 2.203731857416508
Ni 8.971708460524413 4.084105520093576 4.471262023190291 -0.8184950076660806 -0.3317898072203512 1.603632265807322
Ni 5.2418960323459425 8.741019617682664 11.524766742845227 0.9532732638219519 0.6058874019355566 0.36234094053433086
Ni 1.5329960917563457 4.28789757204443 10.038088041824773 -0.4359246274587525 -0.5181050549132497 -0.5923621137556121
Ni 3.2995382287085957 8.612296602176782 2.68706107273064 0.35644462965455387 0.878917474618196 1.0644516211706958
P 1.0450287411679002 7.576407185802952 7.75682508885329 1.096825409515711 0.8921853953716957 -1.6695216694112796
P 6.870529294757947 2.1428180039830305 1.9798737081637154 -0.36600424831853096 0.258480971223871 -0.5730544145659356
P 3.2357118647190557 2.960443219674055 6.6618185736078415 -1.204426591036158 -2.100359369265428 1.8853161575102175
P 7.3112457777501705 6.316455402405475 1.9743016982307118 -0.9322637514498203 1.3766758475542937 0.6166040170221122
P 1.3492975247651624 7.840665829593998 2.119194431554531 -0.16345531237558947 -0.5934532899372618 -0.41121606896847884
P 0.05559166482681814 2.994738954771963 8.655286794731534 0.7954334978609269 -0.8063496305527985 -0.5865563057071124
P 3.4106899150788306 8.300507885347741 5.020208772946987 1.4909791236852645 1.096933395848485 0.5022089525082835
P 2.618639917854306 6.011088410737234 10.598544570576198 1.2613284464295247 -0.22882663869254785 -1.1112127885856349
Ni 0.5749547366579456 9.072120044234408 11.093536730079679 -0.41858845017315005 -1.9844131582143953 1.8216736409589078
Ni 1.745890241109032 2.54843836294426 0.47954279172531744 -0.38086368192886666 1.0697475794623124 0.8763291450657295
Ni 5.475088417315599 2.711280283434924 4.406913545024634 0.772657894727308 -0.2828534865309645 -0.17243463305606432
Ni 7.265139652465221 3.9358846579038116 11.335196485413535 1.0553334609195117 0.11915443357568509 -1.2676852418854878
Ni 9.138310347630966 6.28533330249573 5.724468203114508 -0.9724562645083059 -0.10228953949954642 -0.1310396150490453
Ni 0.9753762902933428 2.65319624469787 6.688012697470274 -0.11776963741301653 -0.7857604935475371 -0.1917011945951602
Ni 5.279021049253828 0.7264022830698126 2.8288341505850374 0.3740448592348203 0.2775130481546576 -0.20108700668543433
Ni 7.349487616425151 2.272434476902587 9.045692318485692 -1.2282825717181491 0.6303735600023789 0.2904441543940288
Ni 6.7991271564482725 4.921600856390852 4.96099581354036 0.12719710137450352 0.10470611936083903 0.5986970548347045
Ni 2.5872386125027886 0.9228782217613808 12.827051655324482 0.9196802583578549 -1.6693892575984735 -0.1318633965019213
Ni 1.4921762561689849 7.613625271191428 4.494118711338717 -0.44473322688931793 1.9286515870730587 -0.6854514748131292
Ni 1.7118271772126021 3.6856514341378803 3.559437544868743 2.5765680410552076 0.9195038806809905 0.6429933056489184
Ni 0.19085181040943364 0.27758511952691944 1.2639574508021287 -0.4846830278093782 0.6947480696237067 -1.8977602968108416
Ni 7.728583458417849 3.9598684053521995 7.136487369004591 0.49663505796493185 -0.1844349999510501 -0.7410783201488139
Ni 0.5370032716424097 7.146393578078733 9.87586968015407 0.6713674859162373 -0.7803352087669078 -0.46670227496124145
Ni 1.1599310873059665 6.201394839850403 12.056427883701692 -1.1424570913118972 -0.3965309561524784 0.5535723945819241
Ni 3.67469727397228 4.09277950248469 2.2909746489211873 -1.1574702768912775 -1.272495004569305 -0.35536450921649765
Ni 3.9927029653048236 4.343738660399233 5.42192025572338 -0.0627076634418662 1.65049910556219 -0.37439118683064554
Ni 8.653498018534568 7.673291474098535 3.63814276685042 -0.485414506658764 0.12976949008737007 -1.0527081074815225
Ni 2.799955931742351 6.326581253093812 6.077374574668803 1.107420668533054 1.9649319095613322 0.1905341708702525
Ni 7.095392050714679 4.294114546547932 2.4523488794729267 -0.7780566971453762 -1.4644507383774328 0.46980431092533287
Ni 5.444329284480162 3.5608093742726594 7.387041679028561 -0.6829988995075785 -0.9038911138443982 0.18177339395848696
Ni 5.036791714818752 4.424000918061203 11.453158923193445 -1.7111272607672081 0.3916006087303966 0.827025413734595
Ni 5.227042302843564 0.5184900894831806 5.4935969460508 -0.7100672164792804 -1.5863171715676423 -1.898503602734769
P 8.77971749191254 0.8648844594505001 12.882327818002093 -0.25508660083034135 -0.13074599506802642 -0.29414705716691275
P 1.4693651715760476 5.552093278156873 4.670612847247325 -0.9488208844775531 -2.882088887276701 -0.7830793471709482
P 3.062697559299758 1.7190585981545492 2.236884178686308 -1.2508049211903816 -0.23647592770768952 1.723902043934373
P 4.72531012397566 4.957134402280625 0.7627883362418022 0.08627439501821271 0.9806958788092788 -2.1965335398958556
P 7.5507575125519795 0.10266384094030519 10.182271593326485 0.4937207125316142 -0.8203225477931226 -1.525678731949979
P 5.075247610999092 4.770103983684272 3.6456617693973943 1.4606236513218587 1.5367545301481662 -0.1428016406809799
P 6.4498690693331575 1.9817723051677785 6.384484738978519 0.9896682575112181 1.5809515363803548 -0.6120706479281329
P 2.335888566969761 1.0534421318133573 10.748123301897792 -0.5882285512032128 1.1125374209343293 -0.8108603739389584
Ni 1.185078190761746 0.40858552075286936 3.2243072531073933 0.9763188327875058 -0.4350203704769282 2.1931525392387647
Ni 5.398893252255471 6.9090596457227615 5.284234745536555 -1.3467854877527643 0.6902306413693274 -0.3019256726710671
Ni 3.1999921818681005 0.48778028294245684 6.980630237982306 0.720303549495308 -0.2760961132024729 -0.5284293196573931
Ni 8.95142883860356 7.155719039833985 0.929074721199152 0.1586306372934365 -0.03677063186113022 -0.028816667121376177
Ni 8.696532883960003 4.930619192160153 9.123961979978201 -0.4263992044668205 0.49208677647261706 -0.0181527596496268
Ni 4.634661423879697 6.846955048624161 10.118985957209182 -0.12073154825481788 -1.7878764899038044 -0.18614941153899556
Ni 5.835486801557497 6.959419000570735 0.4749331098816285 -0.2427460769871174 0.01230735661244332 -0.26840594364706677
Ni 6.9390183896251125 1.6093029389931839 11.517302650701803 1.0024019030278026 -0.24769185102816696 -1.5344359093173188
Ni 3.2785419794871893 6.85557318992692 1.156938935654955 -0.02944915849905251 -0.5141203592338888 -0.9086111450278868
Ni 8.457579560041742 6.945626251747098 7.821472316841646 -1.053701067522411 -0.12933625920469338 0.8845240221716959
Ni 6.22668154602707 4.775613637735279 9.273880411253952 -0.25784076653671073 0.10935467387644393 0.24231156055286007
Ni 7.141172436317558 9.0960572574425 1.2298794959488046 0.006607478014188622 -1.032224899926506 0.7968838571542082
Ni 0.4153171639540409 3.668480299468779 12.172374458191994 1.0246311467396483 -0.8443158253839266 -0.3695248598772797
Ni 8.69849662890048 0.5443296224345598 8.0663736473545 -0.4350795058496378 -0.4307294564110582 0.824050133156355
Ni 1.790200144718568 0.029276551939617264 8.863327422821381 -1.317326559061699 -1.918074325777845 -0.33490264181771995
Ni 0.41717201877222626 2.33278938656607 2.5459152764354283 -1.9942723103966622 0.9140328302640903 -1.1704126959845584
Ni 3.662002733219621 4.334590028757105 8.798680194833027 -0.7874386525809084 -0.2507337231782843 1.7377631181871813
Ni 3.034469889136405 7.1251832713519665 8.371645709172537 -1.3629430713492334 -0.36871599082273915 0.21518950752508745
Ni 7.782228130630696 1.0538050988876635 3.581463131485489 0.8868210457359889 1.208149805524016 -0.40099953344679323
Ni 1.3141362527977547 8.166340363727267 13.208004213504974 0.7851259452873317 0.45081748541018485 0.6081944528021783
Ni 8.002046574939378 7.923413015687757 12.45942091945583 0.15172002621653227 0.6675285717861213 -0.2958018191615164
Ni 6.274099936888357 6.311932274248735 11.848822816101013 0.7775604742352481 0.15597828727225396 -0.791642663359927
Ni 8.33308185355471 5.282399435099293 12.957722594129137 0.18528115000142928 1.6713944609539604 0.6585466800024852
Ni 9.193555797709985 5.405743092426993 2.608451711283972 1.659570985956471 -0.09426461231254088 -0.304280803166805
P 4.429426810479678 8.65607601544695 8.825432729579006 0.3812627171394982 0.2686684532798341 0.32095466427806013
P 8.288865018425764 6.009292189061822 10.87961138196204 -0.752523328760962 0.591328273174459 1.2144168694796502
P 4.924802412123195 2.190980942689048 11.931396894820873 -0.5323055147833476 0.034041920076057504 1.9517282663868643
P 6.670208697133151 6.298567640435819 6.833790512044517 0.6419653786050363 -0.5914473152508265 0.3490367672262569
P 0.8692800837888291 5.016623775074608 0.5813876300364189 -0.527327344842466 -0.5349162129333175 -0.1537699667670255
P 6.8134597024593395 8.676327716823623 4.0347196615525895 -2.920498854513467 -2.497931879308543 0.6383488648983716
P 0.11342814140549937 1.9416690968809711 4.687448935386299 1.4026612158744616 -0.19181817978899868 1.1619373115236955
P 4.3607888060435664 8.78672554850107 13.623283219381975 -0.17135914060369845 -0.49235134298791333 -0.21276675701620773
