# total energy = -381169.6980382193 ev
CRYSTAL
PRIMVEC
9.23582074737522 0.00000000000000 0.00000000000000
0.00000000000000 9.23582074737522 0.00000000000000
0.00000000000000 0.00000000000000 13.51755723484985
PRIMCOORD
 96 1
Ni 4.9071116757708255 1.7908995466426931 13.102676150602168 -0.47264563702886986 0.19639448630577144 0.2307919899490348
Ni 5.32801573872412 5.605847701108887 6.952985451811581 -2.128331428998322 -0.7612625084061728 1.9931852479800707
Ni 6.225127959795923 7.534656524472854 9.614267830444973 1.2484364209582048 0.049133524301857315 1.1658914110754373
Ni 7.81036424806537 1.8915330504703785 7.445849489225505 -1.2653445095674531 -1.2599935296681848 -0.7491199595063679
Ni 0.7885248283402638 8.11800944010834 1.8261277380569678 -1.2393671116670848 0.3402628776883688 0.654367608924131
Ni 8.102567147670758 0.13022969169624407 10.642210995149439 1.1483112360998287 1.5598294096897587 -0.3685241865269072
Ni 3.5735422694581147 4.526097123007672 10.236724287917468 1.178863140744757 -0.375931791844888 -0.5521528885265782
Ni 3.567853003823216 5.385287063727376 4.3867987788326825 0.43088115149757406 -0.5914550285603104 -0.24626334611175654
Ni 8.689642099103102 4.282668593236536 8.492134994110014 -2.2931028890821734 0.7368676245015761 -0.10717155018219607
Ni 6.808185329164662 3.325154103898114 12.481909848342639 -0.8466395884210968 -2.072082890918238 1.077940656796066
Ni 5.1152131908447425 4.204441190756681 0.1425077919154552 -0.5164698333026718 0.25971741473413335 -0.23943526744632956
Ni 3.0721387920993406 6.505592131118915 6.422799462399888 0.7570127319908834 1.805472348608697 0.38765962180477753
Ni 9.181763576521822 2.6585310276063865 11.484963021945452 0.3498476931633265 -0.17472857129656358 2.3343341278178187
Ni 0.17405458514455072 3.3405594530523524 6.571208943829467 -0.038850140097978256 -0.7694471010994942 -2.5905877523730676
Ni 8.056923721099867 7.416558083444531 5.115963139496616 0.2312311343689824 -0.27905262472763553 -0.8881400216577284
Ni 7.456345999605476 1.7970228958568777 5.095051393960029 -0.09581755862195757 -2.133842331514222 0.9820323382325153
Ni 2.2484328750310647 7.71193810541746 8.587879977969273 -2.083331467248864 -0.7281562127705072 -0.6880953401938795
Ni 2.8440971398407706 6.935436468641337 2.3997719588297826 -0.3135547722695632 0.18754449211430926 1.0541237568821267
Ni 8.69723394383019 2.2518224212778306 9.404124275384246 1.1732090277827731 -1.0563631877356066 -0.11065539496573845
Ni 1.6720807115891716 7.584714673403291 13.067747199782975 -0.45146154675208705 0.09926643640250646 0.32692245182572083
Ni 6.428075886843423 2.7436668240714748 1.4007027408045132 -0.18343741192447116 -0.052553091506367555 -0.22341343809677652
Ni 6.143557190173483 3.358698605174009 8.81959748692052 0.34124555331661227 0.03450626130698574 -0.004919548788804431
Ni 4.226644104046122 7.55479061389506 4.544224268562242 -1.0460515213969532 1.3000680290915676 0.4138861596014743
Ni 5.354513308702243 6.5794509903434015 2.6131868416305783 0.3065410599558914 0.9794614921815455 0.03733447478440022
P 6.47462442385623 5.469240675125472 9.227152094437642 -0.11591818602657457 -0.19439391093597488 -0.39689656702201326
Ni 9.268700358049905 0.0038670381839805246 4.523853742126637 -2.0375275215408717 -0.13821839218567164 -1.550744673779671
P 2.5579621745245524 4.582786591298267 1.982214957347409 0.5738925941965148 -0.5734693906161672 0.4737344992176744
Ni 6.1369443424549965 6.898086809181061 0.19956946378573676 -1.1228259473445306 0.23362817384624926 0.44538705842323295
P 6.89744030172255 1.8933617429958813 10.517416584015107 0.1438002571488233 1.130072087383983 0.6234212970542619
P 0.40885408750872954 4.4016259656025944 13.000348797233183 -0.25511591140637996 -1.312569503992688 -1.7749135019852336
P 8.692514439383057 8.650685406817383 0.10233658918982041 0.3747894507103287 -0.9283842138897559 0.153383015741252
Ni 1.1563986552181362 4.281080032052765 10.325305045554337 -0.512109499451447 1.2564621194761587 -0.09692878940826533
Ni 2.4506696438742024 1.9461536948937381 6.317984902479803 -0.6592282794505421 1.177258258151482 -0.5803157241140393
Ni 8.73331829583595 8.165158305475478 8.818975916178266 0.6678874977874368 -0.9725362258166219 -0.7067103841919055
Ni 7.2925948961854274 6.668724434542961 7.158182301232616 1.125559287115294 -0.9447184322734051 1.735736574675456
Ni 2.1771138665364442 0.539125340398735 0.7953122330725477 1.3575982620975522 -1.8811152320549929 0.6773751255628979
Ni 3.902383670319415 1.891191325099451 1.7558089689588725 -0.0310391286939917 -0.022111744297374825 0.5098482142210962
Ni 7.877037638679546 5.7025467452604905 13.06976153230728 0.9414024805262948 -1.5406281541709594 -0.13101930333407114
Ni 5.787488589488025 1.613396305998027 3.3329971629519384 -2.0327254721665375 0.8855280379561782 0.8239796849297357
Ni 7.737041066449366 4.304973100555172 10.932378319842599 0.4669545001813636 2.920210890959403 -3.5193702301425067
Ni 6.223945774728932 8.733613842102699 4.304909373391404 -0.27029621869124415 0.16842962566172928 0.43529445007392126
Ni 0.6209140753929026 0.9040908072953904 12.726767159597086 0.1425203619951352 -0.8218212438258362 -0.6683965762133715
Ni 7.645615675995046 7.780975866165618 11.971054431940432 -0.7865418517982519 -1.3127430534560747 1.1733836056874245
Ni 7.153337189622116 4.134997053891743 6.479317144422937 -0.6452833872346757 -0.2694079025490199 1.6034738858525868
Ni 1.899346554897528 8.915624163315272 6.141067212876131 0.34044671156440076 -1.3206008589375964 -0.03259284633435677
Ni 3.9141408702434832 9.0135146283547 7.490389235206509 0.8088109476090973 0.1522386177241636 -0.2656345515495167
Ni 2.584792234052767 6.680259974766968 10.9722419697344 1.716338372654502 0.2533135680903186 -0.6248562297285755
Ni 7.887409465478234 1.3518840390302491 2.6815864071589792 1.5618076164620522 -0.2369562097782177 -0.9042143015117717
Ni 1.9227316532539613 0.5834563568288476 3.742930917916382 2.3876258972624234 0.5604359544709767 -1.321189384451215
Ni 7.151628562767479 0.9462929670228339 13.221063672822654 0.18297049959038164 -1.1580107227757799 0.05342700947088864
Ni 7.222679732457859 3.806100238105427 4.270642630926143 -1.5355255428370715 1.2009967394190024 -1.3262385168393482
Ni 1.4243759967710257 8.872945435232696 10.900260752885846 -0.7487129538759363 -0.2241138065979108 -1.2874179444277247
Ni 1.4153895430977201 0.8368180119089663 8.229921728340795 -0.630417525866437 -0.8549406520876244 1.0285708481136866
Ni 3.691040382132106 8.758578265822067 9.926996418276008 1.4646875369785872 0.4415651135739815 0.6432396173317696
Ni 3.97353643403899 7.863073077575704 0.4430635678848076 0.15294207154909145 4.64422760609477 1.8776285590579727
Ni 8.370332065344423 3.945921329739726 2.344742167543394 -0.13015155601713713 1.1267522789821305 -2.3850681638375764
P 0.5262035034672635 5.961676170452613 8.871762326583621 0.3628289359143429 2.8428278848935493 1.2691384293922463
Ni 2.9398818377296223 2.955675091358967 3.8331870534528787 -0.36675963842731674 0.6494614298717654 0.26735873332947496
P 3.895715407675914 9.079125899572752 2.85542210334972 0.5826618557487127 0.07635302213944269 -0.23703899930001113
Ni 1.9580771395928518 2.732870149514338 13.524316308476083 0.7713517743213747 0.4191875172097297 -0.9234083579417194
P 4.3995109626311795 7.469045253254803 12.00002258399215 -0.12195127959453189 0.7638868334028973 -1.5094085340350456
P 5.043672522650061 3.5186999653346938 5.209679937100314 -0.10869441458462571 0.1281340113664761 -0.32063790436858974
P 3.4735552730889405 1.7820239228194181 8.383061797202508 -0.3633089608745549 -0.991241258425293 0.2532968559197702
Ni 1.652657780371328 3.23441216418565 8.216877054992207 0.275508359019803 -0.7503106373803594 0.7710926071227172
Ni 4.306340002038881 6.499237886383834 9.11357735845473 0.026817634413476395 -0.21747521823547059 -0.6457441289211783
Ni 4.800086983924715 4.282705536519879 2.736710403817894 0.13812968912660728 -1.1663472676659332 -0.3785602306066706
Ni 0.09267776775966317 2.806488877397091 3.921808448701426 1.9474571498153366 -1.0045803987363604 2.2718560638882552
Ni 3.990031610051861 0.9519175819118815 4.943195104194502 0.8957067782613928 -0.8708334120584809 -0.5877976343133813
Ni 1.1793404341744476 2.1292446071441082 2.0071544443505203 -0.5211919213686895 0.6565252786970821 1.2220147364315663
Ni 6.151453816988155 6.012593250720787 5.003239946194771 0.0625881071448664 0.23961421622635506 -1.8468910207647997
Ni 5.190974629161419 1.882583540080416 6.874827317987995 1.3400890495691953 -0.7558932736744595 -0.7259833734889045
Ni 8.405511306908267 6.403443952674147 2.734953750694911 -1.149043229169847 0.08923090654337534 0.3207566893346412
Ni 2.4692890586793244 5.292273112089286 8.317380333746105 -0.6414455015458244 1.3523177304249032 -0.25885403829257353
Ni 0.704207325601234 5.657429760477245 1.0992603260349167 1.3256448491194073 0.7546054081009713 0.42586852877433107
Ni 0.5925231621434253 6.5811873246605455 6.644730695593444 0.3141913774122976 0.4613106716320249 1.1827655611229566
Ni 5.77397658360514 9.41074728250565 11.440246871786485 -0.49117532040194123 -1.7038962902364074 0.16788326623995603
Ni 1.9090811100585392 4.7127622979215245 5.816158424526746 -0.6900321522052761 -1.5122233777760214 0.09187554325507404
Ni 6.305599666738896 0.36667501733337565 8.855122148183627 -0.31014728924991103 1.6937951972466634 -0.2108847095021465
Ni 2.0913315626128446 2.074125228395611 10.343458974989332 0.6429827641259572 -0.6432241907128018 0.6156784198840494
Ni 0.37701728950538765 6.557903820333307 11.218423697696709 -1.5087469891916467 -0.47033910038288024 -0.375829719049385
Ni 3.9321137775900943 3.6741665374649637 7.564046753536773 0.26397104780416475 1.272722547199079 -0.6119963430467719
Ni 1.5256560080572221 7.350300304767969 4.426756634097008 0.26349719349153977 -0.6804604493564411 -0.24199608619497032
Ni 3.6447412122818688 5.873575675499208 0.49468995919317715 -1.162039898539831 -3.5740246842625933 0.13734550266241508
Ni 5.559317635737753 5.778095759697941 11.63191232010088 0.6364593611851427 -0.9440165211103743 -1.0520421917627494
Ni 5.920706069224675 8.86189939351299 1.569050512254577 0.021853862650297845 1.1391126003196963 0.9000763680839983
Ni 2.5017160256340785 4.663332184807926 12.330810895885653 -0.08446330995140292 0.6405355881370453 0.02684797343077957
Ni 6.677415341949519 8.76327006280669 6.739069987521481 -0.163546329427499 1.0756657447189604 -0.5723959550463303
Ni 8.56379480439348 2.5850785444986792 0.3703887408914807 1.6217248616429747 0.84714609574387 0.708547180290328
P 0.15909717330085246 0.9319127939813779 6.298560124097793 -0.26225972154001287 1.813132436257116 1.7616545800927985
Ni 0.9650139758571509 5.093767614863842 3.538937495950261 0.701344749004618 -0.3649177001225716 0.3257001493828455
P 8.609539824993563 5.337251559559994 5.368714306819483 0.22899298906708307 -0.836412768486766 -0.7012254498179342
Ni 4.710739653158469 1.8286001672947316 10.24465970517965 0.20998816582980606 -1.2155085598819324 -2.755683428565557
P 7.764951717015377 8.436793032079374 2.890175573573031 0.337212006677187 -0.15611044197474405 -0.24962892014987978
P 3.8682018974058447 2.94841573618197 11.585641781295234 -2.0707083791682144 1.7860062694642858 3.827842188572524
P 6.596491079785589 5.130193692240531 1.6138479376369013 0.4160152901293352 -0.3161343600712813 -0.2914443135237691
Ni 3.3496752082173598 0.16962785621791618 12.264790477804574 -0.45929158431946704 0.7343430583075096 -0.6255146892481808
