# total energy = -340857.6843085715 ev
CRYSTAL
PRIMVEC
9.41813618762961 0.00000000000000 0.00000000000000

0.00000000000000 9.41813618762961 0.00000000000000

0.00000000000000 0.00000000000000 13.78439431039253

PRIMCOORD
 96 1
Ni 0.7414041534805489 7.816167693692888 10.874191292193384 -0.24694623111139408 -0.03158086013007465 -0.8460536340106396
Ni 7.117699881073564 4.212327316802144 3.398184072450221 1.2754548585285777 0.1443281046278353 -0.5966604840206499
Ni 2.926779987723913 3.5181447561277763 10.460825529633215 -1.3754026372688248 -0.08015259839119099 -1.3765642616770937
Ni 1.1064143796429469 5.042667871692385 1.7676146275453708 1.4743890805370672 0.893741427004906 1.294160919578513
Ni 4.141267479605024 9.28275043570724 7.403142867661089 -0.20820947666282855 1.0203374044603009 0.7874990735051987
Ni 4.543045167455141 4.112108930107041 8.321307542082561 0.07550635786843125 -0.4366406796891706 0.029184334873440063
Ni 2.622950915758495 1.7251294154053833 5.143454171996895 1.0687821302252498 -3.123319041839924 -1.2138268013041353
Ni 8.995798663709646 5.779853641994591 3.9305234980201824 -0.27182602507220927 1.9450837644871535 -0.6150600695737601
Ni 1.7930812676753924 0.9742214207431759 11.41157601329502 -1.4845107423521013 0.5588002186397666 2.0040219335842586
Ni 3.505034710617055 5.927727797572057 9.868991738049441 -1.1040597224806212 -1.1966263782654487 1.2545829001755748
Ni 8.398622905305702 7.985411600178274 8.644524789111463 0.17209473321814234 -0.32047438220753194 0.26516198278847236
Ni 5.82138762238416 3.227576419851363 13.049603680211321 -2.6661794708664535 -2.5391212090626594 0.4626815838376225
Ni 5.662418902430525 7.657688716818676 6.654953888903296 2.2171136780400524 1.6494398110597401 -2.30264193892086
Ni 5.824570952400413 5.210913455746638 0.7249242988579485 0.2916877969931428 -0.5363022946475667 0.8911232726557684
Ni 8.905780118457152 3.961023190104895 8.294938644510063 -1.6695993167267502 -0.765681720519791 -0.9077030313913206
Ni 4.426128425378925 9.084602269399726 4.802179532541479 -0.12012579635001892 0.46509199305132803 -0.08414269338719056
Ni 9.164948388833606 9.364772983374532 2.870462359031055 1.7887645489357127 0.928102163872963 -0.30009170478612185
Ni 8.841030432475682 5.2169598991502895 0.31738553712930634 -0.8794566349511177 -0.6855376067690323 1.0760902338508886
Ni 3.186720545264073 0.43879002107754644 2.7555827598025187 0.6968378622731999 0.35388303957496475 -0.40467801073964493
Ni 5.05033423451259 8.165137892190552 12.574799648337477 1.3765724892072098 -0.3248943656520985 -1.5550515286851412
Ni 3.4720523978451117 6.973517634864061 5.753427293791623 2.458489357042205 -4.43229980004009 -1.3097775430698475
Ni 0.3337165852008511 1.8730506616635625 5.228641213408155 -1.6408860079524579 -0.5899414201292614 -0.9268081276518877
Ni 1.071878074407448 6.81524585698499 5.7561698550363944 1.2596050359805144 -0.6986584604217065 0.06891919156921679
Ni 7.413504701045352 2.1780758369191116 1.0638378115823743 2.050700825698036 -0.5634539153616941 -0.4799182594308832
P 1.2189045977320652 4.450267108312818 9.216121831565289 2.8275971839867236 1.192837343536662 0.7277582060011402
P 2.488092624330323 8.492841939277865 6.287048527690613 -2.7970717617043572 4.463648746665015 0.9243185284608145
P 6.8341951469042215 9.16431737371204 13.49082828948177 0.9880710882274274 -0.7344572152878704 1.077600242737512
P 8.750927123997903 7.785539914956635 5.242191085876743 -1.079382274338599 1.0635514779539297 -0.149106242742769
P 4.163927515164503 4.503507831927837 11.762099262442625 1.6495341705457591 -1.6494282410955141 2.1292984208972814
P 2.2923555008753542 6.205459214285889 0.3176322922962467 0.3312601599691263 -0.38103697428193734 1.1639324875768535
P 8.628736225681742 0.0662066716427558 10.223498858785435 1.941235337275341 -0.9033624950344378 -1.7205832639737852
P 3.4748307480072254 2.044602011503925 8.079736117275239 0.17303010054821813 0.974004325721716 -1.670034090271324
Ni 7.08918176483329 4.607568818169185 12.275527070637924 2.00252555154439 1.0480078737923757 -0.7502157636737079
Ni 6.757550354974446 4.180625870545615 6.623842959782919 0.322409908667348 1.0284026979669385 0.570517764187011
Ni 1.8188775425704102 8.185923718657623 3.9701399458910855 0.5027900218227341 -0.013304944639022247 -0.16428423603478806
Ni 8.986446454519886 0.14970127398916075 6.797070737856693 -0.19942350294008235 -0.3918191524991058 -1.3742543825969946
Ni 3.374951414213262 8.593352288193394 0.2946124839361141 -0.7831281981310126 -0.9053800396850987 1.5979303303265384
Ni 2.588348683569997 3.871795768288392 5.200852060905328 -0.7783600873184079 2.9263303735935793 -0.032856384408388575
Ni 5.0804440157609925 6.836973497066336 3.9516276574888782 2.822488916225881 -1.288981689370419 0.8115864534717055
Ni 8.97748038891198 8.189643882434012 12.90460488159824 0.5607686552200472 0.6830500644604881 0.34317465201852515
Ni 4.593168488006906 2.906446231791696 5.915931582053251 0.9079763396573652 -0.8811797882898115 2.145350589264138
Ni 0.36305784654000384 3.7442553686431443 3.6902480087461047 0.7040734607896907 -1.6451848924381278 -0.14318242105916631
Ni 9.045309805412133 1.663836185388305 11.329710748501311 -1.1431762288661085 1.3093101165151257 0.9441309352010514
Ni 6.76316356411553 6.347409362229558 8.316938468725935 -0.34708324304431193 -1.2546242949364714 -0.1326457831939006
Ni 0.4590003994262939 2.968172696071341 0.9877873040432065 -0.13806181200314932 -0.2974313843451394 0.8923718003508889
Ni 1.170288178963141 6.798180194294309 8.357354516355358 -0.31641049655080344 0.519761616680066 1.3340952938796056
Ni 5.655430645412596 7.655776835181696 1.01854505305823 -0.8057217671608123 -0.10243532104879133 1.9644536843733327
Ni 5.037356042907868 4.337484928003274 4.139274601997217 -1.1506568535138697 0.09092346375444986 0.35872699793082735
Ni 6.014958574526295 0.4562597218087509 2.002086661328281 0.4998651348664552 0.018505772113671354 1.7022307296085264
Ni 7.081816782369652 6.374797302132703 5.282179550125284 -0.16905568928150239 -0.6525320983772891 -0.11090736307554448
Ni 5.735475384489909 9.47549259186881 9.872534840866349 -0.9206341376306919 -0.7034605097960401 -0.13611600113068817
Ni 8.135988760828711 1.6458569634917772 8.705354646830317 0.9081408902596877 0.11930715710346548 1.201321726858589
Ni 1.558494332631541 2.3589417234046635 7.1287925618225065 -0.2863180480407972 0.6453535783509788 0.8094184992861093
Ni 1.097523659124182 9.245407525901198 8.47212298157741 1.2124353202732474 0.5440518566859984 0.7159694408963283
Ni 3.031999404710821 8.593097998517539 11.600973789312297 -0.026645370501670238 -1.2680027731259065 0.05841752070694456
Ni 2.7533638469272845 5.906442809889421 12.07525323100299 -1.5436751685273995 1.5437749273300574 0.6406620864125805
P 2.689169830978236 7.925276800906755 9.54964911222967 -0.7708997743856207 0.8984234058616075 -0.26431223319366737
P 1.3463790704243137 1.6015728873485227 3.028803831117583 -1.0327972274902084 0.40157314656207616 0.1296023683818865
P 4.785788208398621 5.211827014952486 6.504290081400344 -0.22089041456460667 0.35245787709266396 -1.1135653479782113
P 7.029254164556912 3.5676841522386904 9.329526550673869 -0.6620413234193051 -0.42549263349215105 -0.22838029518374858
P 8.585789524870759 3.0340619765260857 13.05644030523735 -0.9580796840716596 0.0415341146880446 0.2906894376356155
P 2.019559187500328 5.6074546599013795 3.883532649549499 -1.1641698003986403 -0.3371495288703677 0.08623222892636762
P 9.01310919794004 3.6319629314130237 6.235039696283067 -0.37645938221358394 -0.31328557776857663 -1.9463793433701253
P 8.84317776751623 5.800648886597804 12.178567359048216 2.5405129472038634 1.8045652634133953 -1.0025571976587442
Ni 1.1995032372779808 7.661860951129918 1.5820490911245824 0.006376335839989019 0.3993668829393767 -0.6528835681794369
Ni 3.614454616323634 4.167685351485464 0.4992732913863474 -0.20974699635327745 -1.4091486233710184 -2.2222473997221925
Ni 8.143852904507916 7.660580084614503 1.3479622591099116 -0.0673184227410002 0.10794545223374312 0.8624295042655018
Ni 3.569793814734669 5.291739900123799 2.272163958798892 0.35507191767674334 3.447196279081418 2.01968920780787
Ni 5.653763635315328 1.796038562424219 8.473763620893479 -0.12629567260615668 0.7176959366691317 -2.303195754541801
Ni 5.201419974514737 2.626699333943313 10.452320010882689 -0.1116306143948142 0.015670873768037528 2.204249163372559
Ni 2.228547628508159 5.201711936735163 7.30179995551054 1.208273475586074 -1.7535376074126188 -0.206005012812342
Ni 7.040386401477653 1.8987810096055813 6.60939648075354 0.924329327094092 -0.6133960516077759 -2.2178965789526646
Ni 4.471514423450883 6.829212952884702 8.17591035631064 -1.4624848729003135 0.323405696921714 0.22939588093245658
Ni 7.3218003094233035 8.534328828986721 3.7518360264244515 -1.2910339439137573 -1.0493538462973089 0.6536962938887193
Ni 3.349908590209665 2.4297849434704992 12.72783400070756 0.9115614859054624 0.4730469862323466 -3.3168341497153717
Ni 1.0696836486861852 2.246234888184261 9.533465928895566 0.08666108893367011 0.05234843169472919 -0.49990524407577136
Ni 7.911931301992466 6.186001345014948 10.41892047467962 -0.63838948832832 0.9838287680113056 -1.0339048587320903
Ni 8.859979722394913 5.83773750672799 7.02051601784366 -1.0344265355635154 0.2692104418262331 -0.6518034477413807
Ni 4.823790387734656 1.0840463063038932 0.18514642936243578 0.275208568391197 0.021551758028846756 -0.07557294944030857
Ni 7.1006530546551705 6.75517698466647 13.179797168807985 -0.5127664163091556 0.4360521541755522 -0.609825303537382
Ni 7.670544472653542 1.802452313137438 3.5782362319730385 -0.6403162730373876 -0.15890934487611985 0.07041711627098196
Ni 7.225462194819018 8.428214689066252 11.16522111714079 -0.6895706391878254 -1.8498012524330594 2.152751766824215
Ni 2.31763377828252 1.6491250567333149 0.6254697230040235 -0.6737879224322718 -1.2128826922233111 2.0612117525316886
Ni 1.1147494301292888 3.2940213703385304 12.057650734552173 1.3818265385172976 0.16809383958886534 1.4448185659688022
Ni 3.3634612881190957 1.0907331829652525 9.879730296879417 0.9566753475249653 -1.4816280214876676 -0.04423531566929156
Ni 8.976171267988136 4.072637521532736 10.597842457865307 -0.947702968823026 -0.20382471733157156 0.5552112157369277
Ni 5.7371894852678915 4.898645733797307 10.442685257608645 0.5777531055931857 2.0096094549743646 -1.1823528990655703
Ni 3.022920321469201 3.1238827409195817 2.8964319276310997 0.23791368859548057 -1.0384706237259018 -0.22685563100910605
P 7.0095702600185446 0.016719075280626498 7.78027046778476 -1.8374830971873386 -0.7714929278849294 -0.8944225122323306
P 6.893642422237319 6.229682660445066 2.522791863321091 0.04617084212910758 0.2800111319861629 0.3599189613563995
P 1.4138317614787566 -0.14814163064391983 13.535654850266848 -0.10368513429549239 -0.07249379629435257 -0.6453705476318433
P 5.3388588352460244 7.218634046115517 10.320292811179032 1.1822518547113317 -0.3953497913601836 -0.07474299733984546
P 3.842787908968693 7.747613080709742 2.753253654734414 -2.020892484087352 1.825721071555404 -2.178786757435396
P 5.564300760095256 2.873190793071612 1.3972549000538856 -2.295134317689905 1.2174685118217807 0.7002774840823682
P 4.9688485206054365 0.8818332724371631 11.8238539811307 -1.1333142484703642 0.4808669964973977 -0.8265178779705571
P 4.97189999671569 1.8328634747424082 4.0669197710804665 -0.11746290480587512 -0.373750210812537 -0.34556629217915324
