# total energy = -381172.6534164159 ev
CRYSTAL
PRIMVEC
9.21481870368730 0.00000000000000 0.00000000000000

0.00000000000000 9.21481870368730 0.00000000000000

0.00000000000000 0.00000000000000 13.48681862099169

PRIMCOORD
 96 1
Ni 7.677529051582948 7.047548746027169 9.007468840011473 -1.9080087140117268 -1.020240216760804 -0.040607489108717164
Ni 0.13669262283319825 5.5860416170102765 5.282044743121427 0.4604881757307296 -1.4384216613035228 0.17675511480828915
Ni 3.301356290411123 4.770926385922491 12.480311066272755 0.24217066409962168 0.3202113583541324 0.04852237308041966
Ni 8.379753536929227 9.066312830229096 9.811296839488877 -0.7282153481432168 0.46678532159335095 0.1328977513037066
Ni 2.8701949163808314 9.16848674164709 3.3366656332837303 0.5096913769282576 -1.6681517856469463 3.172091583257937
Ni 4.932784679037303 6.821103787586895 3.3866071870095684 -1.712829073949663 0.3018536817825511 -0.3189941981175797
Ni 3.2921599011979956 0.4328154340140154 10.370797603064092 -0.41629399771201847 -0.8028274763321529 0.3998836746747952
Ni 8.841664761464736 0.6801172134412552 6.820014595998727 0.24326492560506494 -0.09692339009162662 0.07785017551025947
Ni 6.712129339856991 2.1101105834701968 0.5550592208891137 -0.3191163255177408 -0.13849581421677437 -0.7322959459704936
Ni 1.9450271037575944 1.6776867792573416 7.225913544149471 0.07874594785165148 -0.4973261704946854 -1.5227003660479452
Ni 3.583117806412923 2.9532757231399063 5.864014920982501 -3.8823508611433653 0.22150105156541205 1.6220346795739098
Ni 5.254732020047569 1.616104144877251 2.4611961031686693 1.0979114434910382 -0.8429582829147676 0.20047842656715795
Ni 4.442924908927231 0.8222696164435697 6.6039694821134995 -0.5900339798430677 0.26181903445816845 -0.4118110222400005
Ni 5.5712886920301 5.234127685097114 8.337848226723198 -0.5275402321842204 0.6378963507419853 0.7768801603387717
Ni 7.067074947172075 5.27864447496547 6.606815018174635 0.9142986823309672 -1.1579937534949154 0.14455616147824138
Ni 1.2834583991811728 3.4654814289632396 9.045986782807939 0.1359923310686303 -3.780949123565411 -2.8843015786573036
Ni 1.3782973147939057 5.025504186314345 10.294165326536827 1.2393524563790654 2.0414147724104197 1.4996337140364688
Ni 4.65587937256989 5.105405880569883 6.061071057661826 -0.5002538856644416 0.9701265879338647 -0.5528432297253834
Ni 0.8901339928342705 3.3040285878778635 4.12131575176879 0.33867239327279736 0.4860117739231307 -0.3493365578548629
Ni 1.6624362540592197 8.62764137883538 0.47878632229703144 -0.5149580246438357 0.4123254999825738 0.454932536019823
Ni 7.670138766864584 3.32843864301371 11.838122968703397 -0.20306212813393415 -0.5363187497077989 1.2936407854089849
Ni 5.461853503357653 2.9753175698310894 6.994129519667028 1.921800882699813 -0.00972082683218971 1.423910097950909
Ni 8.118006607471427 5.09246827490332 10.327841803509067 0.2585804729162128 -0.8697270663681796 -0.8088078622853039
Ni 6.3778341415866135 6.247508958579338 1.5428380416761942 0.22002163880640815 0.8252402968097142 -1.3383504696115336
P 0.4873883556942804 6.141298956504683 11.747855524722562 -1.6710892710087153 1.33667179635753 1.8652957485242325
Ni 3.1562413231482673 2.0654924305944826 3.7453437707998836 -0.478150368897183 1.743323128773462 0.6918267822118537
P 5.240808428763966 7.490247073258698 8.914760390517051 -0.5027578830332179 -0.8374859469462868 0.29097277320398923
Ni 6.197103899465303 7.965344703569743 13.257232716187625 0.5233161668005438 1.76865569400098 1.3671200855450585
P 6.1317524041752245 5.257441176789713 4.330482924863759 -1.8899587984885515 -2.6513393205298272 0.4330066824810091
P 5.089869695987386 2.8885231910751306 11.4877617337666 -0.26725306098954615 0.6205128651582152 1.2788392016197783
P 4.187351908099487 3.3780051536123197 2.26230621753803 -1.5679345552953965 1.7175298218594421 0.62447339246786
Ni 5.31421367572967 8.341530468335987 10.924444192223373 0.21598269285034416 -1.1300816004656795 -0.22357644603720206
Ni 3.908483845216846 8.691500073471625 0.1639353132837893 0.2136252483617611 -1.6867431754958886 1.4232552379757295
Ni 7.2524218135376515 6.767648623433235 11.668080994967163 0.796713393014615 -0.16543274781693446 -0.5635847845126035
Ni 1.0314699628864015 7.556547694890413 10.232152360116404 0.3382111373656627 0.2618869115816264 0.8541464383211033
Ni 0.4187361122918337 7.785757098985935 8.142275675878857 0.8534278149875238 0.741879990114503 -2.045967681888425
Ni 7.86373289610165 5.83615944507833 3.440312072754085 1.6459559662761976 -0.5551273977738697 -0.43831883872254185
Ni 4.666301332690177 0.8868728684429621 12.304173489866697 0.6764328162542866 1.957323758196771 -1.3107129103999233
Ni 5.259440792480342 3.2087565757791423 4.54507117588867 1.8652993480686586 -0.21098858206986246 -1.6894752297150712
Ni 6.196292995406431 3.2202382400672755 9.718966197567342 -0.04707972709662214 1.1977142120129889 -1.4712021981686534
Ni 3.117050698575691 4.506599307186459 4.037049919305499 -0.030475285770721706 0.3415540856959666 -0.6153493186794048
Ni 9.410633751409176 3.1093931841106524 6.443786443065768 0.14775949890688744 0.07851711967029704 0.9272621844701708
Ni 0.8393087379806377 4.22095835244846 12.679605482450945 0.3699004980491436 -0.33102207581639115 -0.45120649331848744
Ni 6.373392598900515 8.47036285068943 7.290934227442806 -0.5191057282636221 0.10683782099186115 -0.8044243885056276
Ni 7.492394126050942 1.2521188002695032 3.1941234434440258 -0.027013038253734124 2.53706638341616 0.27213584300314425
Ni 2.821448524659946 7.587730641881619 11.773656096022997 0.3385898608613201 -0.2498171249012859 1.0611552098076111
Ni 1.1406379218121734 1.0065346630760579 4.898210678708992 -0.4948882504771542 0.37701705448926687 -0.1151694807860081
Ni 8.179146930546677 8.91261886661612 4.739294677253249 -0.6155071844135077 0.14606462770296783 2.3378529396043546
Ni 2.087515847647964 2.314357043298823 11.065921149003922 0.3649359549550167 1.36783125267947 -0.044635379321187635
Ni 3.2315816820726457 6.494926844724099 9.683940671115339 0.7395533988638554 0.39534644892607396 -1.1993095815245667
Ni 7.117286495090243 8.130308390637284 2.9447391149564983 -0.3665400662173429 -0.6999360415825494 -1.2262714548253912
Ni 2.9423930220770775 8.727566874453771 8.12332632239401 0.27528852969951295 -0.30963178306607314 -0.21963057401557656
Ni 0.6971047319927587 8.390046489585604 3.3186340757564277 -0.4100991817552163 -1.500687352111964 -1.4969194004290993
Ni 0.7660315769969599 1.388341467341309 2.3213778137812695 1.284275542144001 0.8577081875304325 1.485363834381016
Ni 8.891710442643587 8.19138420998058 12.973794103154974 -0.8044516421991371 -1.3934504959094711 -0.7270408682191414
Ni 2.9978846611967698 7.443656949148906 2.0176546200122885 -0.09429957931553437 -0.9060824650687621 -0.17278173198283792
P 2.6787386251171563 9.034706001570754 5.630410048295134 0.507692601330674 -0.5063219462353925 0.7278646496720175
Ni 1.1595006559998204 5.415383171892922 2.725659561223693 -0.7199595358923278 1.6034726003010062 0.6935687046036249
P 4.810338166147487 6.504722197162531 12.728981246299343 -0.6977608883081015 -0.5834637828247177 0.2992260143517169
Ni 3.4863345640226657 2.2009041936074154 8.809050753105996 0.4658967483408106 -0.906841968942606 0.09522466223296504
P 8.161758567375164 3.8307752778478052 8.2973739778847 -1.4686092406304965 -1.3820746499723617 0.6769935738537631
P 8.459535438539705 3.33844593628571 2.707222551666954 0.3004706853920954 -0.19909363040448938 -0.09122582548621708
P 8.081644932286057 1.1300224504960183 12.434765902620647 0.46786158537666517 -0.14556120570398803 0.8921761394003151
Ni 5.4998738459361745 9.354423356419119 4.574836883740619 0.015155881804831964 0.17341268069861748 -0.9257838001524313
Ni 1.8017090261706499 1.7445218603824049 13.422419401871357 -0.5976786408725191 0.2615069025343883 -1.8496174185570273
Ni 1.9629775708790091 3.700063072448795 1.4801781949724417 0.6596813078275606 -0.7295932023273499 -0.49394619827885905
Ni 7.704399463351966 3.616383302464416 4.952508077305618 -0.36597519485280844 -0.2668859074581146 -1.6248225267316918
Ni 8.31865007312938 0.2680526299974217 1.3395388652254334 -0.15656475590334326 -1.012727710433843 -1.7588667329350158
Ni 2.4365363264419653 6.788262173202541 4.401193758797481 0.7704739997021117 0.24558688887002225 -0.10102944184020021
Ni 5.264628735493359 5.64532054667766 10.757100317446662 0.894475476957453 0.02290852916705732 0.2737121863513286
Ni 5.185058774716451 0.5689588536437042 8.767713075741177 -0.8311726031337491 -0.403782238398253 1.7511536805614745
Ni 4.06479481738346 2.752623042663104 0.2192564782547415 0.5879501007308455 0.6248384891167627 -0.9814011324064195
Ni 3.0556431457537663 1.2028932379683743 1.616813685928765 0.6310345906251456 -0.03650632245615003 -0.9304755492011458
Ni 1.2017966745251258 0.817571901793417 9.148352362458027 -0.013973174350640452 -0.046056942259062615 0.15590166839804764
Ni 6.313376483725065 7.103685422466419 5.169376074514225 2.093553144976872 1.237679696662333 1.0522165125570848
Ni 2.4528373409890816 6.564618519692919 7.159814727050589 -0.07310263352294506 -0.5940027346828286 -0.05176427705648504
Ni 5.960559499564522 4.401421364823096 13.156526725412569 -0.5346627021616146 0.683223871034191 -0.34827263536672276
Ni 9.032669526604721 2.672629200219057 0.6511329222278575 -0.4852270732383063 -1.4146618398797637 -1.0213702166001892
Ni 4.28275292766212 7.6338139509546155 5.946446083012592 -0.8372455488007066 0.1874082236467611 0.6414185049626309
Ni 3.576510781296879 4.048908469684631 10.25174951536646 0.7559557514812787 -0.721623553858312 1.9851096700607878
Ni 3.96009604560034 5.456048167481631 1.3616829964058608 0.7662309081550417 -1.190976379068523 -0.14184724718751054
Ni 1.8789660674160007 6.0730632229142945 0.4308499131531336 -1.4245796132141078 0.6935625339560377 -0.4650469987460056
Ni 6.269320434799251 4.023401851105536 2.183125122116626 0.4849694487015454 -0.7133191477576748 0.6198315228204745
Ni 8.717734662739936 2.3465628351824708 9.960137358013124 -0.3936343513309737 -0.22305554053672552 -0.21685866769739423
Ni 0.35829519396736087 5.253690745517424 7.8143976774561965 0.17948562636557477 1.8020342694614255 -0.11482006786638935
Ni 7.1316616124975365 1.3648989681848 8.131863852059304 1.0629076737223437 1.8426029349124073 0.5758126940373632
Ni 3.315187733506218 4.349468216142122 8.184961481241551 -0.09323899926150393 1.5936034208164103 -3.433591800924106
Ni 8.39434980998894 4.764540516458866 1.024385610153884 -0.25213574573213354 1.6631756725885933 0.18756120428485762
P 8.87772234762803 7.000792755178062 1.8494344159628637 0.08773066784876503 0.36856069619179754 -1.0779411710166984
Ni 6.673113796842581 1.213269123994408 10.779178101931365 -0.6175923490773106 -0.6968327200668774 0.49361966817737574
P 7.932696600381256 7.210918269433517 6.6833662042960125 2.399231856932468 0.24415915528456014 0.010483673140143234
Ni 0.7879987836554513 0.5213928802176098 11.463782932152974 -0.23213410579922603 -0.5449113764728164 0.9906743301782293
P 6.9599803224877395 1.5787749137125426 5.389359601976296 -0.07715880587018971 -0.20354986640363007 1.3622589007980153
P 5.177806712280847 8.725576473581992 2.1188600539690587 -0.9638135012316434 -1.0815342876845953 -0.572683147269446
P 1.9256667693520024 4.561630205363611 6.335784158724627 0.5760849738621434 -0.4066405337826545 -0.7031920866260019
Ni 0.7565642721096181 7.680745023361887 5.701579780207627 -0.09161689027704867 1.7515339467190285 0.8586006174377149
