# total energy = -340897.85415072006 ev
CRYSTAL
PRIMVEC
9.04476307585378 0.00000000000000 0.00000000000000

0.00000000000000 9.04476307585378 0.00000000000000

0.00000000000000 0.00000000000000 13.23792502018045

PRIMCOORD
 96 1
Ni 6.240361868453989 1.9642964028592185 11.417035188149915 0.5977611732839962 0.4586652635893778 0.2574054787715051
Ni 4.454193027965712 0.3626579124641553 6.092649130597353 0.7505204393983204 -0.6894870783350835 0.34845492658085797
Ni 2.8382194927041056 1.5338651768172367 4.869226449489552 -1.322771127116038 0.44031401477569976 -0.015489610995166873
Ni 3.524481839984135 4.338790896946577 4.991412152752934 -0.05561039027545262 -0.4016957881828695 -0.6206527331701892
Ni 4.98947114661478 4.542551317637781 2.6110611746280425 0.16588063398763045 0.07732772734788618 -0.07310906128084829
Ni 7.349457840862441 6.169487105646092 2.4308668839133527 0.3209567211605892 -0.2966603105070697 0.1618404024799858
Ni 5.165563637312449 4.593509512336567 11.44462261975282 0.29831687227388626 -0.31305083604995115 -0.29022201108089374
Ni 5.7016105608158645 7.877111224308976 12.23826258432519 -0.17622186801263845 0.19617594253706216 0.6462336669630869
Ni 1.9261636820835562 6.443181633793992 0.3688427213983104 0.4845444453489849 0.46586898042666863 0.21426056795291487
Ni 2.8632373071408894 1.7294491317633758 0.32334304116539553 -0.2973797051715975 -1.1357609102386441 0.8595035888679584
Ni 0.5606459654136555 -0.06232655730384523 4.701541970469553 0.3426935986170485 0.2501871066461949 0.456884003319239
Ni 8.651804219365014 2.1192784167327887 1.3207262413792848 -0.10256361909653948 0.541173506696939 0.11245285318579344
Ni 6.912695280725829 0.6811809994309382 4.829830175323861 -0.4336525435951241 -0.30602966753711164 -0.21196817237431234
Ni 0.7830630187291393 7.553824260674133 2.540331128028024 -0.28351503137436335 -0.8839763771983422 0.268904223439724
Ni 7.618539539884253 4.00586221596191 3.7992047576842616 0.4806967894681205 -0.6193175592985334 -0.8839491235048325
Ni 7.5787787617699705 4.005608962598124 12.633256428963223 0.41742733998551335 -1.3356063312074933 -0.1665277806533261
Ni 7.805928939559341 8.771611149961414 7.136512463352526 -0.16272023398177782 0.4550194393066744 -0.44577426655932256
Ni 6.871849131052468 0.7316290694969568 0.48273166356882924 -0.5327130346344116 -0.13023357420798218 -1.3366489135393946
Ni 1.7455940337046845 6.613847266696261 9.068229629913372 0.9034676531537343 -0.20073425133170592 0.48485040662517787
Ni 0.06724419494277493 4.510840378586673 1.2717452318706224 -0.4786974996499046 1.5597962424589782 1.4042730404462718
Ni 6.224108429356772 1.9305142130828665 6.89224597607647 0.37564408540114014 0.36688973624727783 0.5096924053695222
Ni 3.377196919417037 4.29213800943214 0.4696719302842043 0.38479978375847923 0.48971364825475017 0.13365159875059562
Ni 5.951282198456137 5.56559541493721 4.689601074367078 -0.17709527175652726 0.22727266394186665 0.8391952163279096
Ni 5.23028796128556 3.0190423944467626 9.243565978424883 0.11549061157085272 -0.022742950123470506 0.3149704216701672
P 0.24447994368267373 5.571772988060971 12.53646027989561 -0.1465582795099347 0.018631241947942107 -0.5421929491003888
P 4.104576759260198 6.155558170637904 12.52371259093422 -0.6086775630861839 0.13639907958874575 1.145460654024911
P 2.4758501081794058 8.360327687174195 1.469435712117675 0.7019690128521782 0.38793395851208673 -0.6961295233522656
P 6.275003310714611 7.710642361435146 5.812150227250324 0.10637682219504262 -0.2623538239157159 1.0145220833301043
P 4.670028207251677 0.9421115580440614 12.5466139308308 0.9724166695196221 0.4699914872354744 -0.06505379507653956
P 3.9961390957451552 6.222172850076412 8.268871566177252 0.24531692303808722 0.4226546498227237 -1.0088911102965723
P 4.734707307409828 0.9668580295910757 3.954883218308242 0.7861374172709815 0.13159008823587662 -1.216609506255595
P 0.27253046715078605 5.624187389601522 3.656844710566487 -0.4579990907602886 -0.2782926066331594 -1.1623671999722627
Ni 1.4499840448263706 1.1139710996613195 2.669294976677859 0.4176795652056355 -0.038854510973352435 -0.3724322633320618
Ni 1.9296006920206414 6.416372956284725 4.8225627082595235 0.05527537553353706 0.558553135625967 0.30353441191908365
Ni 6.009774680727533 5.599974559071056 9.26742154081715 -0.18316821742348455 0.5313102407496141 -0.14740314400873322
Ni 8.559013995826701 2.251042524005049 10.317731076156957 0.65537316737051 0.9734695362641684 -0.30734324414221265
Ni 2.453238200698581 4.955092002480935 7.033547785924143 -0.6885995335238075 1.9743879127679094 -0.3700701908577885
Ni 0.5518490289273157 9.139733003749235 9.256234977948239 -0.452235191693318 -0.13647544135263592 0.01473319244511656
Ni 1.5707497202999576 1.1763347404934332 11.464730936837368 -0.3642715818981404 -0.09014956170290281 -0.12598431201332497
Ni 4.266468972059908 6.766947969867427 1.6024244802990963 -0.593333733640262 0.7046822980182832 0.06084361364993393
Ni 5.636515401560067 7.8964217932976 8.078522720051073 -0.22005017805149843 -0.21150563091559707 -0.5674923470971259
Ni 5.460441000388385 2.9447125321757963 4.695651116332649 -0.6400280523730074 -0.06468689865542408 0.13476128687500663
Ni 0.6667084741669115 7.4092889480567035 6.920204242962061 0.43757399013671733 0.35798343489658346 -0.8110010132818807
Ni 5.086693304019333 4.526252654725603 7.096017250483267 -0.19547428848434723 0.037551990111845006 -0.12420330885350223
Ni 8.23394521388237 7.157763134003005 9.002053621479991 -0.817695908803553 0.5146929439079071 1.0293064407281305
Ni 4.639927236013204 0.14514131173791586 10.35992037313468 -0.27407162657327633 0.7853825413828281 -0.42275029486032356
Ni 8.028674317771445 7.179750952837358 4.628111157640024 0.3207947416614282 -0.021297990146827837 0.29506416966454346
Ni 7.184825064876056 5.824203278413903 7.044230555494384 0.16092534686488413 1.1701589281025397 -0.40971043095722987
Ni 2.3146633868930966 5.217706695963231 2.6092350369798916 -0.1645176922018328 0.20163799409289793 -0.22852633384330964
Ni 2.415530583783559 5.157839409716999 11.47313713956244 -0.5081158049110216 0.3121841171742817 -0.12859141061886886
Ni 1.1086980028367912 3.381701211387217 3.744598810070669 -0.3969711290136905 0.01964605636570165 0.9790629711915461
Ni 3.5730522172529455 2.618214677678676 2.698670557924347 0.5366843605773337 -0.18810602104473412 0.15871059860175246
Ni 0.9341159875588418 3.499283130287504 8.125371878922444 -0.049807924661062604 -0.711080231124827 0.6282428868126213
Ni 3.4870636554848664 2.712632958555607 7.187941890203212 0.8378826681640731 -0.4155676610689552 0.1665573483396809
Ni 4.078735871391111 6.857675987443487 6.053252856431662 0.6375631357722826 -0.10963800944481762 0.08396143061431992
Ni 0.7292629594981633 7.415005238267855 11.362402106247345 0.39594140219759555 -0.25088438982353567 -0.08993487458893544
P 0.16996918615186107 5.62099458826523 7.944938806464756 0.12943858911051256 -1.9575124771688093 -0.2953981559651945
P 8.5614922608866 1.6300110074257022 8.015444542942564 -0.5299647824653131 -0.04042494078426586 0.6531165101258494
P 1.8912780312221402 3.3252618903150792 10.383563383596629 -0.8751538938107056 -0.6699801186504074 0.15773383651077993
P 3.957753121605708 6.160270492156908 3.8447306677298543 0.16186688484254702 0.07938923786260521 -0.5608892399583114
P 7.0960688056323225 3.9837115913936945 10.378652077291795 -0.9782111647142121 0.2199956706644792 1.0961988316753057
P 6.420406920579305 7.831760782665435 10.102469334844706 0.10421452443640117 -0.7721848117456315 0.46705708719749883
P 2.394040226913783 8.39241850627098 5.926022888847457 -0.5771121295750771 0.5517484539993077 -0.6720961365521457
P 6.762868781757887 3.95818727022934 1.503126549787804 1.1439976963261396 0.19606898464555264 0.513490953180006
Ni 5.258209144642883 2.7747433460239357 0.44979515913226037 -0.06637534210144053 0.16561889568581156 -0.007913598420121855
Ni 1.5130079533569245 1.0995537474515458 7.167211293424792 0.06673118277896249 -0.07748096509629883 -0.7747746839599947
Ni 6.756899238182949 0.964723465524886 9.223471228484824 0.14212569765987781 -0.5455852626113894 -0.5350488818564398
Ni 2.6987492473623806 1.5390568707748342 9.375906237099754 0.535489054717652 0.20668558381913438 -0.7838614767526113
Ni 6.346565475509924 2.004364702915239 2.6398542731378254 0.38526309654814295 0.21688515005995554 -0.25944204958555966
Ni 4.062102552248216 6.853235008814253 10.446403683438438 -0.056928080645611626 -0.2680819846487448 -0.7193558408700579
Ni 8.153636763273475 7.4742213015786385 0.06272814478070467 -0.2893172398784372 -0.5834347293589952 0.9363620898889099
Ni 7.502802752634401 3.698068931332928 8.313959709694016 0.41339816422146225 -0.47369259023614546 -0.9056204378306791
Ni 3.1865152260127405 8.442463179907541 12.270947644350573 -0.718070546399731 -0.9210133753469816 0.9950279791612349
Ni 0.1677912072233081 4.931566573937885 10.210874437212976 0.009499197739686866 -0.5818239332284496 0.19789729610354304
Ni 8.625746257184112 2.0687995944725963 5.871840236141906 0.3960607013842791 1.2269970201375062 -0.3982384257618883
Ni 3.717551350818406 2.7595300546708366 11.563645369397786 -0.23110412187281487 -0.1768031944374052 -0.6461555054269839
Ni 1.2164211300754388 3.2614691769301776 12.75217245040488 -0.848233672381094 0.600403753113166 -1.1358732674467922
Ni 3.2008149963036137 8.38923474969768 7.992966497954027 -0.21030286885674748 -0.1112061252628859 0.9973034054589728
Ni 5.7016648293938195 7.815353582597348 3.69989416450478 -0.8971319407436936 0.4629867737828672 -0.9095362279453175
Ni 3.104642031406171 8.399726674768782 3.5355851910335185 0.4716166815437232 -0.30196989564544124 0.8489831489526088
Ni 3.334957876242857 4.45364129742318 9.161173614422554 0.07553001201751508 -0.8308378455021498 1.1102388547081394
Ni 7.334651563843997 6.102365919480013 11.45682852741097 0.1516878874270162 0.34752393012615634 -1.1216296130435846
Ni 0.8059715944361122 9.090619940700885 0.33723851055051174 -0.09773791557312199 -0.011441666178038361 -0.03850844048784336
Ni 4.591863365471963 0.4252313917976912 1.5537880762604415 -0.26359926628704283 -0.9114385871743529 0.5178926817921273
Ni 6.042869468516467 5.714589795709859 0.3241453116428151 -0.06986535753256999 0.17554926742564606 0.059276783383446295
Ni 7.900157280413432 8.91888702576552 11.275190692522703 0.17435576133817712 0.06541220685722283 -0.05441302753324177
Ni 0.0034315830792899155 4.786949858453525 5.7149045534619916 0.5685940648017369 -0.23983096022285147 0.7291157484702991
Ni 7.905611272497807 8.966733821994943 2.5327859867398224 0.1271402799946391 -0.5306178426682797 0.19148522192961215
P 8.544271032149204 1.780325923595231 3.5542770982334675 -0.7095830777540102 -0.7092483201224109 0.8679272941552796
P 1.761241473681415 3.162646096475982 1.653800543048128 0.6146093551895866 -0.14650248657133477 -0.39854618681029425
P 4.6653791990736195 1.1215144319969224 8.317203161703064 0.2181370201891856 -0.16571634049562428 -0.6907818858871072
P 8.613336842358635 1.5859177878380946 12.414989112908621 -0.48087753802035893 0.14541131038968505 0.32047283954563516
P 6.305845952518455 7.816511312260367 1.3301201322231186 0.20388770935902306 -0.22841371952484532 0.30633357193077565
P 1.7613681003633075 3.175308764665244 5.991074633240891 -0.49500857810510235 -0.44350629646075224 -0.720731638171662
P 6.945545859913971 3.873392617176248 5.98277425424283 -0.14838170587191865 0.19496752405125778 0.06870141913145587
P 2.359733440883876 8.423550580490579 10.191507790693798 0.32771923669540337 0.7200490102823406 0.40789471790472975
