# total energy = -381168.07503645355 ev
CRYSTAL
PRIMVEC
9.26687933459209 0.00000000000000 0.00000000000000

0.00000000000000 9.26687933459209 0.00000000000000

0.00000000000000 0.00000000000000 13.56301461669179

PRIMCOORD
 96 1
Ni 6.893881720423404 4.89610007930265 11.301028813538483 -1.8083008191964278 -2.5357042129613103 -0.6085235540068229
Ni 4.660897415672931 8.09114399281742 2.9241044565348404 -1.0268983455072702 0.07755012777133742 -0.4421361555861031
Ni 7.849510114950316 4.593629138800934 2.952587136765419 0.5891711176221401 0.00010747211214175038 -0.6260955014523152
Ni 3.29539494950414 1.3858525331216631 13.223193646221738 -1.2739736459973607 1.4247153674610238 1.354078936090384
Ni 7.589555616698045 4.022279695276631 5.3724047019273895 -0.9229658710876619 -0.8827165366493122 -1.1321922190507794
Ni 9.188805846445735 8.543590107984569 12.063636452342227 -1.2144047852947926 0.662749148119607 0.03863956674906894
Ni 0.8473986577527818 4.227392801804356 8.219743256990963 -1.5228335491916998 1.524091589968517 2.840007898946251
Ni 7.835090850752379 0.45414751420747196 13.499974017227348 0.5829117669759897 1.8075677976851448 0.1931260999671448
Ni 0.3774242403810058 3.519014014003126 10.604120568940472 0.46751808599431743 -0.653441754675752 0.7132358440152491
Ni 8.73265297955675 2.8173351799391124 6.84130700737676 1.2467605759176785 -2.000186618998568 0.7173861187381968
Ni 1.2710451654171364 5.1093124383425845 3.187484920066017 -0.9262656248848564 -1.1364538225406104 0.9044678122834745
Ni 4.98717496910813 4.147836642974478 6.171551645829117 1.6994539381943377 -0.4029828824254092 0.46568103278557865
Ni 6.04247791743518 8.559890548681338 5.306502363064889 0.12950106691733182 0.6911724364573064 -1.101432312160103
Ni 4.4440987743421205 1.9203939320481482 7.229792194895722 1.5871926321940601 -1.2683156763806351 -2.1571018162627946
Ni 3.9971293848439817 2.125043694610645 4.88161409357372 -0.21654936398709157 1.445150238276608 0.4825855218504011
Ni 3.7007931184419025 6.721378762168518 0.13262294316759513 -1.3037825018286773 -0.08770444259651991 2.0726876143817723
Ni 7.24433656196427 4.6547998090905125 0.06674655156714791 1.2690358423761112 -0.8694043929214382 0.6889088372341102
Ni 3.7322819743188886 5.242885236638901 3.292381360354289 0.8700584815656692 -0.08147311697482743 -2.070339168754254
Ni 3.253860796460982 5.039838644196097 12.224942240333379 0.25541030271834725 0.8736785948167599 -0.028961163119040446
Ni 4.3811025288295395 3.8326793447047827 8.467308864300932 -3.03616147288581 0.20963901002050347 0.10104049758379374
Ni 5.667382443823416 0.9578987799565366 3.204371027534836 -0.8568067587620856 0.6005222809689013 0.8218374417757525
Ni 5.620315963835419 1.3139786172352874 13.221931497260453 1.1415170959961307 1.2908118006006222 0.3194024892995918
Ni 3.7065200498521373 7.471069297909597 11.31053663170499 -0.7496130970927026 -1.0239446621955848 -1.6190665980845211
Ni 7.168737360597451 0.7510379399919656 7.566684031886394 -0.13826492915289093 -1.3501970845374747 -1.3243960643139705
P 3.414316811619904 9.170902235629274 1.229286753894807 1.3617999588837257 -0.8778921186774751 1.5170647650287228
Ni 2.0265831019994094 5.95061534288881 10.040211502809822 -0.01503246885309024 -0.8018599702125608 -0.12842120358959175
P 7.397045466024558 8.228988822473148 8.990813409975654 0.4923402872443198 0.8197597333111172 1.1203777429143544
Ni 6.32802753632672 8.282477249819225 0.8764012099123473 -0.6662450770880075 -0.3503230901378483 0.0641698498096895
P 7.531489350975504 6.599343228606414 1.3980755469244133 0.4543962039003787 -1.2138949355379092 0.11785345537607446
P 0.9830305566305761 1.8531719895726748 8.875704868693727 -0.1750676998035372 0.35912577603114276 -0.7051340408437211
P 6.158026635484073 5.823798099605539 5.584598630931751 -0.9123654698639965 -0.28259303378072625 0.2143595554246244
Ni 1.3751770881627792 0.7957265387504052 1.5657550945012606 0.69693016487669 1.280900455024181 -2.3135051068876096
Ni 2.737491747850792 3.325187966468387 10.902710540389426 1.1616462626458381 -0.1938048712017243 -0.5000975625922355
Ni 8.755143695628982 7.075781294293139 3.222449782370154 2.4758111361501034 -2.5211093458662712 -0.58174088659634
Ni 8.157050038431642 6.246562400360096 5.280434631581087 0.8830068141962212 0.5055914958272711 -1.2794025303224161
Ni 4.2164300835870305 6.568438186125617 8.805176503682377 0.4231940672659615 -1.1813239435804235 -0.42598294286500826
Ni 8.211520754984003 6.362750533081006 12.328007545271063 0.4380614712960971 1.6508868279189115 0.5871283761604986
Ni 7.304515676168258 8.542292744881927 3.0088871352925057 -1.2342272193373582 2.2172185790490335 0.05693862216857291
Ni 8.403187619640773 8.872193648125219 5.531810779661101 0.23688550444128237 -0.001743465053667965 0.15632487197839529
Ni 8.054419350133342 1.6836622333331717 4.055557985547332 -2.8299865101545065 -0.5548358346753799 1.2146541823014372
Ni 2.584745776273286 0.48579390703263614 7.1058940185933945 -1.1407444794961645 -0.1394383806357018 -0.435541790198037
Ni 6.43837753508574 2.928157789542667 7.604728278183445 0.36027068826886344 0.026192085014335533 -1.288588310586742
Ni 6.212515885795044 1.34240940294176 9.564339643448605 -0.8015426960824583 1.541380973176584 0.8634224643063905
Ni 5.7258657191146645 3.465275380915827 3.764970891065819 0.17969645682480018 0.4534364110902707 0.11979875202790335
Ni 4.574557901192095 8.66000064580879 12.887250737671856 0.40233522153908124 0.46032645334188466 0.8870920400091884
Ni 1.9398636454670852 8.660139648998358 13.309399717640588 2.49185533409716 1.626969912091998 -1.1253476853251199
Ni 3.6522068702479538 9.165740583856618 5.060998636400191 -0.042756931351552174 -1.2981726118410675 0.45945999157653133
Ni 8.035060839266059 5.009118939301392 7.459034401756731 0.19551851145872134 -0.36155186897413216 0.10919218015665065
Ni 2.8128314765970828 0.9797871488739708 3.2173780193267536 1.2807389897456525 0.4487199794512079 -0.28827157222274225
Ni 6.622658696936755 8.879903691706636 11.392878414453829 -0.1763897610490704 0.2671443033258238 0.24121395661330713
Ni 4.298265894725837 6.964393405052005 5.778928796700659 0.589464737603159 -0.9814283860999292 0.6829420781277141
Ni 7.2988906804303735 2.4516363219422 11.674174535744562 0.5185254302801199 -0.5020055782482258 0.4878357145057469
Ni 1.4749165101180477 1.3545026804342457 11.014374582633836 0.2030947811440825 0.34692074932451866 0.6398084801630336
Ni 0.331266841252789 7.658130523551987 9.895914145094308 -1.2143988717575216 -0.3443445039569102 -1.6897801625499995
Ni 2.6325350728470407 8.09708406245166 8.677576209097868 -1.4465936555913537 0.49175047617912077 0.987174544555087
Ni 8.474514789648177 0.7798153069844296 10.06625236034364 0.21814319083677267 -0.008431675707120962 -0.16591868631441747
P 1.7603549264579328 8.577960963325282 11.059661821795354 2.5166443681163817 -1.5805273043587424 -0.5233138528076987
Ni 0.8178576999056196 4.7186671412577255 5.94477813561485 -0.3749722561450961 -0.005361778532545605 -1.1006563532260272
P 8.656998176914103 1.0871810131348283 1.9330005946541082 -2.8493047508671445 -0.05324703224959862 0.40626823804490036
Ni 4.682869186504106 8.964880974929699 9.581876285844606 0.182073441697409 -1.754967912101242 0.16085798396205844
P 0.18528754494349284 2.117834062511676 12.694343964564132 -1.202986773265838 -0.11772412888706178 -0.39919564746883507
P 6.12904910389863 1.638078454033909 5.43273301288818 0.4748315889365951 0.01373997529391182 0.03322842303582664
P 4.96788132639598 3.423870964182933 10.389879586297727 0.7787884331050782 -0.8453568650539314 1.436330583102449
Ni 6.097856788159391 6.256125819802429 3.4979828314213663 0.24352229303150963 0.31052318453209105 0.21605314107696338
Ni 3.313344894717125 1.706356820750105 9.053542769364263 -1.5394477607096133 -0.7587718807738353 1.642999454751035
Ni 1.4076853007632701 1.7087013412141656 5.3882464320985815 -0.11422999969087423 -0.1383826856776778 -0.26240524597894166
Ni 2.268671056952437 6.762560773798103 2.043458089213062 -0.18646154346277566 1.1576703087172255 -0.6747495150145927
Ni 4.850849907658352 8.843447788522392 7.330795619188136 -0.2643032343326029 -0.551458690673031 -0.04274947515238445
Ni 2.3654636112888467 3.109612553205783 7.255154716864444 1.4562000683328664 -1.716861335037508 -1.552415633724191
Ni 6.089451728630131 5.0398664448340105 8.532451319060456 1.87106453268721 1.9005841394128815 1.1650200642140776
Ni 7.849964192036242 3.15912548933019 9.307618359385705 -0.08274966969440588 0.4825006754460787 -0.11705872738892098
Ni 0.5722335038099616 0.02509934259647356 3.5848542647742856 -0.05288244982132828 -0.8952727760477679 0.7982213450187092
Ni 4.222546223928058 2.821421873712435 1.6620120232138655 -0.06999725512474396 -0.7261294121484655 0.4315640364972116
Ni 0.5780215966236066 2.5579737619623346 3.2717922079153574 0.12328208259081348 0.9423075088390674 -0.7774709998452353
Ni 6.271592241361786 6.775024726462772 10.219446848879487 -0.16940304531859213 1.2877213346007563 -0.3743719035569359
Ni 5.545569315364622 5.086302777029297 1.5041794615860724 -0.8109285081727325 -0.3591910820514394 0.1273002026112711
Ni 0.19129804286044788 6.791362234676758 7.055670312826325 1.6042914966578758 1.2540648228885758 0.8642603868266535
Ni 8.539966758176476 5.542622447745763 10.026390879014958 0.8096337006207089 0.3109201628601936 -1.5051893537473755
Ni 0.2500370840205023 8.111271654666982 0.9321618760639074 -2.508630239562654 -1.407150619104383 1.4553832288585258
Ni 3.1326778157948993 4.748701097083891 5.321435012376301 -2.431846557643696 0.13555627197247622 0.9889370357721485
Ni 4.141544431926664 1.107345742501609 11.232332510565652 0.8527143338602671 0.9422254906482224 -0.8266870565585699
Ni 5.266719650210298 3.692415859550556 12.517998031461635 -0.7106413438151954 -0.49238168200521654 1.0005198555137413
Ni 5.693199969565995 6.369932364542061 12.925918644946105 1.2787119320132945 0.035533159909603325 -1.5913861014501174
Ni 0.12457558517949188 9.195246327562423 7.8951254016392145 0.7413205180666071 0.3190656747854634 -0.5879020211017295
Ni 1.9213298868579114 3.412111294345412 13.440038621949071 -0.4702601675158289 -0.15754974552443188 -0.8088626267826393
Ni 9.190863093651354 3.219601143671924 1.1169239889508302 -1.091288795968198 -0.9366269135145224 -0.1467536833501924
Ni 6.984585935056701 7.1570332920357576 7.12291542250006 -0.43373687577881437 0.986466719854785 0.9595709239052054
Ni 2.402670131696763 7.028075399633126 4.5367332799345625 -0.8495606187226337 -0.10985141100720436 -1.036703247412834
P 2.7192823300172786 5.298189972328674 7.668202694668143 0.037963880838283004 0.49285630764879 -0.06750996992651598
Ni 1.4591350146623365 6.640098963787987 12.67280588368441 1.555180855174154 1.487167206138342 -0.4786974996499046
P 2.4119277441220457 3.225995290392089 3.773583528691502 1.7585319753034165 0.8263764672966865 0.6651847541442931
Ni 0.31442799486842415 5.539295638075416 0.8405921349035627 -0.6141468137308713 0.2327948793116765 0.7050713059265857
P 3.3729957968007507 4.574872975088451 0.8854577310567201 0.7030869285067052 1.9240500837453058 0.29671867454883094
P 1.2685523748842027 8.425326194299432 5.653959369150722 0.056063161542155064 0.8039716172389252 1.1306127903788012
P 0.636477997964871 4.9977762790325775 12.090844009980493 -0.9063606584308134 -2.419082573109808 -0.7630751361348793
Ni 6.610583953202878 2.5944574657844934 1.76206651906549 1.4401602412611842 -0.01700244809526749 -1.0488681649101421
