# total energy = -381170.40341307246 ev
CRYSTAL
PRIMVEC
9.21417065129803 0.00000000000000 0.00000000000000
0.00000000000000 9.21417065129803 0.00000000000000
0.00000000000000 0.00000000000000 13.48587013081413
PRIMCOORD
 96 1
Ni 7.8648106081212115 0.8658510050188227 2.4534304868967842 0.996997958403412 0.4053313280529277 0.2696164190154002
Ni 7.876309893040931 6.694795224222286 10.687646408893345 -1.177591987341817 0.1602450329684079 0.5481414533743398
Ni 1.2768905487898035 7.072622290034031 13.214777360821268 0.49439665555271634 -0.0797309374727401 0.46257976815243557
Ni 4.276517719614939 4.0238559473524385 10.220360803475378 -0.07107171913584534 0.01990470934372701 0.7147674501684271
Ni 3.8814601547648335 3.436074790049742 7.776371155784319 0.03869793079083013 -0.10465084064287138 -0.7019990947591652
Ni 1.3119965388091364 3.8476072919482904 13.165957920684933 1.3865062033811542 0.3676443550251153 0.2708029831243336
Ni 8.348287354132871 5.812695029334935 13.243987203068063 -0.685644821770858 -0.40338423162888587 0.5688367769401623
Ni 3.9565556452261363 3.8801885992208267 12.600873108425708 1.521367763279451 -0.6800601285942288 1.0801566906107782
Ni 2.172839642102104 4.718291129451402 6.635331574198726 -1.4531157729805877 -0.5278557065421102 -0.5265778682709512
Ni 7.204329644715488 1.767084425175241 10.092070063255646 1.093607931019678 -1.178795263621299 0.5547659006693929
Ni 5.216667189337409 4.100315135063836 1.2333075218104215 1.127433621319871 -0.8594537094666295 -1.5281840148703358
Ni 3.14460293118319 1.9585825329368678 11.91797591076302 -1.1135563491171467 0.13100670492858085 -1.3854127132066592
Ni 9.117182248921134 8.21625750348011 4.390769749495181 0.1693552227997922 -0.5379866243285251 -0.021292076609556877
Ni 1.9504924911423864 0.30822967095268305 12.861879233591491 -0.16376718718905345 -0.8432115365761542 0.1735245236861334
Ni 6.965885337702286 2.4382538264871143 0.45244710506963703 -1.520976184267987 -1.7941240134754135 0.7915932981792303
Ni 4.213907430328491 4.376574398255343 5.207649280562626 -0.8071541287319647 -0.14705141709626934 -0.30108389349606207
Ni 7.672262084910188 0.63188202067029 12.142178795683337 0.3454343945869792 -0.1444368622915577 -0.4432466150414624
Ni 6.768978511793323 3.6749337347403377 2.8992194322845393 1.407170159488409 -1.008411342446676 0.5389590155441234
Ni 9.015614446300896 7.587961638010745 1.8879273512919208 -0.5913807236789492 0.003848941432444984 -0.5095047148387483
Ni 2.1484773750125723 4.931534679849676 9.183500320460544 2.2878591241847306 -0.06255982501009226 0.5568407809205507
Ni 1.5234341117680958 8.390626468080074 8.250493675793978 0.22044869904149775 2.1715673568688216 1.130852160083117
Ni 0.19085495865313618 1.0976104312553776 9.166952591464291 0.7022459206626486 0.5770488804373094 0.3284306609401311
Ni 0.432040481422441 2.024380925253943 11.591320662844021 1.6812363867450464 -1.4197019734068324 -1.5181438570255144
Ni 2.0979284350529763 2.150863845200238 2.527952855946223 0.7031131537589503 -0.6957415438852277 -2.134772042417343
P 6.712348219231953 0.6204905415466937 8.097051014063544 1.2623859411597613 -0.24539019947818383 0.6312909296103256
Ni 8.906951732311922 9.230018982195872 6.640442674635398 -0.227467296451176 0.5806725932328257 0.694646768159152
P 3.301262259873138 1.1120398224286783 7.587986516271388 -0.0640081274208446 -0.0630025689744657 -0.4688113508844442
Ni 5.820121650845587 1.7101961358368256 6.456630106578529 -0.6743918745648579 -0.0638093811464772 2.245418952742649
P 8.318562439749048 3.990104440412591 1.0052770704192273 0.7416395919689227 1.0352204922197206 3.0438426435801516
P 1.8094696099754854 3.725031180340105 10.96669572294518 0.5348745610621046 -0.3353690399311772 0.39181298185151875
P 2.1780825051784825 0.32145108435917674 10.608564868226697 -0.03473586081928856 0.6721172195980682 -0.45524646771581595
Ni 4.124060052722581 8.455144090682532 8.614099590688179 -1.1050477974255033 0.6728168167682541 3.090773503803735
Ni 4.5866667023054255 8.808415391821962 0.6315383321065836 -1.2557224130966567 0.09581575884974466 0.07475765262786481
Ni 2.9401957703987063 6.610577704858321 7.801548876972725 1.493643043670673 -0.29057476643462216 -0.5325173736838378
Ni 0.4867155269806348 3.4675319685080104 8.92706626675082 -2.7705932557978543 0.8193105615888406 -0.28068476101441986
Ni 6.138452817036641 8.91632254382102 9.98774353795515 0.8374890322700802 0.37038669365694277 0.8744118734383585
Ni 1.0390635912073873 5.184297807988874 1.9352623885431852 -0.10282098652298421 0.26654960716461834 0.0755320689000441
Ni 4.388976671894719 8.03420392059245 4.359631381339976 0.5778256107023338 0.647333327785169 0.47122304564973033
Ni 5.793824407928217 6.3405287926571114 0.8793488435435789 -0.8193036196103051 0.18818263991894044 1.0087216745982435
Ni 1.2921031444648476 9.18622402929249 1.5058184603982896 0.9606600432043262 0.05876564807498266 1.4599772759871115
Ni 0.45307459008809287 5.605477546514782 4.620947102638214 -0.5750763300919709 -0.2532346352232671 0.21066667995406946
Ni 7.685281707980351 5.764790556340049 2.296575817789931 -0.10698154565857705 -0.5572267035050597 0.5544725377986902
Ni 6.116891657812169 3.1729457199757016 8.823225328241405 -0.14522953339618214 1.7038271275613688 -1.5082821337400862
Ni 3.784149298965837 0.8401176693427089 3.5014843443671277 -0.4757461303310645 0.11278118305948963 0.17288174789581193
Ni 2.3826923777163587 2.2526527879150864 9.220450987435749 0.035125897168855634 -0.9671309956406506 1.0425368233754755
Ni 0.32199011333978855 1.9352891096379508 0.7520283554889484 -0.5979452642703444 -0.16567134619030177 -0.5763587963488203
Ni 7.9738511031051456 2.415918676931507 7.417350212185029 -0.08712851548839189 0.17098813041752486 0.14166392753211088
Ni 6.3011842841577534 7.542065854208566 12.533848310000607 -1.2309930286707766 1.2165323731607565 -2.4885550660793334
Ni 6.897737331879979 9.001240340151249 0.6976831772385479 0.5833974483631565 1.0357149153576357 0.20621584327156742
Ni 5.079440546461312 6.996679095876724 10.272524066125628 -0.17772004982471976 -3.1089712577586845 -0.43019518117414296
Ni 5.035424453463318 6.246968104295876 6.173413223160356 0.5018664815672002 1.2033683249749727 1.1930970249559516
Ni 3.211589951508794 7.57754041105225 2.196821363945495 0.5697292068474445 -1.8016277780516263 -1.132375795816495
Ni 2.369543756257674 7.332507972053793 10.145865155520706 0.767917037608213 -0.2506977277340263 -0.08173742637980762
Ni 5.991339369097357 4.0136466463179445 6.616450817204338 0.02999834613430318 -0.11495762188551815 2.059664462649227
Ni 0.8416251076543003 1.2149160372753587 4.347844614297264 0.6056935407571956 0.31106337330627715 -0.859506674191752
Ni 1.0701614170119147 2.1072071048559864 6.9292286027695 -0.08357345114728187 -0.10235458840952695 0.90388700007934
P 3.6202660605186305 2.12603165540966 0.9074640423220541 0.3924662991648015 0.07662761595706803 -0.5345459740780923
Ni 4.130491543807488 8.779372326063186 11.307214611962102 -2.0898037052367684 -1.2729596029105494 -0.4047849686311545
P 5.598751201970397 1.507650237515309 4.508555413803879 -0.5359492821835222 -0.14364084875282357 -3.4658002673358506
Ni 6.377505259310021 7.648987089952488 7.949826074659893 -1.4748634490703245 0.05087621802457689 -0.2677359141632357
P 3.2122257292807976 5.139599866365833 3.0838677256156224 0.04677170893790009 0.8756413749700855 -0.05112381525900873
P 3.9094896617566475 6.953851630887259 13.173281343484767 -0.1221561965164864 -0.10172569657627642 -0.09744609536431606
P 8.304179119428792 7.906394160078495 13.005260942434232 2.5045087611951127 0.6236092446953518 -0.24125895091862967
Ni 0.35904213619168934 6.205789975845377 8.958352983052826 -0.3971770743769095 0.7139716937400091 -0.2925277763959349
Ni 7.754397201716575 1.158156746325466 4.74810542129013 -0.5775610441870376 0.8916205240071612 0.06496560623810746
Ni 5.368645719358112 6.15923077175937 3.6028171856368427 -1.1712645024618926 -2.509884166574413 -0.7862618586639878
Ni 2.0083390542241113 9.286409706321416 5.947389618127747 1.0851546580460023 -1.6960713948753499 0.22620051392361043
Ni 6.025468657032163 8.17177148778107 2.586346740762108 -0.7139637233202092 1.1506933631787601 -0.1053344969734573
Ni 8.387613434291012 8.385521817562825 8.973834632509647 -0.5892636773359464 -1.291835099658814 -0.4248938235658876
Ni 5.196174873903551 0.9982632437518477 12.404155173014226 2.835271669812846 2.145884093170104 0.9617139383901374
Ni 6.813436884980536 8.530451507067836 5.762525713204419 -1.1746724997021767 -0.46197118803415915 -0.7066929006904087
Ni 6.913733132056767 4.977061896827504 5.007722049528116 1.673159523274183 1.0098010237053512 -2.096971169519485
Ni 3.0291401592849585 5.652055178942008 11.569528227937269 -0.38936143498723264 0.9644837878257907 0.5227842055564739
Ni 7.982484780965543 6.619589163713679 6.5478890951216995 -1.6656709282066215 -0.8586037027615084 -1.043109408049494
Ni 7.590384964880846 3.9164002897132093 10.499033257949318 -0.0765589675026617 2.243958051926407 -0.40073316715928403
Ni 4.635815088332491 1.7386955655296858 9.690191247903885 -0.10552167328359892 -2.0592170906991636 0.5493925521726216
Ni 5.5660593246505545 1.5812069614849509 2.0214102766496826 -0.390965803359875 -1.3026555873130856 -0.03803432906490224
Ni 2.9106182827446228 2.2299490715351293 5.669230392956715 2.188161770892393 0.22669236595836445 -0.3637280506898445
Ni 2.6989134988380092 6.78350925884332 5.230117114174999 -0.49903595409694046 -0.7788234001080716 -0.31038228807885254
Ni 0.4477616993150883 5.362702579315469 11.38648412170917 0.8146000434870486 0.14315491025534055 -0.9882528652209304
Ni 7.297217698622284 5.639118483407325 8.586116154549408 -0.7181330242065503 -1.5585343450274192 0.21385279099153492
Ni 2.094896972922698 3.6653694256484566 4.121295801539957 -1.3119956337670888 1.4327927451525195 0.659595947202606
Ni 4.49921500905779 8.674063570175795 6.583006142145763 0.09991178329598922 0.5860724240921583 -2.290166432161669
Ni 0.5019133799827051 8.333839534618354 11.082243265213014 -1.6739205698099238 0.14525652997937566 0.7545203045863328
Ni 0.8133210183783457 7.0559446412321964 6.685997534125052 1.877513373636347 -0.6954551229930603 -1.102603706760385
Ni 4.534431569124428 3.3067815480677782 3.165511727128563 -1.8375967399470676 -0.5172735601508898 1.6253406040186913
Ni 8.317677879370608 3.4093536952843704 12.551286127877665 -0.2737422682583156 1.331202545712843 -1.6734423446219246
Ni 5.96554890556347 5.343288321842835 12.175960709386196 -0.3653607011972611 -1.737156594951434 -0.8212098354940824
P 7.179626453313432 7.200413622206769 3.9946092484232083 1.915749020078778 -0.5178003791886373 1.2473277612750582
Ni 8.955243200472374 3.141460899005607 5.170670971075595 -0.3315653499143709 1.2481520569485667 0.43714153058498906
P 8.981291660783308 4.5881870404558684 6.867908297368277 0.16682140063434495 0.2820063080393208 0.27437578807725654
Ni 0.006749379970908514 3.094910909090208 2.8138676485186385 -0.669491351939447 0.38809310979777034 0.3506498773496477
P 2.140009552223132 8.392377160495734 3.703704982466156 -1.47553450699542 1.1833353175834977 1.5619122603607165
P 6.046596750238024 2.9645856800000643 11.933660271973233 0.1642916922339558 0.6699839753051494 -0.6848917456549172
P 5.002253439271823 5.200413392383576 8.60251553539886 0.5849457666868829 1.097229329822349 -1.058611617450151
Ni 3.2582781539833245 5.1400513607256615 0.8748256071917441 -1.2775711335406321 1.8315998989336846 0.14789422471253885
