# total energy = -340889.67732565437 ev
CRYSTAL
PRIMVEC
9.10634360233196 0.00000000000000 0.00000000000000
0.00000000000000 9.10634360233196 0.00000000000000
0.00000000000000 0.00000000000000 13.32805434532822
PRIMCOORD
 96 1
Ni 6.4769868732436375 1.7752361032089217 11.547319622032422 -0.4636439477508919 0.8001828396204541 -0.9131229168553112
Ni 4.613182474670331 0.12254406238109446 5.980751262858118 0.21374249066591575 1.225515036275341 0.01357233936779598
Ni 2.924748036217045 1.8433606577658785 4.900045949523421 0.9226316276766948 -1.1445479124026547 0.4231192481639681
Ni 3.376750494443099 4.4476473653619015 4.942681849060339 0.5129345664559037 0.4021130782259462 -0.1778648029327001
Ni 4.916068560637306 4.472607852467986 2.599317376033166 0.791930626913991 0.41510691938245287 0.11606988111309043
Ni 7.331262048693801 5.947944750326786 2.4352620475181475 -0.08094964037118962 0.46964927340470725 -0.36761478733876046
Ni 4.7292610332771385 4.239795078533597 11.613785911466424 0.3454765606788244 0.2833774773552345 -0.8693745681247673
Ni 5.536529264385234 7.689159554802277 12.587213947036354 0.71415758449857 -0.17949539655758764 -0.09605924231911844
Ni 1.6181607868671293 6.832270858812368 0.40613016426465626 1.8241174745137103 -1.193769625542944 -0.6516304124986262
Ni 2.500383330040231 1.414606694097225 0.3180071690897964 1.159668827204493 0.09394605263085756 0.9505337534036016
Ni 0.4930474795807618 0.1858094721296577 5.121597819278538 0.4700948455825581 -0.3713883954485797 -0.39013739392130875
Ni 8.608253682175503 2.3266434053787983 1.5521589209436744 0.8567337394323052 0.016394896418255634 -0.8000923367891769
Ni 7.102720149787779 1.2414768944398447 5.078894532800876 -1.0363767173113505 -1.1139952364267782 -0.6957256030456276
Ni 0.7831200298283016 7.875111085888102 2.7739142076032755 -0.943670193514549 -0.19918824700082471 0.0965310397492144
Ni 8.190982817463716 3.937473585853955 3.3231769659156245 -0.0750913818181997 -0.35064190692984776 1.5414431938730873
Ni 7.481826329544585 3.717245778421066 12.625785685538814 1.346278980429991 -0.10792925428382702 0.4480440364301058
Ni 7.8920944162247855 8.826924304896556 7.188432695879465 -0.854525933147709 0.8571672274252979 -0.7838884733358048
Ni 6.977507928806874 0.8759209535790082 0.43964332903948744 0.37103358321232227 -1.1164079596333287 0.6458464588269974
Ni 1.521187336596172 6.432566130411284 9.41864265714761 1.486993399564639 -0.11780666129853905 -0.7021654451337005
Ni 0.10178342082529308 4.69190681287978 1.0567228475037642 -0.663746993256502 1.1291452046943393 2.058127200069094
Ni 6.2193046756366055 2.4670905387743263 7.220446956539863 1.2089424766286405 -2.232345921608775 0.2905737379933576
Ni 3.4196960096537135 4.166671141480749 0.43432704579522186 -0.23469338188597 0.0894111408749815 -0.6726900613824027
Ni 6.26760472073353 5.596057430825393 4.651517448245845 -0.24376166273582534 -0.6641270023037401 0.5395645103386062
Ni 4.896453497074188 3.030072003334511 9.506461500454778 2.349139568261767 -1.6524264044918897 0.3108142334099486
P 9.32999513659613 5.58053111542376 12.452081275616422 -1.6968833492536841 -0.020500948166829208 0.5503194348622651
P 3.845426667332137 6.099838557305805 12.601714888177442 0.033499160198710055 0.20507221658542746 0.8603618231031956
P 2.3321527431019584 8.4687627148311 1.4396026959423514 1.508035564946919 1.9592775394890323 0.3168285579248286
P 6.327579097997548 7.732241665163054 5.750682230173297 0.9819904292509862 0.5333833212285588 0.24952684735437672
P 5.023596262844036 0.8249755157406317 12.948697531153723 -1.0738664867266925 0.03276948112153712 -0.7794391793151996
P 4.114482687775907 5.936507183086639 8.048972124916013 -0.07836593880441342 1.0442653760308078 -0.19835520957656805
P 4.925102053234619 1.217618274878392 3.966989065900741 0.23335152314609486 -0.37081838187772265 1.7783785777156984
P 0.37973998125355335 5.801441898607455 3.284006030021126 -0.6791455871997594 -0.4922161029616297 -0.33330392987203245
Ni 1.6650220297156926 1.1936412728534667 2.738342098598351 -0.7450403901203555 0.4866998011290908 -0.9716214273118363
Ni 1.936727996072586 6.570199403713496 4.556062025410343 0.5268321503736024 0.6050718480127966 0.9585072585273815
Ni 6.046584661429708 5.654647643901113 9.262837675702313 -0.8923576592835019 -0.6448409003806185 0.3575404338218939
Ni 8.750176043192768 2.3768102508612574 10.216459414498898 -0.4574725288328573 0.47930530843723257 0.082659938194077
Ni 2.128316353688388 5.5658334772664375 6.8753566117104805 0.8443417935258555 -0.5166418401041619 0.7381619178329675
Ni 0.412918032593323 0.19268111881708982 9.148242540426255 -0.003234961997529913 -0.4740579439953642 -0.03219586800625423
Ni 1.1406787799643796 0.9224634744105289 11.437096442195848 2.3602595894343286 -0.6382686464797395 -0.8587070611085921
Ni 4.1868325856445106 6.983472583697237 1.457622328151589 -0.28331551376904757 -0.20044860177048704 -0.4304759456393554
Ni 5.6490927744612325 7.897867837904923 8.10658886988825 0.6623634826454142 0.25332770915770564 0.03393367663296736
Ni 5.31254964349459 3.1281108957767243 5.041669622479003 0.6053466989407381 -0.307012086055039 -0.5750421344199257
Ni 0.7066531541338462 7.590920322806496 7.067627034442753 0.05991415985712907 -0.1662112778541718 0.026285416059090214
Ni 5.595092158430922 4.640756482316163 7.057404253404705 -1.9619746267052207 0.5745975906833394 -0.24330760591754227
Ni 8.14449493469226 7.1403020287687395 9.15498669830687 -0.07853434606147765 0.5346459899910663 0.36144568241357106
Ni 4.7306634101521245 0.1369120509093616 10.387458329813768 0.9490000903678947 0.14447182929455119 -0.8944384530719305
Ni 8.212400937008958 7.2797201453663885 4.697059181943852 0.0771480072369123 -0.07251642200217188 -0.09660611596152395
Ni 7.26912946805724 6.130973145199166 7.027962534739006 1.5760792958897178 1.3134565345833316 -0.813822799001392
Ni 2.551479022543785 5.206761252866577 2.4056873762396247 -1.5295387291260174 0.5037246178218615 0.38815558760458957
Ni 2.108819672588743 5.235737637387394 11.568910762101202 1.3246297775913316 0.051703856132194824 -0.2904888915890352
Ni 1.4390025879159773 3.350506012925501 3.907358908415129 -0.5008328980963633 0.0012809235949526327 -0.8284418344661475
Ni 3.810021204410409 2.3735501799440817 2.557520170718238 -0.45993564566136913 0.7384285412307928 -0.6393245985480795
Ni 1.3477843466384696 3.3722974925478506 8.307309068609483 -1.1111752504794798 0.7008348992477349 0.4966509988045318
Ni 3.8277239358712727 3.0425932254326016 7.2582446558580775 -0.20679485570348902 -0.6550255542231042 0.4460743142982446
Ni 4.3081381853308125 6.85783236457916 5.856240230314705 -0.820743180270309 -0.7445457098721242 0.247567923855793
Ni 0.5603342505500645 7.425093810511055 11.443214083654391 -0.07614630544527531 0.5693247723201743 0.1863928950083693
P 0.22765676233297802 5.655886106595905 7.970229574019875 -1.050595946234526 -0.8771704100201023 -0.4498749189912574
P 8.454119714733844 1.8878542513449843 8.04100134258695 0.46330019125822786 -0.4407091933315894 -0.7727843930028434
P 1.7889138309117087 3.2594425794848423 10.535267031168638 0.42832238963146235 -1.1510741435569467 0.2971099964499786
P 4.004150231819205 6.202539897540181 3.702493502203679 0.43544665938106936 0.2528798229870097 -0.1576890993157736
P 6.818820789693182 3.871224938025876 10.541304536805754 -0.2679873680524094 0.17095290630421528 -0.861392064139923
P 6.245439881034074 7.586913531735107 10.301599171594244 0.2781316555752629 0.6453294099812629 0.3266442584636697
P 2.3916262714820524 8.492093166478599 6.132344560506782 0.46539306923151463 0.5181608478518496 -2.0084002651576123
P 6.884186122216887 3.988195918280402 1.4642335334193808 0.68761248702019 0.16567597417599209 0.5826423153646869
Ni 5.321874539078913 2.761662533268169 0.45430180992043034 -0.2766388730798203 -0.060156100664606076 0.08052515123926131
Ni 1.584658549704311 1.3171050759123115 7.0924035734132875 -0.200256540364339 -1.0933060835085429 -0.005564381461654933
Ni 7.0202804234939515 0.806879390247304 9.256919463163005 -1.3271129490245015 -0.3236154989396749 -0.11234178152922587
Ni 2.799781686506429 1.3639936377909068 9.293625311914266 -0.22824196983367143 0.2003591273804743 0.2747365138507849
Ni 6.441954770399016 2.2822044498597567 2.7366228209749917 -0.25246099028203617 -0.601797548136899 0.2010409839388473
Ni 4.001846326953157 6.862722470954923 10.534800786389422 -0.17624655060298677 -0.34776407116142044 -0.8331652080837456
Ni 8.471631212984482 7.22286013752604 0.7336225005816317 -1.5491001961977127 -0.16951488830610806 -0.8366901905178687
Ni 7.715950416920519 4.119108710194693 8.243614750089414 1.0357462828162034 -0.9001838401961401 0.667715748096263
Ni 3.408449675623792 8.721226977701983 12.231341691687595 -2.1639268096044284 -0.6464514394008479 0.4313015268644443
Ni 9.145500620445356 4.789991237038714 10.326602458514046 -0.4531908707383679 -0.33486716059409427 -0.38298664180914044
Ni 8.896733532972165 2.550003794922046 5.805567072142317 0.6910099427375131 -0.04250213502826874 0.6271234284961974
Ni 3.6909375525000594 2.0679777226906073 11.607295820565108 -0.5580473996341421 0.4269154819816067 -0.0043281950617086755
Ni 1.1638999554917475 3.353993742426278 12.879631380694988 -0.017879194273265984 -1.0320472366980613 -1.7522109181813954
Ni 3.314845572390139 8.176512837889996 8.045053665375061 -0.9013248957791187 -0.184632717784153 0.8856812757045909
Ni 5.812843040474225 7.525454820506006 3.422444304074953 -0.8025929917238436 0.1264237135435887 1.1920716690152309
Ni 2.949061972945701 8.711446764950457 3.695749344323064 1.629303445321181 -0.9783947414799278 0.9249276227997232
Ni 3.308197941748971 4.485010692102604 9.385389023158083 -1.1126145540291676 1.1225395264523634 0.0638219795519675
Ni 7.312293535508111 5.967486963143151 11.413012895953797 0.006387905804214805 0.273113119314749 0.7318884261194298
Ni 0.4441819305621699 0.21423674414682817 0.467333897880123 -0.019024877841934976 -0.9679812594560876 0.637536139189089
Ni 4.925293286444845 0.15838480851466893 2.133194621817804 -0.25820843428877466 1.0121471553400245 -1.8263517631608677
Ni 5.7359308645902445 5.263593941676892 0.1577883430256326 0.31779117894841397 1.479171332417059 0.8097172614734507
Ni 7.767291980694363 8.857139152112167 11.417783709231754 0.029020555602066147 -0.4441087059314416 0.15163517981220984
Ni 0.2826608973998047 4.902700448608217 5.388745150157392 -0.6525177001995859 0.7310397049658894 0.5913611832949234
Ni 7.646778632878996 9.03746296301136 2.7815116298552294 0.07363356632575062 0.048776140962438576 -0.258354987168968
P 8.846630431893114 1.5725471130567035 3.5904973173180164 -0.9631784387508057 0.7642624715747612 1.0338295254094647
P 1.8474949376440843 3.232223719229429 1.6581567574686011 0.1070648494010027 -0.8427471953452259 -0.07873849165248374
P 4.818922089842811 1.1242145111983082 8.310468059115538 -0.0734949838653573 -0.6222702141689541 -0.39475715208150725
P 8.70784975932955 1.653229315085127 12.518894516731832 -2.5724846150144534 1.0481935074406203 0.5820548182923331
P 6.403644383950531 7.786734023733944 1.3122750714026192 0.6200876046953385 -0.6211399572192529 -0.15769964083873486
P 2.018147811911879 3.288992663636336 6.215510972999468 -1.4275165843552446 0.8758236661842207 -0.9064455048351356
P 7.30104720147819 4.033381593953656 5.78340223244286 -0.3385867755375266 0.13317491622449323 -0.2635414164659139
P 2.138424394800301 8.285761638988753 10.162721061156896 1.3101292699823115 1.9210187531181497 0.5628576765385919
