# total energy = -340889.33807752206 ev
CRYSTAL
PRIMVEC
9.10944223473857 0.00000000000000 0.00000000000000

0.00000000000000 9.10944223473857 0.00000000000000

0.00000000000000 0.00000000000000 13.33258950707178

PRIMCOORD
 96 1
Ni 6.733945633465433 1.9939293666582996 11.38436507051322 -1.3903512881588571 -0.18554623073735788 0.5109075087235458
Ni 4.64780138335784 0.23068751441962837 6.007784626141805 0.21248470699941469 2.0180344458132664 -0.10577029895929525
Ni 2.965524253444302 1.755362184730656 4.674752579067914 -0.5527995209716414 -0.16446678435923934 0.16460536681963261
Ni 3.5313208182886213 4.337679532903653 4.570798357448009 -0.1944489325436264 0.365644550986267 0.2328136483647539
Ni 4.094111267205027 2.5909348804996823 2.2347420260896724 -0.8435786901075858 -0.7883377673564101 0.8080311320202794
Ni 5.090684244519327 4.594620459760392 2.723141126176649 0.5396843237459222 0.7578673666816947 -0.11081608891331883
Ni 5.128215146407215 4.589127466110296 11.263691378668794 0.9095971630902399 1.0718828806377605 -0.3077808459002635
Ni 6.001127445777807 8.128327951906932 12.484490543046151 -0.6126882269074738 -0.1902883734080336 0.42160229729880944
Ni 1.8628718216434836 6.790169110759619 0.26623711262775507 0.284216171206446 -1.0827221373451095 -0.36276825787973654
Ni 2.7789902053961764 1.4749826630783995 0.18862648692279732 0.34624789162721015 -0.03159782941093913 0.623669665619642
Ni 8.050706394871327 9.208188559308843 6.807633733356575 0.2276071644631499 -0.5443611603963012 -0.14338862353270143
Ni 8.619654826718852 2.5645357169872804 1.2572387550889894 1.413477075543043 0.09838711912134668 1.4806533162792241
Ni 6.8448439828788175 0.49916463888578916 4.655527101292577 0.421237714870539 1.513670394635193 -0.23758330183925538
Ni 0.8138466761081986 7.665249457375191 2.3937728462300525 1.355459875598311 -0.7787637505147298 -0.5134001932384126
Ni 7.57179568978591 3.969503207271916 3.717646260110234 0.572999135847968 -0.9597442162582761 -1.2308986691847577
Ni 8.148960838503065 3.76350228123 12.298300831913403 -0.7214749440955898 1.3224803353484964 0.17216158190033576
Ni 8.517893247837883 7.5107350986804455 9.055268353000113 -0.9880734022202725 -0.453420984471303 0.8176313741142047
Ni 7.320074473313094 0.7476747769810612 0.3532505045775375 -1.3816157080580722 -0.12476895154898512 -0.5774507438614185
Ni 1.9220923054233765 6.458148161242693 9.029776489931407 1.4742934354994675 1.240942683684321 -0.2933325316854174
Ni 0.3672708470764812 4.875983801170875 1.3320746446980611 -1.1017012495507739 -0.39339498162665804 -0.9826414325714239
Ni 6.457647141921374 2.0072746994897934 6.792101223451468 -0.14224705372909052 -1.3018629162084612 2.3990313108858876
Ni 3.586296302000612 4.394622656132097 0.44590446314115 0.30611142861764057 0.32771743692319044 -0.47004110952648726
Ni 6.860065860804706 5.8516779369494865 4.817904730499368 -1.7459952762889868 0.40261572889397756 0.30522825468173886
Ni 5.375909989425068 3.472501149965783 8.848466706988308 0.22141337694761223 -0.7697402068598808 0.12400481968945096
P 0.40765573720744547 5.543605710991604 12.511768767731413 0.36159917727229984 0.7751716622880972 -1.3662495100146472
P 4.3963534501511985 6.207793361100746 12.691278524894647 -0.2401222662110252 0.17195615075774903 -0.784018571155766
P 2.649207982290173 8.536230554998154 1.3080120531114459 -0.570547846093998 1.2157831536995578 0.5289491967166052
P 6.317962955137668 7.891546220651625 5.839180693187352 0.15286699533678189 -0.5920145006082063 0.0035180404555874897
P 5.025105370079788 1.03446825689042 12.408174369078637 -0.6975572569377277 0.5684426268255371 1.2500986391519762
P 4.033888744782496 6.05794303681537 8.120373586972828 -0.03616590839759578 2.0814149669524413 2.1323279517522242
P 5.00777921100436 0.9668670862811932 3.55282821133651 -1.7428736999408694 -0.5713937390340611 0.2141153006243022
P 0.023864916690749582 5.843871144979118 3.17831626865064 -0.41398051908749345 -0.2774662540771221 2.3540133514143005
Ni 0.6889471140245023 0.24934183016866154 4.595476747327736 -0.4335640976463759 0.9524032025121727 -0.06853275476407551
Ni 1.6215535881696892 6.80007107443732 4.51266827390015 0.4159209306433159 -0.2980613046196544 0.5261027284067455
Ni 6.32723636730317 5.672003298882326 8.883078032649237 -0.30520691452550014 0.1790336264298207 0.8738778553117595
Ni 8.63561456946341 2.337719715505116 10.186125439758523 1.8476975758264953 0.8938262734092284 -0.473593602764436
Ni 2.4688683549419896 5.5887885443323615 6.636789788563716 -1.6710396487177028 -0.29445199000184125 0.28118535479992224
Ni 0.8695062789298448 0.24446554575589785 9.095425507075932 -0.11704047255647584 0.14676088243904403 -0.17209344766656168
Ni 1.6544751123014432 0.9100068589768228 11.279543629995324 -0.022313833005851894 1.1457195641132527 0.7307887652973478
Ni 4.2901829012426225 6.874640968333983 1.4181342780488966 0.12035411031074111 0.23537549555465914 0.5975413439637063
Ni 5.473043971665492 8.175387330342085 8.101214608125595 0.28768947446702714 -0.546804222620155 0.09195164790864808
Ni 5.216622283014485 2.5354401585819613 5.019319963334886 -0.6229888375025336 1.032138767970603 -1.6464691584671904
Ni 0.8425587269966532 7.765763042673966 7.12573545518304 0.2434503021429936 -0.35291939011011475 -1.0275002407573273
Ni 4.8028896369115515 4.94425907050333 6.657521968079891 2.128654102445063 -1.1414430482250857 -1.5673948807418425
Ni 1.0705598669097918 7.585796902456221 11.09880774191119 0.31080060656319375 -0.9158529141919646 0.5309993943774145
Ni 4.8150325233718805 0.4088764024630223 10.320397706927764 -0.17189418717156202 0.2848242371040901 -0.4037945796934272
Ni 8.273650883416028 7.731384007789284 4.3653294228309125 -0.31732760904843416 -1.5029779479183536 -0.039024460892313435
Ni 7.435973906497462 6.477533054256631 7.051966281256268 0.6745242863776642 0.2152931229824873 -0.46009556827800113
Ni 2.357605627840373 5.386467832941588 2.3595750892452663 1.1962083168914237 0.8751181554767639 0.7458793410818831
Ni 2.767375666583784 5.677569168070069 11.369605952251387 -1.2449561757190881 -0.18909255332771951 1.2755440758082741
Ni 1.246873120803012 3.7569434828418258 3.71952553803729 -1.292681506819509 -0.7612026017025149 -0.04711212299645435
Ni 1.6957317760515023 1.2542973162007374 2.5826425552597447 -0.13994745906163641 0.6070991628554705 -0.7396169051119392
Ni 1.308507606767441 3.8189514559366926 8.030045269004358 -0.415541178706394 -0.912534648452009 0.21844632389948834
Ni 3.6725900480161364 2.8053164933709325 7.012982423336554 -0.3527191011738506 0.5802187935248588 -0.5985474166307176
Ni 3.9028038714410633 7.227021521180867 5.818142436413061 0.5798418698014143 -1.2854052848730702 -0.6512691725044655
Ni 0.6886209959935347 8.971142654229569 0.20755864065910729 0.12120334568491384 0.692495011923472 -0.22980160101130748
P 0.26285113295985996 5.711310542000345 7.819870396543744 -0.6105297858035743 0.4739203899762354 -0.13669372801102908
P 8.645671393658612 1.8121959946526296 8.003966757857597 0.9030182243211415 -0.21298967166029126 -0.4688352621438442
P 1.6935181815954932 3.2845915761445825 10.617567752453748 0.5836697281879367 -0.4452127376288978 -0.6551679933382394
P 3.88392910719065 6.355502966467762 3.7064999466272197 0.14688455250110186 -0.5084359072546017 -0.24840790325858506
P 7.004332097017929 4.04346276854079 10.351489144120373 0.6092046392342476 0.3529181045585342 -0.6407078520488513
P 6.57825615672614 8.171133220831978 10.19099170378486 0.5393472521214775 -1.2822852511868497 -0.3035565234062707
P 2.297310229880196 8.748480558393247 5.68262946321539 1.5799732316274855 -0.1394383806357018 0.8108691156897068
P 7.002974790129265 3.90909849600527 1.3637773254626793 -0.9254873519579351 1.0656561830017584 0.7616952250682172
Ni 5.441297565578286 2.8356236075896226 0.2675461394727282 0.4305592493817811 -0.047696277634698504 -0.43543534652715976
Ni 1.5517114947778359 1.3577896891008083 6.900534557803963 -0.8117304352487376 0.9975201494554693 -0.1871166605482713
Ni 6.984692139622229 0.8404480692375699 9.097478775349119 -0.1904513813484591 0.43576727594528175 -0.40449109153981944
Ni 2.7470069538116197 1.9059230455080851 9.162061987755566 0.3552140996815624 -0.39181555295468 0.499474841406572
Ni 6.569055620098284 1.889389407904562 2.4364505829642162 0.6936160129017925 0.8590384763060819 0.2502403284816335
Ni 4.638254687926165 6.840152620142833 10.292732330948756 -0.2803019237537044 0.9964544271951161 -0.19103167933196133
Ni 8.157669465251807 7.0344661318347095 0.035322773097202304 0.9648933645593835 0.8113892498592349 0.5866807471001187
Ni 7.879130050925122 3.827332142766027 7.774486244530238 -0.31807065786204575 1.0988277846577206 0.7306362988798837
Ni 3.4885428776901937 8.365574264714734 12.645747710861627 0.56232982905958 -0.12314221457883952 -1.384044629214539
Ni 9.434193820434691 5.160335039624859 10.122462281014863 -0.8662974718613402 -1.029815262043749 1.0779110891097112
Ni 8.505349545920499 2.587546167999126 5.6421115752282205 0.9547663034277105 -0.3966929356516394 0.24134276888168754
Ni 3.8816972938502294 2.8718791875686986 11.701280742964492 -1.9161886787193583 -1.608127068353882 -0.39147513889612584
Ni 1.401733638301578 3.449436042300703 12.796526287307774 0.35443531253400895 0.0034275376243102264 -0.15116389660274612
Ni 3.032178042064126 8.72322007515657 7.827203497519411 0.24852334579052685 -0.1520750955631058 1.1481325444301194
Ni 5.664724854559894 7.775774319658138 3.4719791789273913 -0.501102349707666 0.3040730580313731 0.3158469107378496
Ni 3.1312067882833556 8.539655705267535 3.4736197894686556 1.0183707676522333 -0.07103238125747767 0.3025270537004919
Ni 3.1964668322456924 4.391416132475656 9.457538587975492 0.8176946232519724 -0.2546338295636389 -0.3702887346264978
Ni 7.108826508560638 6.398991443558241 11.303942359999333 0.9318986548009177 -1.372399845886759 -1.6399992344721301
Ni 8.539054482081951 0.20092150106796286 2.419878685703429 -2.162879085066204 0.41237049428789624 -0.5542892181432905
Ni 4.9310412698627175 0.3100043386497321 1.3333526994395346 -0.38473987705482127 -0.4112492361992595 -0.21486297742360416
Ni 6.339023985517473 5.504325796200202 0.02864737384879353 -0.7326700414804608 -0.7144856572619501 0.43649772635340306
Ni 8.286276570313264 8.937510593605763 11.472053472130453 -0.43957559394777845 0.52374811213164 -0.43142314004397314
Ni 0.008840713660726952 5.077256926707982 5.528637986503257 0.28623371585710705 0.21251478890640174 0.45387195596579255
Ni 6.996388663414473 6.101595483865554 2.3101108180677836 1.1413502314009634 -0.4625296316407905 0.07278664494442304
P 8.679631394201827 1.9099220906364305 3.5889198213558817 0.004795878726746579 0.8946217727273302 0.20541185931303332
P 2.0621135415686975 3.256324976979991 1.6472148868634222 -0.045011274603367644 -0.2937300242341522 -0.1539867107635219
P 4.731480719460301 1.4378799049741844 8.228407927756711 0.6908281657440103 -1.599491504166071 -0.11499798820515034
P 8.852428403403609 1.7584958328494504 12.654000865500079 1.2440436912071478 -1.363238233992149 -2.227875030321615
P 6.7738905375378575 8.096308262553551 1.4566653966909808 -0.022616708958251373 -0.55462397577489 0.40869098855378005
P 1.8482147291343547 3.617578126535322 5.888791626384347 -0.014891058179219518 -1.3109090855711292 -0.8030143955319783
P 6.6325666511571075 3.911731124802745 5.883431630590457 1.0305899354262444 1.499196112278418 -0.4975873945758721
P 2.941684843191729 8.4748693522999 10.264280810107387 -2.111894366488221 -0.5570770653010728 -0.5008575806867116
