# total energy = -340874.07542306406 ev
CRYSTAL
PRIMVEC
9.20023784573738 0.00000000000000 0.00000000000000

0.00000000000000 9.20023784573738 0.00000000000000

0.00000000000000 0.00000000000000 13.46547806152753

PRIMCOORD
 96 1
Ni -0.032158511562755954 3.9417959279352797 10.206791769749266 -0.2947656645875182 0.4494252330483486 -0.5519929659099461
Ni 1.9543329356250345 5.707891996084778 6.647422130687671 0.2845738116561809 -1.0370297775143174 -0.3570483246768238
Ni 3.685330096178289 5.909414007090845 10.708434741357456 -1.0783494621987104 -0.6487957712633085 0.9679023265890362
Ni 2.9778502019879793 4.008856462003177 5.113758112823689 0.008992433306597417 -0.7759435074571153 1.7909427875339543
Ni 8.91492932445023 5.312971784140138 12.06745156315099 -1.3934654083078066 -0.15474878574052703 1.5173095340496774
Ni 2.277426890268527 8.007555861362512 11.321962726116025 -0.9529007109738815 0.9536087927844996 -0.5342785793493185
Ni 7.77900355140028 4.416629406296954 0.6907980228263484 -0.3872474739680234 0.0062526657779311675 -0.19537144435789577
Ni -0.0076104367925592855 5.2358185890937134 3.1977680886791555 -0.7985920980945667 0.7190169694734004 0.12074157555714689
Ni 5.902872637942502 8.513256137885497 2.6336325011214257 0.941518951499501 0.29992124064652864 0.6301005088466503
Ni 6.483518052415425 4.685662763028118 5.358829449939016 0.6027619689326974 0.2984557118445957 -3.2598235366582826
Ni 3.3268152256119805 5.025188342564635 1.3716073473624628 0.8172086847544893 0.023493969356882118 0.14231673062476136
Ni -0.3292866347753489 2.5931146534008853 12.247606021629593 -0.8800965825279616 1.4046188538214648 -0.23054439271460297
Ni 1.619048665761352 1.5884486744992001 13.310988838845823 -0.45538890683095123 -0.9282525734078981 0.5690995436832458
Ni 6.668507235911544 2.711659718768543 3.0710173311266775 -0.22252666461644902 0.3629868016484458 0.6658187881838662
Ni 3.1459845496475793 8.119182347827843 6.396896892544021 0.018686777776225884 -0.46566869149040446 -0.9317754989594922
Ni 3.9450620123905003 6.433376755849361 8.23609253092031 -0.46385297843790435 -0.6001466427970373 0.012365206433572253
Ni 3.1128636932002705 0.972483546720384 10.705916636243671 -0.36373859221280586 0.7924690159159643 -0.028906141511388924
Ni 5.046118883791754 2.9287025311153343 5.629229962022421 -1.4760299585746 -0.3728091870555063 -0.15203550057442206
Ni 1.5265678743701456 6.825757702133042 9.284231473956668 1.9427096078280217 0.7920193299730552 -0.3968891108228455
Ni 8.921516694788084 4.6257048126205875 5.73069202565359 0.5924032514061927 -1.4128319857598766 0.751241633835061
Ni 1.8197978567836486 6.854214037964021 1.952359484595049 -0.1401469766669522 0.6838062259002223 1.1391766207884124
Ni 5.037259054692099 4.3779148052052115 9.299447747422835 0.4344074194832776 -0.01564876228085047 0.5987297078448527
Ni 4.682221874052759 8.022662651997646 11.916449898512552 -0.05903741367913058 -0.6244587371798407 0.16829464274576178
Ni 3.661059868592733 7.456912422688109 4.059478010987727 0.32428938507824795 1.3780066505505753 -0.41387767496104205
P 7.22098152192845 2.485287865189093 5.204017046761556 0.4089552979587602 -0.2942177625038481 0.8990332715314645
P 6.875733394416869 5.021775054302982 3.07338731241024 0.16307838865214497 -0.14225373859730986 0.21685558237360072
P 3.323907950434939 2.8684869740465477 1.187977959028264 -0.332003465893054 -0.4782354724118215 -1.0523918617926844
P 8.530929794895298 6.4164851190612335 1.011956247415254 0.38479798398626636 1.1755978397299236 0.9150036788177919
P 4.21009326563428 4.267677554663087 7.3801189569436545 -0.1532081807262845 0.4577568928424955 -1.8260036357928293
P 2.3660343815029785 5.409666284490473 3.8338099756077817 -0.6886540409108268 2.139172228367568 -1.6413848019657473
P 3.823020856620071 7.971987741633264 9.682217205170264 0.3803456046418675 0.017689703970279212 1.317862119850195
P 7.608440340934545 0.6027609463418225 8.503086194908594 -0.48281435003175555 -0.43242869849035204 1.0267055127701736
Ni 0.75597434817191 9.054515333899829 8.816507939445682 -2.4124789517503613 0.20411987997448716 0.17807820449508685
Ni 6.861730632329979 6.7274163591982425 12.884806218510084 0.9076413249154498 -0.38260560432063784 0.7972569242229107
Ni 8.799291534259613 7.276698162663144 10.359921449414445 -1.4222851607529765 -0.03836805825523715 1.1673073175863575
Ni 8.497017717988415 0.38867233038537274 13.070064048952943 0.2324549794737545 0.38363635957799735 -0.19494489834343848
Ni 7.500383546775201 0.47543885401562824 3.937170968341929 1.1733604657589727 1.1223127551535381 -0.3974611812762316
Ni 6.1910976909373 0.46856351623144116 13.091515323645316 -0.7185017203998788 -0.2230311150566933 -0.749409979942961
Ni 1.3608071880892698 7.18377575985264 4.698711460444567 -0.135657830547347 0.47419755489702203 -0.19599879352924954
Ni 6.462440307381874 4.520877301964857 11.817505939995169 0.18537705214934525 -0.06935679332726764 -0.9308897539204289
Ni 4.201454242244274 3.5882767865497733 12.499316250415024 1.2076206724934233 0.4235151980508061 1.3401432998458984
Ni 2.584917241430176 1.7529581284254 4.433980134956393 0.32228752415687073 -0.9814435556085805 1.1988377840944708
Ni 4.394180825816 6.044133090690272 5.960763294893446 0.2508622783363486 -0.7346811583732186 0.11757577623465558
Ni 8.644037519662854 1.8188410320418376 7.162813017792865 0.5667482698422497 2.058452444618997 -0.10194038369024377
Ni 4.149141689533331 3.094987630956626 3.2150038143648185 0.16689339152286098 -0.4830272373735101 -0.21013009072430908
Ni 1.1974845648524317 2.29112604450465 9.234139858675276 -0.3021755838983441 -1.6329235585722717 0.17255701756654152
Ni 2.068360684182795 4.628786892317768 8.820076711727879 1.311027870537181 -0.8155040433585569 1.051253377312867
Ni 7.900428291231274 9.009001756998487 6.117864717260931 -0.17171420995027198 -0.1919549624771791 1.0993414910693455
Ni 1.9592182619510126 3.8194327638382792 12.60498006269605 -0.7868946071519802 0.35096303771469234 -0.8814155584497013
Ni 5.207132247315183 2.3180643410817936 10.502412893993506 -0.07673740206205494 -0.8684898515269687 1.5014340004700013
Ni 2.916558217084655 0.24943408992846902 8.479885034967255 0.73498789098036 -0.8474849671405275 -0.6610177672507971
Ni 5.706410757782551 6.373547608772459 1.552179496641817 0.6310646725321324 0.18321295461849094 0.08848631506786696
Ni 5.842105066599593 6.559530417961997 10.094853395219056 0.7988857180755855 0.30323384995952934 0.5466113898830586
Ni 8.975135681281113 6.019126844072554 7.930802876664826 -0.5809453872782382 -1.032806740571905 -0.32832241749704105
Ni 1.6101796364237952 3.545422078402117 2.87135192812924 0.8951979569457744 -0.8517864227293589 -0.10815833957549759
Ni 7.249401056807821 7.560654305271401 8.5069640951843 0.9309612305883128 0.4973634514905241 -0.7170752723659973
P 4.873310815277923 5.86379922757258 12.96876390950885 -1.253915956015537 -0.3655507057208801 0.08936588945934287
P 0.8403359296145748 0.5322466429655032 11.45663120840699 0.6209298980909759 0.5791103909520284 -1.0781445452767562
P 7.5580414377072245 5.30700082974172 9.59287369490365 -0.5731390038599419 -0.5662132232743862 -0.2504534729337042
P 1.1971809570016645 7.593305949585705 7.130428180377718 -1.0729573446488618 1.3481376309052848 0.035492022259022746
P 6.875494188231416 8.242483936190851 11.487776773776732 0.8507541248101025 1.5459809338424408 -1.5051888395267432
P 1.4240864243794327 5.496185321721164 11.006896899065843 1.2494941727987579 0.7155560075079934 -0.2356657731015683
P 0.6049552030814568 0.0934882174414787 4.137496948420732 -0.11303212272803115 0.42737390967526395 -0.1447644208343055
P 2.141870585020016 8.496971716798905 0.40752177779905197 0.5777945003540823 0.6856314520344192 -0.025745741505536306
Ni 0.9931196803346374 4.940472551962743 0.9429581432451889 -0.8192869074397569 0.32634601049696055 -0.5855705447550754
Ni 0.3732867725418078 7.542667840172931 12.924287199419066 -0.4642751535769875 -0.4426987129577924 -0.024180711011261583
Ni 4.6378123256996595 5.465042516422792 3.5638409546819814 -0.49131210309012163 -1.8628822539867336 -0.7390101247658757
Ni 2.352887241540978 1.0518908000528056 2.22328533026266 -0.3595194119251357 -0.3945362943199528 -1.083536919936921
Ni 6.1303485200701955 6.890886186241513 4.4835602170104325 1.1319533635670957 0.5454703343000799 -2.103980768068099
Ni 0.2051367844777746 2.389347784346723 4.744156955585434 0.2610677581144407 0.12004763481391582 1.880420519980813
Ni 8.385354430571475 6.830955836547689 5.3984180736314515 0.08949547305867167 -0.25243733613295233 0.5781757949529011
Ni 0.1893068551435416 8.799383536638633 1.7005682937160798 1.342399699980243 1.108382518225691 -0.5544859075351288
Ni 5.648596462806195 4.070737262132231 1.403372088743012 -1.485943618143886 -1.2026975241601932 -0.8939412017205378
Ni 8.308550844565328 7.585108537614997 3.1757114383328284 -0.8132977797358574 -1.5469839211856584 -0.05839412366817685
Ni 3.2844021288836216 2.4463156574360934 8.287732546240614 1.5584397284310838 1.5379503502284804 -0.36136469266399057
Ni 8.886813397421626 2.0148429003066863 2.685420640271953 0.13176338058894727 -0.8290779253882494 -2.4398897396631467
Ni 2.504369158597903 6.403577185284685 12.921620970475058 1.2435760075421098 -0.9529097098349458 0.5604727212461831
Ni 7.999818461286905 1.0543932647621577 10.72490316720209 -0.5007529367880472 -1.5790733455210353 -0.8184340725211583
Ni 5.245681244124689 8.339325640347619 7.484328211612368 0.2031785991071404 0.37087160371316125 -0.1345712823513876
Ni 6.6899253897474695 4.501602803560104 7.459268603614819 0.34344641762267303 0.12060350731738584 2.640485408534459
Ni 5.756837261723579 -0.055671559568974245 9.727205448487402 0.005722504306074016 0.49235674230455206 0.6601453919481729
Ni 5.604168513977291 9.010087385070927 5.087984566364942 -1.8488969954512353 1.104247155901079 0.670351385946897
Ni 5.123814892874399 1.4901441325160087 1.5879969428182104 -0.04285566171294555 -0.08023924456772633 -0.017559863260634273
Ni 4.0767082165306485 8.065820967996068 1.448400813106918 -2.0444617867668597 0.29111186988501475 -0.8155914608660405
Ni 3.813241003730213 0.883689290656521 12.962003574698437 0.1243514043955923 -0.11016765669604252 0.7699446095612029
Ni 7.096741509299435 2.871053840421214 9.453210403455673 1.0002576029912902 0.5828374620946286 -1.303196290307904
Ni 1.3386990164106913 0.6033930026856921 6.3472220480395904 -0.0003064754968252786 -0.7654068695918496 -0.41924948079591673
Ni 6.153910329337295 1.6181194417332472 7.095081786381909 0.577750020269392 -0.8484470739434808 0.8023235401125408
P 4.135010124115813 0.489418615507763 3.341202557643175 0.23147693183120135 -0.6079620250763982 0.48241248660764663
P 3.401033544767657 3.4949403730336783 10.553743781320303 -1.3977275260182702 -0.7775350203139512 -1.2545965270223296
P 4.00007943504464 0.9160437672865902 6.668131866205141 -0.061138262072217286 0.8384022881129689 -0.7692606961203009
P 6.551590612652546 6.808470455115128 6.496581470212518 -0.08615252472836776 -0.2419878586648542 1.7008454192252254
P 0.7463242186364706 3.5979922377743168 7.542458994772556 -0.7358314699275779 0.4956382412693013 -0.9505036714966146
P 0.1452064347839506 2.9855600013498806 0.825168417409288 0.9434771036671363 -0.5393649927332905 0.47884739496420764
P 6.167305875722651 2.5984323909082585 12.785430768835097 0.3845452445455119 0.12621596840815683 0.08534699810793689
P 7.2683075456964925 0.5529287777692669 1.4982090610609282 0.9030395644773802 0.18552797590491274 1.4733557541765465
