# total energy = -340863.81831994734 ev
CRYSTAL
PRIMVEC
9.27495226488737 0.00000000000000 0.00000000000000
0.00000000000000 9.27495226488737 0.00000000000000
0.00000000000000 0.00000000000000 13.57483016620503
PRIMCOORD
 96 1
Ni 4.186175580598733 6.931292526873149 1.6905010600230956 0.25879670269207683 -0.5894223144009978 -2.171233113457854
Ni 6.467684029555754 6.743650964219788 2.8164784302868204 -1.0814723240984085 0.9645838037387646 -0.5594175405087913
Ni 7.034263048774073 1.0238527240246056 6.63596041902618 -2.6825404287229806 0.251828756014676 -0.05145985844218879
Ni 8.465935431237128 6.326890251636817 10.744288541376756 -0.17614807735190954 0.7311281509146377 -0.8118620757305953
Ni 0.07443798573412456 3.214262590193761 12.66835794601113 2.265231359482886 0.17005327730808134 -0.5357965586557418
Ni 7.310322732962428 6.853957973494487 7.796744830777004 -0.7259319514256788 -1.712619014821386 0.1602188077161628
Ni 2.624486914942816 2.4136394213043975 13.816597984597571 0.42485140036372643 0.9433940570350269 0.5085744897149951
Ni 0.2463724164437616 5.881794559373849 12.772381175013095 0.3453148382899795 -0.1097817341115335 -0.021346326886260012
Ni 3.9352881173110354 6.411403618197907 10.795763599879542 1.263068826159399 0.06009002331336103 -0.5117629147453058
Ni 7.624650870885536 8.429262269320692 9.471797530029232 -0.37984835329047484 1.3031893483293686 0.034967517214120426
Ni 2.448884240546292 4.813746687010394 0.5179439511502346 -1.6390242721533705 -0.24753552795596082 -0.07304324103991937
Ni 8.012705605691227 2.1042270081702914 8.505310386797026 -1.605665751297583 1.9733633281581369 -1.3906176544463664
Ni 9.048606492925101 1.496133301865993 5.983432270610284 -0.7045311171523996 -0.2521115773624174 2.0182239361162533
Ni 3.830342030542078 0.4816028325308685 1.6182417606152664 -1.4053493042295861 -2.619193331924902 1.3141167938751497
Ni 6.611974464541584 0.9020280788197537 0.5132313478194961 -0.061261932134275145 -4.7194634839106335 0.8739647585986109
Ni 7.522765518419164 4.7088933497657575 2.0610530320942138 0.8782214769924359 1.6257666358125162 0.34972428021158486
Ni 8.608231751450061 8.5281796370088 7.075269468466774 0.617923250054168 0.47719597540371356 -0.6897043365522122
Ni 2.559163424963694 2.4230905978326844 8.448417828578663 0.795705777685707 -0.5875667492494977 1.38614650604889
Ni 2.916314018265703 8.878114317318653 6.546081492483132 1.6856576557411938 0.7677486303511487 0.8756660575604339
Ni 4.344155845374309 0.1643085648199829 12.757204570348488 -1.0927227002012472 1.1080505888075691 -0.92131033776211
Ni 8.335214251659426 1.0194471216193686 12.579931477018947 -0.8458507739712142 0.8933727308115775 0.43078319246712904
Ni 3.287024592023409 7.263243074417203 8.565487205671587 -0.589996698847229 0.8318989397768124 -0.639325626989344
Ni 8.516372622562765 6.934742809177882 3.9146012634065297 0.32085439125477 -0.04435384352502684 -0.014781014963916478
Ni 3.5512308870035696 6.345106258213417 13.037117997272372 0.8407396779968939 1.3840855097548035 -0.47998587944402504
P 3.798343444651411 0.43558144605814303 8.73248457920163 -0.8202680404061033 1.2220106226665082 -1.4567978498178653
P 6.935104532322733 7.1230521684063515 5.5475716484839355 0.2904215286862095 0.6836812702865838 0.4353389301586115
P 4.310135319853448 4.000880580910688 12.639578696109638 -0.3235234534465009 -0.3221324866362452 -0.16540960788848286
P 2.098931010331575 3.0211024308433148 4.100128136905377 2.103366788633184 0.21139430214871338 1.2388842584933952
P 1.6991434606993057 2.4105694120493797 10.569268333992968 0.6149711094043796 0.372766506743029 0.6800660421314997
P 7.382147964596437 8.559167253084372 2.4772980573219616 0.5468728710745614 0.9928605391962707 -0.05020438876853289
P 1.0256520647964285 9.218004224144565 5.355338056881454 0.6935725612583667 -1.5449203537884102 -0.17457893309257677
P 1.8029023535569568 7.790125297226231 12.340987369978036 0.14166289909084637 0.5309029780088663 -0.6284478037345758
Ni 9.302870038898075 2.639234089309819 4.230731524587189 -1.2562690296287462 1.7468835924312107 -0.6348542214815518
Ni 9.51888368104116 8.796485460963938 0.22459668312373002 -1.4364881917262358 0.9499850799889833 0.0620304348691835
Ni 5.7597083605104125 0.492074253826684 3.371173452953919 -1.0077600820159225 0.00628120502302144 0.4636714585547176
Ni 3.1037793568228538 0.7969437952595585 4.4067970191100745 -0.06526462553576502 -0.1354367156754764 -0.5183187135859525
Ni 6.6591097728014015 8.272561947980742 11.75246381330542 0.9888665875455293 1.1388657744162127 0.6276808436615642
Ni 4.129616920667924 1.8107582382669265 10.84588266033676 -0.10324573276522864 -0.8655631647984772 -0.24654411057696893
Ni 5.16356079293863 4.958704918571334 3.0230464608730783 -1.2202735853707434 -1.5866177335271965 0.5899470765562163
Ni 5.44187429056798 4.543112849994804 0.8890644778054388 -0.46137777742453445 0.11427936487157092 -2.342156709186031
Ni 1.6791744881130428 7.358023813320603 0.864863344424419 2.412025666263027 -1.3355273983404417 1.6483085256687742
Ni 1.693559939335195 0.859322487841496 12.438535754687166 0.27188541755523493 -0.2571218860928152 -1.92702973519892
Ni 4.220752603265518 2.7194160530851295 6.2095890007330885 0.12547086271201618 -1.4899457973247436 -0.1787700883557889
Ni 7.817421482233835 1.4314590585571163 2.700468252761638 1.258831905259916 0.2190937276755001 -0.25931195176559857
Ni 4.400538281208908 7.844318844286859 3.6083664489756537 -1.0942705043043413 0.5706743443695332 2.636794589946433
Ni 4.144271345510607 2.5356421455959453 2.982186585428804 -0.10131072052604488 0.1874007674475934 0.3203633105509644
Ni 7.668938768748706 2.854746884021572 0.6152113048006748 0.7100638740451707 -0.20082552549393157 2.1318504978951736
Ni 8.669158913976378 5.800230627686158 5.973455204279098 0.5555094637036369 -1.2101966607507157 0.8326507303411724
Ni 6.3359982549251175 2.563021805175438 12.410842601715471 -2.8019799976392514 1.7159833033079284 -0.33340548844690326
Ni 2.093801961636636 4.857978935158971 8.674588471130116 0.4402710773529063 0.28398708591477545 0.29825310891548634
Ni 1.851605128777796 1.9876872308612372 6.366622292865351 1.562521097589309 -0.7911055599095344 -0.8394111889934576
Ni 0.2948581577776901 8.721154297310605 2.7880126737775317 -0.5419684917944085 1.0393301435127198 0.437255430455034
Ni 6.222593411538106 2.5921451558121613 4.546116079592311 0.406679614550706 0.26958093779177444 0.9500215896538734
Ni 8.861335928369023 1.5965532118480963 10.41545159536415 1.17022731944663 -0.19934585562461155 1.4321330000813335
Ni 4.811465048712103 8.717101143097786 10.259870760782752 2.4892646905518485 -0.7016671653410432 0.5767346916310002
Ni 0.2666567374127152 4.170658585179867 10.472981342814597 -0.00576724150108039 -0.44488106532109195 -0.7556449051090793
P 8.84413089160752 4.7141800726520415 3.8699126875982937 0.27112719923297174 0.7406322337503309 0.31229621727211376
P 0.6073609850621644 1.6499120131898382 0.6615749370181438 -0.9418899616856745 -0.33283650331731063 -0.5862387744666936
P 7.529322909788643 4.309495348135635 12.742150395055983 0.14222931311727763 3.1175019209375145 -1.3004722065085215
P 6.345764779836094 6.681861231117288 10.349531725943644 -0.6069798636687869 0.608489615445094 -0.5326816671758439
P 5.585552578693292 8.102023397612134 0.028119800783572627 0.39726140656059966 -2.35232850751271 2.0425167472253465
P 6.657301157077146 1.1763885917225525 11.044888822205145 0.11843786712463475 -2.7306917916172266 -2.727612124250638
P 5.607997963578921 3.8787387323326588 8.707059152099577 0.0826887345494834 -0.900823530662668 0.5314501087615879
P 0.2184946919186662 0.7043630750730471 8.448105262681702 1.2774137820271612 -1.2594628539756954 0.02727040568017884
Ni 5.614193631803548 4.527660779242963 6.573760733026181 1.1069367869181002 -1.1887156080588044 0.2644330750422478
Ni 2.350115272097099 4.1852202604982285 5.979753824475722 -1.0043366581566704 0.7015761482891337 -0.7624799257530418
Ni 1.6617097526834406 6.613866554837728 3.5583568329571347 -0.42834578667023004 -1.12551969212661 -0.07406833987032406
Ni 2.2746264342524194 4.416287150438576 11.847555263115296 -0.4599618709136143 -0.6589380019036329 -0.8260103422065194
Ni 1.4216925336461388 1.7722671856738048 2.612598280915379 1.9120013801108877 -3.465171889723232 -0.6254524685516777
Ni 5.495557715244845 8.79421309761808 7.76054005395839 -0.023301393730101806 -1.100978512452136 -0.5305257971751057
Ni 2.5819612580417406 8.885979476981055 10.291377774194519 -1.4106144092832673 0.27020880118376045 1.5957652043544193
Ni 9.191700459047194 8.606274736486892 11.33240400014236 1.2637997907881524 -1.115886025691588 -0.5261397522922681
Ni 5.1643491638953565 5.923197947030643 8.724285521251675 0.6485335187408573 -0.2577350941967819 0.42900887417552563
Ni 0.960977821487552 7.843363524186356 8.97589550333383 -1.8481117805457783 0.22132107434412204 -1.2650575744546537
Ni 6.7627573662298675 5.162549823123533 4.473558126716168 1.1818741596569389 -0.7207290670685006 1.7399732384646225
Ni 6.983139510968462 4.522438981023703 10.462841037320608 -0.9204006814636471 -0.7679486621770968 -0.0853750231323949
Ni 7.7115200753643744 7.207101787345838 0.7735328878257516 -0.17935527143529756 -0.1570445237532392 -0.6666919348174389
Ni 7.707689520009926 -0.08514499082171485 4.824236658211074 0.2471164381406712 -1.4035089085867378 -1.7302426414404202
Ni 5.694626019294525 1.8172043302072203 8.248324642285239 -2.1829306044004406 0.4711549114159563 1.5294505402875855
Ni 5.0124996426773825 6.701820928751118 6.532493687170139 0.09503311504744924 1.9889588686035484 -1.295580939854491
Ni 1.6586953931430155 6.459512796463094 10.642232529785634 -0.5460609166962274 -0.32291590176948903 0.05151976514584676
Ni 5.990849450070216 6.037752884519233 12.472106445015072 0.29317209484815315 -0.375309841990173 0.35158704445193645
Ni 4.879459724991663 2.1003779029109793 0.7289992037231314 -0.2571162296658604 3.4428680840197092 -0.6332105152305417
Ni 0.3733344578007412 3.541826085237443 1.8217147395749398 -0.033526671002535806 1.9776940943230068 -0.043729322567150494
Ni 0.2948284779299074 3.628565440382232 7.538917848079627 -0.30571290762764125 0.4878719670603211 -0.3241957969231771
Ni 1.2945143858974917 7.2480228774761635 6.500348557031044 0.10199797640105661 -0.9540929315097697 -0.26900475357333026
Ni 2.8246960381416413 4.544513367812048 2.569987294451928 -0.7804303395838753 -1.256606615473823 0.9424697454485446
Ni 3.967398002630888 4.0312096753635815 10.27753119770867 0.9569553406592294 0.5728577251740973 -0.4434661872514363
P 6.292814076401364 2.9855329882662978 2.3893603783229485 -1.1020645464274632 -0.7012974407064503 0.007312474501013213
P 3.5754941625658847 5.6800921688334585 4.120721313790318 -0.17334248958231438 1.426125360434673 1.8819726949592814
P 7.605748517828961 3.2239270906279858 6.333975387799681 -0.08938028763704607 0.6041488219778949 -0.023489084260875676
P 5.011813296197409 0.6212353864053091 5.7197546479187515 -0.22993504126537817 0.2384888443726602 -0.4997574056439973
P 0.42426043911954925 5.760561656134163 1.3349132962058916 -0.9333757535670764 -1.2915620485030852 0.7891129549595377
P 2.3461548674086017 8.407939153679347 2.8010578943732485 2.6686546718798234 1.844078491016669 -0.6699603211560655
P 3.2796139050301796 5.643827104824036 7.030269254256821 -0.06982087744787974 1.2705455941524182 0.8373239674471257
P 9.305188777006094 5.579931957519453 8.764996069961791 -0.48697799449114204 0.6812052979422655 -0.8238593573017876
