# total energy = -340885.71923898323 ev
CRYSTAL
PRIMVEC
9.09433579948029 0.00000000000000 0.00000000000000

0.00000000000000 9.09433579948029 0.00000000000000

0.00000000000000 0.00000000000000 13.31047971209385

PRIMCOORD
 96 1
Ni 6.533907393059216 2.129520572852944 11.63784507271042 1.4346423967667485 1.3374225584806259 -0.77002251398699
Ni 5.0059862266557165 0.32371833883405826 5.693171517735097 -1.8394512766573032 2.311777582673541 -0.27420635237892776
Ni 3.059661953836295 1.9572010984171222 4.550347271805658 0.4119143805870842 -1.1250365818426042 0.5022966271260834
Ni 3.411103465874394 4.588783572563289 4.398088992675832 0.4852455851810675 -0.556483397581132 -1.0280252600228619
Ni 4.087303708760244 2.5630930313566274 2.287219993082357 -0.9598169784777405 1.2206232554006786 0.7386766526858568
Ni 5.042618211193794 4.962224282862958 1.9857373052402552 -2.260197139493088 -0.00021854376870930105 1.9187903780082636
Ni 5.691762805122151 2.8756198805748574 0.5642335090135941 0.03897252460845546 0.0723349021189851 -0.3271703061704688
Ni 5.658141045728588 8.08227262630522 12.268561814039595 0.6347691179669133 0.11074898312080926 0.15113047226164938
Ni 2.0542376612327344 6.563273003305854 13.223123305470226 0.769684413921281 0.5023045975458834 1.1873860906141034
Ni 0.8624686095472188 0.2098545265172534 -0.03557067555208094 0.19840020388189056 0.0855899673566784 1.1508941663356567
Ni 8.32942029557205 0.23944021968986345 6.799764839334534 1.0936606386344843 -1.5994187419466066 -0.6467481447056603
Ni 9.094426727388965 2.5392840602740345 1.5173417255859378 -0.17846412707959586 1.792871886235867 -0.17960338289036165
Ni 7.2164372936507535 0.6470010589840615 4.822892692616553 0.7658123325603843 -0.01975250003657889 -2.665519725795267
Ni 1.0563798560014872 7.659440578362477 2.43314224847145 -1.0664192864200277 -0.8988378676912069 0.03480605193559167
Ni 7.658121899673793 4.55760818949563 3.9435095279446144 0.8282675136718122 -1.5221038701145269 1.9534300795693198
Ni 7.680075626256444 4.1739818231178445 13.026766592123632 0.42500720921530033 -1.1410247297407448 -0.8581866698287479
Ni 8.356130359769748 7.100348097367595 9.045455548059113 -0.30572550603313153 1.4501183809151605 1.4105668438747836
Ni 7.593170153504242 1.0163829672233184 0.6914050628831717 -1.7713928904264846 0.03919852457633249 -1.703615782881511
Ni 2.1998288827992885 6.642493762320549 9.108813966599302 -0.6318059215735312 -0.509975998048212 -1.1456447450112592
Ni 0.12394579296698177 5.401662587947342 1.2101259684655823 0.08808907962944829 -0.07190398522915359 0.27010030063035423
Ni 6.679071180843922 2.1012462829003913 6.485278160754845 -0.3221072898252646 0.6122025455203071 1.9144747813520449
Ni 3.4048829401981164 4.33157756791932 0.1399600088490822 0.5621796766349608 0.48720013780427707 0.2222124758101399
Ni 5.889419099052283 6.056491141740719 4.653729862131368 0.07439744107496865 -1.6045249528249206 1.3281470467159708
Ni 6.255966302827658 2.9014932658804256 8.986516976709964 -2.02348467029456 -1.086306255151942 -1.109321485100193
P 0.23351435049298874 5.947322734989209 12.272235925696343 0.26227154861455476 -1.4488443992987434 -0.06917630188534538
P 4.195853700678439 6.233194086024445 12.51394063499643 -0.6723236791819195 0.4860796510465886 0.9974484156772694
P 2.460527112384325 8.671358226715835 1.3063913316067084 1.8043120097520084 -0.06358826627460662 -1.8628639991542884
P 6.442263771363535 7.96094509261046 5.748290468054953 1.5698199452435673 -1.7003805637736653 -0.1627919677599777
P 4.731882946125018 1.4164882700417678 12.285719187929748 -1.0120808208784633 -1.7496418719026383 1.8778165066990624
P 4.176473671122669 6.530715281199022 8.287011588943956 0.05555459733685271 -0.6915069369785897 -1.3721337367095658
P 5.246058502682569 1.3172781609737723 3.6361300727801464 -0.4978643023863426 -0.7235526525602248 0.055415243545511014
P 0.4446529972229473 5.75817873935293 3.579933443669883 0.12637589102478883 -0.16324473902668016 -1.4100593081107458
Ni 0.9647271399700216 8.905282731752685 4.556177650476801 -0.7922954664525775 2.479048669250795 0.032704432211556576
Ni 2.001954324810339 6.847098128789681 4.66805162212406 1.1967076251253455 -0.36289552748622017 -0.6413804526358439
Ni 5.887527477209205 5.833116066213346 9.32122218260471 2.303936489362567 -0.15320715228502002 0.22673504627084176
Ni 8.702524515447712 2.4152100371724976 10.139484135339334 0.13859634435038068 0.6497301101521198 0.5591946258647079
Ni 2.9709739912704234 5.525782082727799 6.450298617028727 -3.0598693580257113 -1.5260800811534556 2.39502116128523
Ni 0.76871055478175 0.5329162543077046 9.082991509574123 -0.15786881942674746 -1.0419218154992957 -0.2309799375901248
Ni 1.5856883873036667 1.1618377737531123 11.30054434338291 0.058193320511280414 1.7196612663801483 -0.866744843811404
Ni 4.2114504865480535 7.368585531317594 1.4156625043525777 0.4137568331124616 -1.6028228825321493 -0.6155655484552689
Ni 6.049279333463983 8.022568311883056 8.001115683202105 -0.46349945175322754 -1.1496104145272266 -0.40226914418783627
Ni 5.355381513142408 3.260983265087392 4.733951907515885 0.23273240150485724 0.23608203470338052 -0.26392245395441644
Ni 0.9542413708110338 7.461238624285303 6.775353823223037 0.8364850164855981 2.1840989136769293 -0.6672794318897928
Ni 5.074612084482014 4.958959416316491 7.047779198801582 1.9473831020442909 -0.18385753018102527 -0.10259730054795234
Ni 0.9563239737055769 7.779394867353848 11.3339796688929 -0.4103421510039579 -0.2315712913172205 -0.8925949721052885
Ni 4.996055211979554 0.4745833657217722 10.232111764166845 0.09920395859568722 -0.18352920030732908 -0.21842318397103674
Ni 8.393990079638671 7.293420846062576 4.577301064202371 -0.6045236888188105 0.6445015147633287 0.7912372003913922
Ni 7.74905616317832 6.5639914558327925 6.830858373380137 -1.0267103978661802 -0.8767708605888385 -0.6498918325409646
Ni 2.3514769319980076 5.506756732267606 2.2782748044051844 0.3746896919076709 0.44936764033753573 0.46526348563218584
Ni 2.4383187443997207 5.305762817104734 11.00852522135767 0.430817131028858 -0.4865794735011426 2.0334011580773237
Ni 1.2269895953099113 3.5156792330549678 3.8853021411925015 0.4492180021335489 0.7976587876470198 -0.7572521016951991
Ni 1.5986023441169908 1.1184214147201477 2.4157056784727273 0.42361778506694137 0.9906984985479453 0.8680998151774018
Ni 1.5642803208680574 3.9982428784272273 7.897959541837418 -0.23544671511222676 -0.8882950591783539 0.588994739945276
Ni 4.188805590445815 2.811868586728799 6.865385928617789 0.38143986614731085 -0.9719803533131519 0.6703413586445681
Ni 4.1596582442579955 7.224249328089235 6.058291820225957 1.7053587337145466 0.7777463649938089 -1.4855330129690287
Ni 8.282902768036731 7.726756851835876 13.087090230812688 -0.8372897717750806 -0.639859388005627 1.0096598701417967
P 0.5497971603900231 5.873822313182671 7.935108994081606 -0.48986148668652413 -1.429574238215222 -0.6470222243026534
P 8.740084122235759 2.024444617204248 7.926936823946076 0.331717559221519 0.8143465327153458 -0.7498781778286312
P 1.996806930756578 3.3592020915549283 9.972623990674665 -0.021202345109228 -0.5485890824347197 0.6505693182239635
P 3.9906945797264815 6.514181778743653 3.6284098911330824 0.26242812879707705 0.29456614698220235 -0.953931466231241
P 7.212308465204802 4.074071450194479 10.312453854783714 0.3340377227142634 2.0946438069378894 2.064177520028232
P 6.635027312641859 7.970321352803797 10.199434906261246 -0.4561419829468918 -1.122134834814777 0.603096983674613
P 2.665749893686771 8.893487378240795 5.818808857157909 0.590158421236074 -0.024963611923873134 -0.769832509463371
P 6.995890556552214 4.371665400055329 1.8124747481836292 1.1222243092047899 -1.0409016017648978 -0.7198199249906699
Ni 2.770371132546265 1.939949143434815 0.24155101502533707 -0.09068512249139866 -1.0508245173055646 0.011743256578857195
Ni 1.6687196730118707 1.4107588384978282 6.856947294443787 0.26870959093041463 0.40594582170847504 0.29143480044207226
Ni 7.407818495889903 0.5234636016937827 8.863368756991242 -0.468303043789458 1.1566369823567046 1.6921116388966535
Ni 3.2047893642778638 1.710817353356151 8.971635915066553 -0.516406327054588 0.2178716823429409 0.43000286265767873
Ni 7.062351962461913 2.44113798849277 3.056272494889587 -0.9636353237825662 -0.3918564334949445 -1.549090940226332
Ni 4.148190286834333 7.016480132767261 10.491693209317603 0.39316923876909704 0.6608182496454813 -0.36113560737232
Ni 7.348787162315757 6.123489113461677 11.440011439232498 0.2273220291225633 0.000906828084985535 -1.261569101685421
Ni 7.96292765781138 4.379386491135972 8.172434780701682 -0.11422382904328715 -0.31003544626239504 -1.2776935180511093
Ni 3.293122647748158 8.63495360057236 12.110859665509446 -0.3929638076265103 0.5043406541393056 0.847031938763509
Ni 0.3834290192912714 4.991835440175763 9.947334461726431 -0.8371596739551195 -0.5133621409116256 1.1580937694078894
Ni 8.883474514542577 2.5078449414686386 5.661492308465003 0.20280398937654107 1.0193935524897928 0.7300002079577814
Ni 3.5597140069212467 2.907468244490534 11.442167706246892 -0.23021143485521642 0.945121838359411 -0.6708697203442123
Ni 1.0118176106597347 3.7984221325804954 12.73490753040819 0.624619431127421 0.10584049007559837 -0.3523267508314384
Ni 3.8275058184178268 8.753407324159365 7.714980596429133 -2.56735912086243 0.5067839734734756 2.099750017816203
Ni 5.705140573060461 8.037683097956116 3.5511025803673473 0.8147311697482743 1.241972924721048 -1.2487123003274108
Ni 3.458484955309196 8.748887439274702 3.3508198422627866 -0.7601127110724457 0.33983324635011797 0.9111681071217855
Ni 4.054073005805394 4.345846580764465 9.423433422481436 -0.4985245616781608 -0.4939593109049815 -0.8209792075405152
Ni 5.373069996242348 4.660219580146852 11.648213524937793 -0.017545979303563334 -1.2497014037135574 -0.5322000995537349
Ni 8.187421336640188 8.936439926148775 2.4924673290914203 -0.11439429318288041 -0.2257659974893531 1.2978658792339262
Ni 4.781619868527884 0.5396678891937693 1.2632896365918713 0.5217735049037724 0.41208972982268377 -0.7613584105540888
Ni 6.220398355576312 5.90978131687273 0.28185074518511416 -0.008431161486488705 2.0514590440202993 0.10360285899433125
Ni 7.927432465246307 0.2310752496357116 11.277983115169885 1.0831360849540765 -0.036150224668311935 0.29387066357707453
Ni 0.39007879761655495 5.144993149114632 5.643842931008935 0.04643669419598454 -0.8730422467843416 1.3724666945689525
Ni 7.481828200500349 6.317316692026732 2.6642520565831407 -0.8557328089716166 2.3110437898313103 -2.2299080015912436
P -0.0927413080248142 1.8559083864545836 3.652501696058559 -0.5417733450644671 -2.3489575341579485 -0.05027535121578438
P 1.9514807612089666 3.508994896253705 1.6607484876971677 0.9609593196122999 -0.5993699125320129 -0.6862516021169214
P 5.366067357688645 1.1011876484094085 8.002926365456705 -0.47417004409319624 0.9776000134927745 -0.0027569939198468646
P 8.776306861663556 2.0602490171859786 12.570417369648842 0.1242264487819538 -0.05735154133627542 -0.986154845041321
P 6.541073729657033 8.183219753507966 1.0651640749352829 -0.32803342550171244 -0.8729000647795225 1.0716573948905155
P 2.3386084468636033 3.4358764365500942 6.01967817992054 -0.6754938493797851 -0.24092187929418507 -1.6690295602662093
P 6.925554963598517 4.2385425128486816 6.053952003189818 0.3449047473357544 0.6941582585585077 -0.3108479148613614
P 2.399495024937692 8.527876891051177 9.920167861872374 1.676474960800661 2.2132490528783237 1.0082776450822895
