# total energy = -340858.54460858146 ev
CRYSTAL
PRIMVEC
9.39698930051563 0.00000000000000 0.00000000000000
0.00000000000000 9.39698930051563 0.00000000000000
0.00000000000000 0.00000000000000 13.75344370354014
PRIMCOORD
 96 1
Ni 4.812874733673564 4.862190132801824 4.291583337739723 2.375056802348161 -0.8510585434243988 2.063569454130588
Ni 9.290323939168163 4.542466973514496 0.21859558101015783 0.7664003438533705 -0.040733987384252435 0.12792858022388937
Ni 3.3624306623616187 0.5778218033415744 3.640440586753683 0.5477948686681986 -0.06201757935337706 -0.5673509364232552
Ni 1.2947923428133772 3.777429894774217 6.009443167861188 -0.16473443619832923 0.8130039026445225 -0.8587777664455275
Ni 4.051887757262608 2.932029764710602 2.8007096602522012 0.24795975997757294 0.022331573617664763 0.2662428745574769
Ni 7.9225263875462 7.621324693899459 10.483246341560479 -0.8395906519941153 -1.2206209414078333 0.3875616627743325
Ni 0.9260742217282537 6.802903319723273 7.95433143706783 -0.8176241750253531 1.3890888765066658 0.8103878051779141
Ni 5.903085225415803 2.0161898038799446 9.483962056659886 0.3147549632252514 -0.4874829591520185 -2.349968749031282
Ni 6.370594833272135 2.354998248157649 2.963454236171122 -1.295546229961814 -0.17000596900991366 -1.7505762107914495
Ni 7.7839959733029085 6.144249555299121 0.9204764352837598 -1.0859555566807426 1.142561478100245 0.865886866686483
Ni 8.42622380066986 1.7268753015245994 4.497870742343975 1.722287905369718 0.74770456721608 -1.1559535831364351
Ni 7.706141918086135 3.3883851464302643 9.605597624086734 0.8915649881788775 1.2188641066177266 -0.13988369570323653
Ni 6.524658470602131 5.178229672337193 6.365479112371712 0.0002468259034834459 0.004745999325417633 0.3404063452447686
Ni 2.148508808286389 2.625734902937428 13.852743539772794 0.8522183680604548 -0.5419782619864214 0.23026028581528088
Ni 3.5631597478758614 7.916023671045295 7.286959146098097 0.8232260945931629 1.249112363979307 -0.2523517183976815
Ni 6.377266695577979 7.515101128399108 2.78948683609464 -1.3481679699225877 -2.291674384165763 1.727720646349515
Ni 1.08673360575187 0.8909360601504526 2.539848301383986 1.3337566795932643 0.8776504349803143 0.7731399765700491
Ni 8.619501073777718 6.966279373313959 5.467103455900785 0.5101873427280698 0.2026003580061672 -0.29768772333031956
Ni 4.106324515484789 5.32013360569006 2.2836215375710407 -0.4687054214341993 0.4364378196497451 -3.0519048517629956
Ni 2.014874225397102 7.7971141701746784 2.5500534316151766 -1.9106386954354064 0.6694658980181503 -1.0898435788812393
Ni 2.692810611584058 5.68061150697801 9.809478459766302 1.016134936343179 -2.704726735012032 -0.4310104779865867
Ni 0.6209896921592951 6.804566586805153 0.6638042541844809 0.12160906576376475 0.8217081152867397 -0.4827349029440719
Ni 4.123145126086844 8.201729729561986 1.9785567416793246 0.9106484871728897 0.8508878221744894 0.04194034898752777
Ni 4.463504073576469 8.176677356453004 13.435546351594931 -1.6726404175459195 0.9759452514981708 -1.833082654126798
P 1.6792701544240352 6.062326603774699 4.756146989493405 -0.19074757243263923 1.067274949552104 2.3057925687347
P 6.62956645761964 0.07806454777402858 12.941866128919202 -0.5423803825208465 1.6046285682823203 -1.86867366385753
P 1.8784017517805414 4.38631720459028 1.3389525536867275 1.2791055679072874 1.7121747281951158 0.7241542906999657
P 6.889393207980992 3.306208476198437 4.651607364451092 -1.0980615959156572 1.0725935335515397 1.5598648909133845
P 8.737555448634486 7.0920110883170295 12.439590480255928 -0.5180973416037659 -1.3243107036890163 1.196035024538353
P 8.727397303349111 1.402040180132513 9.938871241747337 1.7223254434758724 -0.21990336806098904 -2.2296411210831018
P 1.7928139744824878 2.2710643409523112 4.466431235700793 0.3766640420252223 -0.6910099427375131 -0.5822232255493973
P 7.845067005874279 9.187455098799058 4.878676210589671 0.6419257836163524 -2.0664642591798796 0.22541375635625693
Ni 8.904211051443115 7.74342917108555 3.0460302784423834 -1.3965684727131624 -0.25720647538682156 2.064868118337354
Ni 8.795234168117958 -0.1481745442214429 13.410818174612078 -0.9071314751585667 0.3786923853091607 -1.0377080345282645
Ni 1.5354304413035578 8.683090499444816 4.720085103880866 -0.9490409709081591 -0.9441898134634449 0.7588803813272414
Ni 2.6438147100873466 4.23485653325848 4.030873270397034 -1.4424719201134963 0.3661860253120339 -0.7168269038006171
Ni 4.57100562960301 4.5336150097228 13.476380028304524 0.6056212927583634 -0.9270454404736743 0.8244769362811284
Ni 1.3725054431927037 1.1152910558187106 10.364058689810635 1.1815543144236749 0.5988847453654782 0.7263626112051942
Ni 0.30113779412043173 2.0080426142754852 12.446137362605901 1.507614161138784 0.06617325339296347 -1.6086335756766554
Ni 2.900737790797282 7.713330614795951 9.900113359943887 0.17607711490465802 4.587699074880422 -0.6529905260709463
Ni 7.829261270101846 7.428019229824112 7.718309139654592 -0.019400001793166588 -0.11142338348001457 0.37767757089140114
Ni 0.8539203801378522 8.343323562272468 11.751203702420623 1.5079404341299516 3.8145452143533016 0.9059256277759237
Ni 4.471623072213439 5.636295306084551 11.460332118960944 0.2141232710441022 0.9901246283223463 -0.8272722396380785
Ni 4.770043257067885 1.2852356048344444 7.3896428657806865 0.007026310719162093 0.8701281584613402 0.4015078405417795
Ni 6.149634030089611 0.18039118186841788 3.440809069573697 -0.4976868962682139 0.6144414621531548 0.8327332627526497
Ni 2.7071222260795498 1.00148412006369 5.898714685756018 1.0544423165638097 0.4893462376130024 0.04685681245253866
Ni 0.7861746661638888 6.602474937862252 10.602612536104425 -0.5518063038204367 -2.4464956750154383 -1.818716872323429
Ni 1.8922717077853644 4.55714507058735 12.34720867979291 0.43802984672721335 0.16374584703281475 -0.5567906444089057
Ni 7.344733714871032 2.0937337584543343 6.497525604092425 -0.7348354245628957 0.48862504317626165 0.969677416211588
Ni 0.4205829233733481 3.101100393734162 2.957512519923257 1.738554503740225 1.715514591201626 4.0408079489734146
Ni 0.1429357227629817 3.134835584829903 7.745430729777303 -1.8667661624221719 -0.8455571539901955 0.3300175458112768
Ni 5.233061104104228 1.8813712003560998 12.761407288728808 0.3708875445527613 -0.8118664466059695 0.007209887484877905
Ni 3.6371892285032295 3.529142647105225 6.200355218796679 1.252821694510094 0.08756740279802337 0.30208688083927976
Ni 4.246781312506529 1.1325157369547814 10.598458127195393 -1.922361126078657 -0.0187310007506 -0.16219701448845614
Ni 4.3243910460050605 4.237703820974917 8.955746959110627 0.957728471379828 -1.014595359770201 -0.03675931900722056
Ni 8.86972410121432 0.4208996019081466 6.910045910763782 1.0252615812347956 -1.421236664883804 0.10484675870376137
P 8.793082257599593 5.442651550399329 7.3770715736782115 -0.7506124848914943 -0.9099509468852329 -1.2002950853662875
P 2.6276800796942017 0.487208516239063 0.900738059546544 -0.21094872997086248 -1.176510067131548 0.2918011826425555
P 5.0306499575297785 9.081006005558791 8.897928224488627 -0.6901231692571856 -0.39395445367455373 0.24215857991476358
P 7.135932615665635 5.332669189233714 10.918968754174593 -1.7074058460515626 0.39423110437470815 -1.4901036630588467
P 2.508432287213712 3.335827786040715 8.01575485673282 -0.5220822943934428 -0.3596870478512515 0.05788093147718419
P 2.706182527163234 7.184468064693352 11.912435363084276 0.739872729876487 -0.665588417340615 1.4742648962543772
P 5.453288942132026 6.68346758745952 0.9155242219947748 -1.2180968894343989 -1.717591785445629 0.7270298124755479
P 0.16737259308177713 8.808502716816337 1.5013118530499592 0.7210761659952744 -0.89380956123868 -1.3816712438863559
Ni 7.213448379272536 -0.024162478235231204 8.994586594719799 -0.03789497527356054 0.4037277310112337 -0.16652032445415837
Ni 6.436176420641823 7.094228777759535 12.838055710235949 1.5671313426678108 -0.553602476488911 -1.8414698497492286
Ni 0.7719354084849537 5.697854982092407 2.9945507527098485 -1.4302761493782528 -1.2574987882707893 -2.0218941858789887
Ni 2.570001360210731 0.9850299920389981 8.23842309284629 -0.042500335256055836 0.3491740641350696 1.1149133773656736
Ni 0.18307590167233245 8.733035496847005 9.260441513629315 0.679600672459307 0.4644528168054324 -0.9556263374351606
Ni 2.8260881088851453 0.602000256458383 12.46009752970669 -0.40079204542167746 0.13711744581200902 0.4283642986129913
Ni 7.127165224776408 4.69138106078308 12.914799981032553 -2.463739035476918 -1.4561864414861114 1.3499042358874043
Ni 7.912781709784005 0.7602154836006615 1.9860931269881783 1.8063647785159795 0.8377047478253121 0.11039622776708084
Ni 1.1056967298831253 4.145876442872526 9.483604031372769 -0.717950475882099 -0.1900520890275114 1.430692153869749
Ni 6.462666533092769 8.717511670749467 1.0298940374006689 -0.31828483075538083 0.8383686066615561 -0.6013571181653707
Ni 5.262360916314957 2.011331560482591 5.140761997145845 -0.9295499520630829 -0.5260659616315392 -0.5188609592426677
Ni 7.847463238110885 3.9267574495659803 2.242897805634658 -0.7414925248680971 1.0023659075835447 -1.141975266579472
Ni 3.548171550160623 6.9069279897594456 3.9218634976098063 1.0788883654213162 0.4091586722188179 2.2031618438456513
Ni 8.497894637017275 4.512387211203223 4.857001115385927 1.3274366509125073 1.2872073710788154 -0.04057200788509142
Ni 7.891610293199408 2.312918530685022 13.612622275686586 -3.069637493156068 0.2735496926315354 1.3352319785872102
Ni 4.451391354545157 1.480072778143387 1.0813387942733002 0.05690776893063748 -2.576983017105439 1.1664498546820685
Ni 2.701230313874249 5.718857252872068 7.302720716021464 0.392751177395072 -2.3419080835103347 0.15962873954064769
Ni 4.823624889276219 6.7070258392915605 8.849845710338574 0.8228090616604022 0.05315164432231491 0.35554860020284573
Ni 2.848509325028443 6.06102042228102 0.14739553381981702 0.43421715784934256 1.2060839241339227 0.35550257745625874
Ni 6.352740553862133 9.218981997441457 6.465163313113421 0.05096543530427352 -0.8757370200076854 -0.11504195406920832
Ni 5.6837125134018525 3.3789223783429625 11.225313419990332 -0.3732712142935894 2.925965019834361 -0.3218131556236135
Ni 7.3976105728921295 1.6677588426991652 11.372378179791607 -1.4705563370545383 -0.6234480365271392 1.942864131128015
Ni 5.784946277656566 8.775829385496033 11.105781838437116 -0.38210578186608385 -0.23697626438287575 -0.4994519585884366
Ni 9.010970245325765 4.850688218066117 11.759496545357113 1.232239499483368 -0.09859177893298504 -1.6437664148240465
P 7.54645888123657 5.898546479649998 3.1035191787447585 1.9009392087594552 -1.5399254716769801 1.4495761352584455
P 4.86670068760014 8.677489893903573 4.84198190760645 -1.3209762399991445 0.14849509152133136 0.23991426396527712
P 0.0979410592519429 2.658210897485306 1.1094433094624767 -0.1708778300919057 -2.800532466559448 -2.577348113754342
P 5.726205698397657 3.1249969371760753 0.9742694997482645 1.1193102208817884 1.589233830993805 -0.28587504696610766
P 6.147275385809658 3.357910710574139 7.68853290009329 -1.125255639831946 0.29643559609077336 1.082307161294878
P 1.6637463283264962 8.83117765166704 7.042739855037836 -2.1123713061246394 -0.3172715589995181 -0.22073229172018757
P 2.9483147469303566 2.932443232233781 11.509238749060605 0.30210153612729906 -1.5035641594391267 -0.10382603074873087
P 4.2963786213096835 6.055946048132914 6.052464463647963 1.7235986537613412 -0.24110802716306215 -0.3700722477403175
