# total energy = -340859.3409116344 ev
CRYSTAL
PRIMVEC
9.38723321850169 0.00000000000000 0.00000000000000

0.00000000000000 9.38723321850169 0.00000000000000

0.00000000000000 0.00000000000000 13.73916469134738

PRIMCOORD
 96 1
Ni 5.457099080936524 3.1344347318245496 9.683074724257331 -0.6329058395059293 0.11113130616089248 -0.2636666291898685
Ni 0.8495530578291377 4.440189489964803 9.743980971043905 -0.6285915284012915 -0.998787703313983 0.12789052789710234
Ni 7.824437273095461 3.8519197437525707 6.492964312014304 -0.49615426167377136 -0.31961820485482373 -1.094346351847599
Ni 1.0769972710187077 3.6683148485738477 4.622968308617337 -0.48345429760859965 -0.858972656065153 1.616501408460506
Ni 8.096920492705502 5.442182767298864 8.50134221439778 -0.14273479199878644 -0.08760236980101688 0.36491050103371997
Ni 6.580309701255546 7.815603886605192 3.6605807070974046 -0.24222388593506025 0.21205610410242834 -0.12247938418386004
Ni 7.854410708869564 1.1323913344396213 10.337841753381115 0.8306357567936729 -1.935086029844493 -1.6544172096696732
Ni 6.873050570223719 6.388143649350866 6.503007712870775 0.2964304538844508 -0.8669657015729586 -0.20389388000661016
Ni 0.8281830213306274 8.822272006098823 10.974995516753896 -0.2965422968719667 -0.9145887027675604 -0.2641520534667193
Ni 1.0465638608152505 8.01327085719563 1.2726422315666333 -0.2847864418876192 0.34436070190682627 0.1307277402355813
Ni 3.7558789603498655 1.9643724303440668 11.483262567574714 0.38110459429507915 0.658936459241736 -1.0808208065573386
Ni 0.2612110299208643 7.824615630527252 8.945254148935186 0.5711068039212616 -1.9159914751068874 -0.956524680879714
Ni 1.2603299364331186 2.372726464045669 7.8486216021229644 -0.454480793194385 0.456738221769994 0.5426459774774074
Ni 0.23616964649743974 3.844531991183132 12.63777867206632 -0.3934158075622644 0.6518646399966193 -0.21507355077251347
Ni 8.890592289707941 6.726365663425685 3.2119282197676653 0.7932945971410531 0.2463764746508531 -0.19076042794844564
Ni 2.378396352929965 2.8627682015074454 2.9369386088793012 1.7334830027545887 -3.5531023322876294 -0.6058838023911307
Ni 6.623988497577781 2.6045441892074135 3.111247326968424 -0.7594218556530082 -0.8332947916830746 -0.6348228540229841
Ni 2.9421184841878354 5.118914615794713 8.833046672425635 0.3412188138437349 -1.1216093013286104 0.46951968980537845
Ni 5.427679491924299 3.703357390304109 11.979411638990337 -0.618730833557128 0.5007999879758988 -0.3012237615080361
Ni 3.4831141237422596 0.13495931374277748 10.01296556882087 -1.2536241358067313 -0.19438234097174908 1.5177499640212055
Ni 7.870744494728297 4.498972344589741 3.617576852845999 -0.7055037654783141 1.2820872762434306 -0.02525028992635651
Ni 1.9974624275578814 5.724203415893086 4.40176754426377 -0.12792960866515385 1.5158360348279443 0.864921160339104
Ni 3.9172924361205155 7.001176916882259 4.059456451384315 0.9975857125860819 -0.4726201831075731 0.3509087874379892
Ni 2.7813808892113396 6.823561076518406 2.0366391068123875 -0.07610259669153345 -0.9594883914937282 0.1799509960377675
P 6.738662938985997 8.774960350508007 10.935193647764798 -0.6073765848865733 -0.29370662719538454 -0.28694899675657676
P 4.078396133193845 6.139672972399814 12.452148950675106 -1.3769123890451318 -1.0208058594562872 1.4949725611153737
P 6.393456823371581 1.984066845707069 6.628529102301845 -0.5133757677583805 0.7248775420192354 1.0848592382927704
P 7.500878117360493 4.212811926131323 13.289674146538271 0.6991652248547959 -1.107983997235692 0.8666623113999269
P 0.767977062144664 6.307497928481681 10.778223149492389 -0.26017481398652614 0.34304481130888015 0.5374058121243905
P 9.392771719764742 0.5256400034005644 8.749608249663936 0.2360565807820838 1.486825249417891 -0.06643242059162108
P 3.842551284966929 8.749971535590793 5.392045554499152 -0.6585561930841819 -0.814682833008842 2.707463674327221
P 4.036669881388056 8.197504697002246 8.475965706747255 0.9665908068664643 -0.03266329456097601 -0.6948439717716227
Ni 7.600279530267468 8.759077151845375 8.12344599770609 0.6416691875208562 0.8052268298022649 0.750761865985165
Ni 6.110750906749953 9.371875738545464 1.7812556712944554 -0.26289195580737307 0.39945172934369916 -0.30526399301568075
Ni 5.716937697355925 8.664022027934145 6.816438982650002 -1.5331159049543146 0.837226265526997 -0.5047944538472725
Ni 2.559729537661669 8.23146770690851 13.176587086272992 1.0959489204480286 1.39466791325634 -0.20403709045269378
Ni 7.936351867927546 2.4136735754915297 8.279701188804687 0.04512260337025132 -0.7497511653324637 0.3079633942247148
Ni 5.296577392324828 0.8919138866027716 8.942286844504183 2.547055890528704 -0.3090787387760806 0.1763627644658769
Ni 6.012616770332019 2.6112466737494455 0.17919571172019017 1.31063012087813 -0.7585399672686871 1.7843365950713463
Ni 2.7438319562027558 4.707171790889086 11.599454924599803 -0.29978317240676755 -0.9950014967986734 -0.4922148174100491
Ni 7.145806019598072 4.699999944684447 10.818616414176372 1.5572557354253116 -0.012668853716920116 -0.7437121582272354
Ni 1.971272046784394 3.9797269244805387 0.4888871077717624 0.5011288320702273 1.5395220655909745 1.4716169171085687
Ni 8.052894368752938 8.450518794847337 5.82220425359884 -0.41802949234588654 0.8279530677551871 -1.2359750552664004
Ni 9.0877054135365 6.703723656821509 13.100802074781768 0.07788308563072394 -0.19411237513981408 -0.5802424476739426
Ni 5.955664426191249 0.9524005240629743 4.834043064461815 2.7818390039150027 -2.1850360807792173 0.7807715249733779
Ni 4.2468218722038475 1.8077088945990025 2.005972893224277 1.1710184478893575 0.30952868182930565 -0.730141361521336
Ni 4.629830376124656 4.125745337717669 7.223668425807998 -0.003396941496690924 -0.8915709017161484 1.8394422777962385
Ni 8.891174298169574 5.591852814271079 5.27851823299435 0.9385521555616932 0.7917701900767268 0.1625569689310362
Ni 8.019034618412448 0.25624142863717825 13.08911027576622 0.22385952449525962 -0.7660987534525516 0.3897049343695805
Ni 2.1586224480307235 2.0769441315038013 13.163398023553729 -0.3686020909526942 -1.5128049613111045 -1.365337539723339
Ni 2.122378340444188 0.8472616341922888 1.3137714553375857 0.7704259200729957 -1.568199636031325 1.0973144333369875
Ni 6.444438887163986 4.82594845322849 1.8716997862322313 0.7213052512869448 -0.35330685535652057 -1.0500133342581788
Ni 8.002081275159071 0.34003281136915847 3.4615272421556247 -0.8873416941261492 -0.0882932252204544 0.9939866823809139
Ni 6.235967211100328 5.819446284469359 12.957145489430877 -2.3086027844899855 -1.6253370044742652 -1.1896998263489447
Ni 2.709681201631449 7.26232974595696 11.051028351202978 0.11634344648945126 -0.34891798226020554 -1.1353747305438189
Ni 2.1676999025855483 0.22195362046038988 8.034760111556443 -1.2348939063870796 -1.1560451144089767 0.5411812200064229
P 5.777316381633727 5.120031696551719 8.810253531366099 1.3462391283309911 -0.1593718863348352 -1.1353060820894125
P 8.524884456670838 2.8158038735469586 11.133106563866443 0.26125262043173714 2.386668932665793 -0.0868454370303343
P 0.6929383356969846 8.782930111539079 3.500120974225173 -0.7280507975408945 -0.9490299151645655 -0.1248579117183656
P 2.8559812318661435 5.198020830410548 6.543717327315356 -0.10797681969231082 0.5263379843460032 -0.17110511561136338
P 7.657701236070844 1.5230785951606844 1.336291427909484 0.5885267991699219 -0.16707028342035743 0.013345825179286692
P 4.344787038423243 3.782266473021648 3.1398934079606726 1.7033951822302729 -0.6665034729557167 1.333200549979478
P 7.132767152610842 7.323365536562413 -0.01659944455976973 1.2439616730163028 4.193723281049629 2.2636326475371984
P 1.7532160055702952 4.624235585106377 2.6122407817508484 -2.334577354176876 4.670762933381137 -1.6441042577794394
Ni 8.07258878411594 7.175488451141358 10.712756584791922 0.302363274429118 -0.92132627860171 0.15260525703496297
Ni 5.117769373337952 6.778718263272904 1.6318559766399015 1.2711821992951526 1.4390505531367732 0.08047115807287432
Ni 4.653336008188029 6.463992494028206 6.649742372005044 -1.7982174668184967 0.5947514399233951 -0.05066795866851274
Ni 5.300397996258451 3.829418545647177 5.212089476885539 1.8608706228733438 0.803617576333616 -2.033487547143543
Ni 6.117950914654348 1.16357572330325 11.848422186189891 -1.6179170578611104 0.7241900290339076 0.5249223349453992
Ni 3.8825878347873317 1.4571520560308633 7.231650390242297 1.5104272051075471 1.1657446010849277 -0.8060058740601345
Ni 5.055053267980364 7.9035904238775565 12.065542320248753 0.5966478856151596 1.704823172926051 -0.18767818947869616
Ni 0.20660924898643207 1.1978109629738263 5.625830843750547 0.028597094911402363 0.7995758021640745 -0.2737535811122253
Ni 0.3777967120192165 2.311258860710617 0.8595579710292749 -2.0821952967618915 -0.8503206368171097 -0.046425124231758756
Ni 4.874555547008102 5.932637543023735 10.488176416467581 -1.1538493923092386 -1.561273598335453 1.321419241073834
Ni 4.219486248973599 4.675302133998051 1.2666203214353817 -1.0410134447524135 -0.16320385848641572 -1.0620491823767904
Ni 2.0317539906279705 6.175081616226909 13.480456520261585 0.11470899620982182 -1.7415683508658844 0.11856822205491194
Ni 2.3333470205529165 7.157943712193097 7.870906893863559 -0.3681341501773402 -0.7477500757420348 -0.5766585869774262
Ni 2.3806492889104804 0.7711039495409538 4.063316481697598 -3.596162396701897 -1.969348807682105 0.464094147914433
Ni 1.1191741100205996 1.6721290847382584 11.10061265596414 0.006233382504221522 1.3969996467133101 -0.6913434148175319
Ni 0.8614250917231268 4.591915341019238 6.944927676512075 -0.15803594113223107 0.42970924267665994 1.042752024710075
Ni 4.267858661921907 9.298336153248153 3.522226969810651 2.7576516080355216 -0.5577882324354846 -2.976390266364448
Ni 5.930966615504853 7.392896773261059 9.258383149803695 0.8576436528410843 1.3131991671568868 -1.2306474724059
Ni 1.1550333410437972 8.47874620523654 6.134605743890306 0.2098611533336386 -0.8174783934761083 -0.9256819844672445
Ni 4.247601012563775 0.345892322365148 13.501875370373005 1.0464078762951077 2.730351377558672 -1.1295360123748548
Ni 8.25801480254558 8.341486080623662 1.617951606746823 -1.2346216265622996 -0.3933533297554451 -1.1882553805929341
Ni 4.118535942580021 1.9471844062593875 4.58363298512087 -0.7525528964473168 2.9384202148785783 0.27497202690035866
Ni 8.953890403527161 4.431421814107298 1.505853960866322 0.36705351551865173 0.8081074937841696 -0.40026008417760744
Ni 0.42956260978817545 1.570240055019466 3.0762817605508306 0.27900377376757113 0.8744085310042488 -0.8524333122847383
P 5.850865354164291 6.079651002985593 4.547031223947427 0.274052857520199 -1.3844354368950542 0.8093385379777932
P 8.582353098640475 2.7555753850011904 4.408912167491978 -1.5997398727314514 -1.1706263546572613 0.866438625424895
P 3.997731637858154 8.716215044816076 1.4824281202855916 -1.1376203320448859 -1.3302473808884252 0.19913682493759896
P 8.909516951944267 6.86785004300203 6.95627684151392 1.66771855476427 0.4570534390175677 1.1873932897029549
P 2.7515388747027676 2.5201529622706214 9.528372181538641 0.3930926198948907 0.208842225150821 0.18557219887928686
P 2.322129276816602 1.9355254625602223 5.895036041508939 -1.31596901659254 0.7220778677869113 0.1730514407044568
P 3.9985858760840998 3.0876581485291066 13.420951787399556 -0.9496305248630419 -0.278533776109688 0.32516176038087224
P 0.867117509967228 0.030327334467708 12.986327581441824 -0.7276805586856694 1.3172478833049637 1.302674356366163
