# total energy = -340865.6399441347 ev
CRYSTAL
PRIMVEC
9.31021713989095 0.00000000000000 0.00000000000000

0.00000000000000 9.31021713989095 0.00000000000000

0.00000000000000 0.00000000000000 13.62644387540114

PRIMCOORD
 96 1
Ni 2.4895334937194895 0.2583883236145959 2.8494124964529868 -1.068546617175676 0.6289499401819749 -0.6658442421051629
Ni 0.5966555188589913 2.7449779266142067 6.742351392168703 -0.5900980003117837 0.87635434187671 -0.4274258459591219
Ni 3.385446397208418 4.062885740821726 10.311007970092048 1.7766132582851597 -2.364141183876922 -0.25408489903870435
Ni 9.224041958809046 7.061930188165748 6.665579340062064 -2.622912175537386 0.7557752600393565 -0.5718974181433569
Ni 7.599827994430729 8.830871480945435 2.1873033566959483 -0.13932036700059877 0.8172287393591474 1.3515484563590467
Ni 3.780125130279558 5.6184275421708705 7.077398183238506 -0.4536135600980833 -0.6024061282551755 0.4335651260876404
Ni 5.2281990929836715 3.7248689904235186 0.9788948705549575 -0.0633344983925877 0.5120840455301504 0.5321962428989931
Ni 8.483302447566219 6.650595476290488 3.0810339452426274 -0.1541566606824829 0.22479334916343865 -0.0072497395838778365
Ni 3.539567734896181 8.616429245173885 11.397961878092516 -0.34583522956982377 2.3567461769644313 0.14841127355827344
Ni 2.0433599485937997 5.138374116179785 8.790323622427993 -0.0325751057225439 1.810574445721953 -0.7053189031610175
Ni 6.031633607729544 7.719184980606705 9.45251469209754 -0.6897596152701798 -0.574650812518778 0.5583189081279739
Ni 7.359652317957899 2.9858518693868175 1.198468898119035 0.520259382252091 0.8048499060788203 0.8895515572932744
Ni 6.7644035729375345 8.31906090364029 4.865866847983607 0.919630378956526 -0.3774574844607951 -0.36858794988530713
Ni 6.868715247907554 8.323148089048344 7.234129174843986 -0.019920393073010856 -0.07309543443409346 -0.1224503307181375
Ni 8.92910358399869 2.973590313162655 13.015325384559112 -1.1635162259750413 1.6630599729463358 2.0883662014592934
Ni 1.683175570731864 6.809055375254227 5.254874727678789 2.564715769702312 0.3285188497785632 -0.10630714529937174
Ni 6.949276558467673 6.269854138562986 11.31136568465882 1.119551133248001 -0.5428668352389618 0.5100868125944634
Ni 6.532281234455518 2.329248792158989 12.090116951218285 1.4709265759097636 -1.360024612150858 2.021425987993319
Ni 5.235004861852207 6.636788423989476 5.626303986032405 0.8852267046656755 1.4361925148626877 -0.15454978235584352
Ni 8.994303035963618 4.1543306954411054 2.921645817611046 0.5245742075773611 -1.2160461775529572 -0.3762706632415455
Ni 2.1013253616929912 2.5859780350453034 3.4721273136198225 0.3514248078424593 0.7599702719573105 -0.6319370478347569
Ni 7.8106951067473975 1.7267566980555573 9.936934610016591 -1.1283854437101792 2.5234778460984475 0.7983226464832639
Ni 9.273786450005478 5.196795729928166 4.9897588410212315 0.14998247470013526 0.4880879397258691 1.5998321753349416
Ni 5.899065423161702 3.6602374617157474 10.44526875217056 -0.6776767159637168 0.31347506807156333 -0.2587342248852576
P 8.065767130948899 3.232637800164245 8.319394209420718 0.747520476229732 0.7617150225625591 0.041255664215677335
P 1.0763728460044488 8.704960101768844 5.84190161977466 -0.8927420392061141 0.4610939276355285 1.1758539216047879
P 1.0961291271795988 4.1985076766739455 0.656362873620704 -0.8037448459400998 2.317142189419564 0.6350696799264676
P 1.601571515830738 5.002053914027783 6.482835601235394 -0.5784066800167844 -1.0155718647508574 0.8172017427759539
P 0.48655288870945135 3.0237165232696332 11.21222024928545 0.8070862516085068 -0.4093011113339532 -2.4215724294111975
P 3.027785088243026 1.3417792114427147 10.612411359816647 0.7321164829698359 0.1209986858732755 -2.248179031986289
P 0.41015883142642795 2.0438999411989642 4.60915808757542 -0.6619523632499245 0.6907980838370231 0.18374054498718678
P 4.970929857492192 9.172733351101106 8.14287714394463 0.308041812871134 0.27817433588774026 0.6981154434340429
Ni 4.178760705716126 2.4132735035660238 12.223792120626713 -0.5378920077321897 -0.9807359880185949 -0.6193759233402946
Ni 3.4346322753650242 7.336022986373296 9.527214289826427 0.4745156003580731 1.019480198666328 -1.8891288463880884
Ni 2.8096001451046475 7.356412362326913 2.372432373202673 0.7484111063648013 -0.696048276492369 -0.6632659398550255
Ni 4.562741999074613 2.071197498411754 9.136121852470964 0.07125195346745149 -0.38184018690952304 -0.366410225507698
Ni 5.844032728521593 0.5161854484287103 10.577895591107582 -1.601468939607416 0.8071795826532615 -1.2624417340983614
Ni 1.1969029195640584 0.045613547766923807 10.243693236749648 0.10097442023254868 -1.5638961235599647 0.8549889888270564
Ni 3.6607867645382424 4.7761414905051565 2.7622846896097233 0.00033501474191555207 -0.12853870300406248 -0.3379339724448761
Ni 8.96418448289971 0.9684860475795486 11.928630300600428 -1.1650781711455225 -0.8768883600033092 0.49744187013694324
Ni 1.4823076318280652 2.2126755609648074 0.8673854665667912 1.9643269289874814 -0.7881184522567523 0.6526840505741212
Ni 4.798309117968885 4.58198621829659 12.627952379027153 -1.6354391259052738 1.3624936425166407 -1.8541073360075813
Ni 3.5558326845724237 8.034438249632037 6.9609329505653585 -0.4098772955523974 0.45024618628774715 -0.24550178535538364
Ni 9.130018073989142 5.1447143741818 7.9166100011417155 -0.7064159928799383 -1.3944403706265662 -0.8966331467304041
Ni 3.7575571634706213 8.284268621476512 4.482091310428123 -0.15409778242008945 -0.060862639813327436 0.338001849568334
Ni 1.4207577850566626 7.739620907646977 8.296092597486144 -0.14403962685313904 0.370099244323511 -0.651150387538414
Ni 2.2822973661616834 1.050341478348596 5.73522049449405 -0.411984057482755 0.6219513973769547 -0.6396097338886663
Ni 1.903203936901666 1.2306338369521679 12.322148049570464 0.05162877991988528 1.3310840178571075 -0.37337997195731176
Ni 6.259249801023638 5.869347209443004 0.3706583723586575 -0.012726703538049047 1.354566417249764 0.49512633462988914
Ni 1.4537345748410082 5.7346004340198435 3.338370214298886 0.3314882168195323 -0.916467407847512 -1.7963421041726548
Ni 3.408805732490441 3.423338981743225 5.549518899621504 0.06979439508531851 0.5017690367573874 -0.07867498540439999
Ni 0.024437458448884865 4.999689118825858 10.274802396937512 0.08643637451737372 -0.0083753685478888 0.5529748702072412
Ni 4.392346401493278 1.28839442527009 6.545530604738437 0.8612406261637232 0.17279818704307015 0.511729490404209
Ni 6.106543616370098 3.705755114244168 7.205691116008219 -1.1092808616702445 2.1975964339427314 -0.20330458316204345
Ni 9.266384827227794 1.6046718182017676 2.444802554555489 -0.3330743303597296 -0.8761162577239751 0.6491603536915788
Ni 2.6469040972555686 7.488496415593573 13.206409216070373 0.7565489049805874 -1.3648927388764365 -0.04555120626723768
P 3.851441395030571 2.626179553478055 1.9935893887888436 -1.1679634631131175 -1.5031599820221724 0.4259677733563567
P 3.6546327108828347 5.649216430882567 4.733867517694654 -1.1579269048127219 0.011938403308798794 -1.0440640586532792
P 7.988576119062391 8.96527377832737 10.039418689324648 0.4447638230169373 0.13749899752114386 0.6375158274741148
P 7.000464133350319 4.902816307502843 2.64740033183928 0.6829428494586626 1.689477800818232 -1.1516107327867071
P 4.753424560218933 5.717786181521107 9.593629656174706 0.7097350299508421 -0.6667487561973033 0.5700336254617409
P 1.275611496875424 6.885008128235787 10.234617636895956 -1.0867795952439347 0.47786754754944155 0.5730454157048711
P 8.067973652456208 1.0858413370294853 0.6293744156232842 0.05537616277745947 -0.12079094073784358 -0.7883141132073263
P 5.509395587014328 8.713246195192918 3.24283435018452 -0.6563540432265406 1.4979977210949427 -1.2511065115912001
Ni 6.940012892223906 1.656734553513473 7.530123328299611 -0.6850298138946783 -2.633254952224291 -0.6502733842500994
Ni 9.288841071428767 7.860960970114332 12.328470618159551 0.16170413401243763 0.3181256794696973 -0.10888159089476733
Ni 0.8785688996240909 6.978007889149348 0.9670196883500075 -0.606244271054343 0.13611163025531398 1.7846050182413844
Ni 4.445079472452773 1.468360926267097 3.7231261177392643 -0.5437178703853475 -0.8502003091891616 1.4605048663558071
Ni 4.72248670802995 8.149112196490814 0.8030025206617418 2.62990711879798 -1.6261163058424513 0.7817675703380601
Ni 8.351404598646166 0.7235314365510148 5.594691143086966 0.8613488696068133 -0.5272239864953823 1.1414921562954665
Ni 8.564878571815353 5.374807085285785 0.7269855271806005 -1.1407287957668806 -1.2899443103940043 0.2161315597233826
Ni 7.50327173049695 3.899100397544988 5.086056280913226 -0.5286645755966509 -1.0904236197544253 0.2841408378838203
Ni 7.087812592344314 1.555998001998335 3.714732025794158 0.7609678599838894 -1.179865356757026 0.19947543922394032
Ni 2.834253600595598 5.903869495304199 11.263223481864953 0.11151260075971117 0.871731241282402 1.6963282480811626
Ni 2.623721656102824 0.5605923920296116 8.421483535513966 0.7514851173044348 -0.05036071184073908 -0.5425464757850655
Ni 4.896252604284897 7.014531871736582 12.134607686775162 0.5206537894770323 -0.29975823270610313 0.2296401357327787
Ni 6.906803347006299 5.246605392645911 9.247490672177442 0.5171018104597159 0.23370659249266848 -1.9847160341667947
Ni 5.868071709668737 3.414363932236701 3.426123667746754 -2.2221147307990696 0.4237782219042056 -1.0952261833493913
Ni 8.38699755950036 7.221991444510318 9.040627884334585 0.8618759457548769 -0.6038392611572762 -0.22441693966062642
Ni 2.185368693534687 3.7484610811388013 12.440520945774615 -0.011231092829129045 0.07429871071357526 -0.12481497429557215
Ni 5.427251539508038 6.610487060031041 2.763333951102861 0.17869012704747292 -0.5831447089224022 0.26358229700617836
Ni 0.7986416148641734 5.789921745397196 12.574864588787369 0.7105338717030537 -1.2615400482196983 -0.7045095198858449
Ni 3.575086214011731 0.5231448358831988 0.31563591895761184 -1.4135264407237398 2.826258410570642 0.4232056372301872
Ni 0.0875616629708615 1.0826013813984992 8.535959174743605 0.3138190816745434 -0.3816995475666007 -2.010093079479003
Ni 5.7634527975268135 1.1550628028811536 1.6846512401787357 -0.24126152202179096 -0.27179722871680284 -0.7694612421668813
Ni 7.107373358955525 8.618170255814674 11.985138664687408 -0.609971342196943 -0.8784775588673 1.894872433740085
Ni 1.3644030395556341 9.149560220165691 0.3082873644187118 -2.0424743240231855 0.3202501820118678 1.7292134288449574
Ni 1.9147392961740557 2.882415354845858 8.756762150995296 0.21762125689503167 -1.268579471564983 0.41004955946420346
P 5.800656425979169 2.353176050698166 5.31210556463061 0.7233305092470897 0.12659649167602713 1.0843033657893004
P 5.293473026687241 0.5625894336469867 12.702788836950797 0.2954596053307492 -1.261974821764272 0.5903828785420542
P 3.835548854047545 3.5495389776570603 7.733156823754467 -0.4287239959452552 -0.7868334148967416 0.3294593593149616
P 0.4763004773851935 8.545541250420072 2.724430276965971 1.1175832108883526 -0.38232046898005123 -0.8351513852758391
P 7.806831366555274 7.564356066401831 0.5704016370089416 0.6770339401733954 -1.8235199501390271 -2.4260790590322996
P 3.985257148720689 6.0910234840802895 0.7369912177456022 0.35042824825714486 -0.6572701272829068 0.04410598918027888
P 7.047946241735458 5.7803880828508465 6.132417641353068 2.070388276824634 -0.09713164944769077 0.7114566406276392
P 6.961016742521331 4.393575350180893 12.48118238894349 0.7316976502648624 0.4037953510243755 0.4382365634213808
