# total energy = -340873.03356747644 ev
CRYSTAL
PRIMVEC
9.25143829787243 0.00000000000000 0.00000000000000
0.00000000000000 9.25143829787243 0.00000000000000
0.00000000000000 0.00000000000000 13.54041509865012
PRIMCOORD
 96 1
Ni 3.5726557377808006 2.0183955765094272 13.427136243486817 -0.23700017564227568 -0.35463097348458283 1.0896147506998848
Ni 5.539308019079512 1.1205249727564404 2.887669984035645 0.3678991513483987 -0.38422719908446085 -0.05531831295633054
Ni 7.417266760026865 8.00354891702553 9.775665651323909 0.8419331840843629 0.4286316933417651 -1.2721448203187382
Ni 6.1578961991205174 1.5909236118202863 5.341897125011149 -0.9769310124502079 -0.39192739594219594 1.1487092428691958
Ni 9.414078730649184 7.954571801909218 3.815878829874185 -1.3377647723113928 0.632161248030421 0.7784030247412014
Ni 7.867043942801656 5.103685537122243 9.886046413672934 0.9756467464211455 -0.3046201887840947 -1.2891925198296443
Ni 0.9947516671262434 0.6909057492047196 2.43937395655555 -0.3539547733531646 -1.4366393725921194 -1.994452030507636
Ni 5.667403435758857 5.3476644717364055 2.336520164523606 -0.38313062358617245 -0.9249037115403234 -0.33064926585800475
Ni 7.632353452384089 5.5775072084099335 3.8942366631972187 -0.1790140860457949 0.6410117564425154 -1.3456518883689534
Ni 3.5685203447968585 3.839411713841198 1.8897682021196192 -0.8217875623744235 0.5809564430218317 0.12907786333698415
Ni 2.069704054113331 6.222878302742916 11.507714405726414 1.1986855747873228 1.9433744951055303 -0.49202172756263657
Ni 3.125043391601631 4.646016877355723 5.863798521886198 0.8128293247398711 1.1063235788141335 2.7644046104886395
Ni 3.106919823692138 1.7913282713687468 6.069518132820061 -0.8185528574872096 0.17067059917710606 0.9413343462925208
Ni 6.031392029853338 0.8800190281337132 10.245572113862595 0.7687562456800566 1.1750121424297828 1.6552206794075754
Ni 4.921987286105173 8.725114858373614 8.893696419966448 -0.39908380448131914 -0.39785764538370194 -1.8308121129250663
Ni 4.921802257336316 4.135661275657318 13.423981502977815 -0.31492902690927055 0.1989247089267929 -1.1181897341241
Ni 2.254973360369331 8.02016450046884 2.997915675383405 1.8486239442955068 0.2907593716416025 0.6427403090978479
Ni 6.23055699665046 3.4657368636970802 3.727811611905408 0.27110585907673307 -0.28311573905341564 0.7179234792989055
Ni 8.700034208755115 3.386896105287331 3.0265673802408317 1.370312624340427 2.5645244796271123 0.48965425577172444
Ni 6.263205322915187 6.34222185865535 8.089544737926959 -0.3825600957946831 0.2359041143646195 0.47766340195843543
Ni 8.117572895833339 1.8045948340957572 1.6926875844036655 -0.5680975847812926 -1.8539520413766395 -3.4669832319003584
Ni 2.3422884363927072 3.577716274609026 4.128134305340236 -0.2954938010027943 -1.8581791920841093 -1.3313460132692425
Ni 0.4855062380409781 4.548571476237454 11.960262394314828 -2.021102800325945 0.7038526030281361 -0.2957995051686712
Ni 3.915541800787199 6.558909049863181 9.391158291907086 -0.6074362344799151 -0.6391741890131444 0.46503260056830237
P 0.7317138441760178 8.165560107036269 12.891572322319405 -1.78906691066748 -0.44940055045800015 -1.7623050691926037
P 8.398733361549214 6.491669595260734 8.059512718453863 0.3138072546000015 0.12171062433863554 0.8929315295091008
P 0.9437299841140673 3.606553008235309 10.11711404079629 -0.592549804286386 0.5691885038526262 -1.3504853052018546
P 8.58314228403003 0.4077506733605724 5.653312569866591 -0.32725309569226224 -0.5564026649418675 0.7161118800114634
P 8.187763559299047 5.286438452121794 1.6334210194512442 1.9966235842376578 -0.3845190192932668 1.854801019640496
P 3.923914352577955 9.073672053145463 6.623266681390689 2.081962869036111 -0.9117838863289136 -0.803179717465249
P 4.410937826523556 2.718211386078431 4.657509939333242 0.10142847705083177 0.5177147614533665 0.164202217843943
P 4.041259597786739 4.989717066945089 7.836325466596102 -0.4035706366080791 1.0581241362907712 -0.3676037315951669
Ni 0.31142562143772984 4.794363692786411 4.768988847425432 0.9439188191902453 0.43220501251532023 2.518348238181366
Ni 4.905889783214658 3.0423170290458956 7.147673367796055 0.18303374872814931 -0.3944861578083077 -1.4909472420060643
Ni 2.395123401339677 0.12440686817219165 7.989508934044699 0.14569695995090393 0.5939425708688545 1.9975047012910307
Ni 8.397854474897144 6.884679951750354 5.8817666656298515 -0.1997351206432302 -0.5165870756068264 0.06582666868682212
Ni 2.2640767757970703 6.928568775723113 7.318905466502757 1.2930702576174957 -0.5229261304509768 0.5147577357075716
Ni 6.076594558084978 1.8350320665726492 13.185263861406085 -0.26685633977175977 -0.4810140635982232 0.43050114245033605
Ni 7.8351634859276835 1.405034459188617 3.805113856102115 -0.4467381731344887 -0.5908749876871243 0.9039343083775078
Ni 4.765369684706599 6.949477026603896 6.303550845964344 -0.5830449501197443 -0.5619883865597612 0.9535794822084609
Ni 7.112681652173761 3.822083769637788 0.47492629303776424 0.8229838966753698 0.6822987881167605 -0.5141147028069339
Ni 5.4244976680040615 3.977776227192078 9.127512649451168 0.9920637543265881 0.6935555919775023 1.7707089769855828
Ni 2.4339054312919965 3.1354420084113657 8.484058453163538 -1.7179756511476088 2.143311704457238 -2.360312039938819
Ni 0.41954348194364066 1.6303532424636036 7.479671412899092 0.39951652114336356 -0.14804797668158373 -0.8996073988673796
Ni 7.4443549717874555 9.182533729302177 13.655643997593046 0.39914628228813837 -1.471095754497776 -0.2643536279545641
Ni 4.336158449590207 7.666148957015726 12.003050297112893 -1.2603609403099327 -1.2538444793476535 -3.2573192821791905
Ni 9.044474513419908 6.640784280082176 11.353164500819812 -1.1772526017245275 1.7651497377302505 0.9121314994763193
Ni 3.1536303363899587 3.8073369767599257 10.71864719406795 0.9744334428393348 0.11533274583674977 -0.7427042857880112
Ni 0.7988496826679055 1.5540381267487455 4.37253880612277 0.8210689390408439 1.3404860278972979 3.1877069211976905
Ni 6.879184597315317 8.56613814017212 4.243024218786295 0.690491608340198 -0.831178259560704 0.5363871410518892
Ni 3.220101921601651 1.0456900871924344 3.7314409512065274 -0.32125651178919507 -0.028552871937028244 -0.02959365449671678
Ni 6.432377126280673 4.9963873540623664 5.92938844501429 0.1427946987024444 -0.5325713668502248 0.12244544562213105
Ni 8.168465058707316 2.843929183077971 5.9812214791779015 0.7032445371304921 -0.12459643052686285 -2.1386500373155104
Ni 4.7941694125791114 8.771853125386762 0.17312679329979314 1.797413997080595 1.918187711427258 1.5690031057692266
Ni 0.29172930899295685 8.261136717589087 7.571069148707287 -1.2696927592338199 0.57035578468785 -1.1473151907351464
Ni 5.924907973376429 7.698982312049309 2.2842819173561986 -0.5667611253580561 1.2783805168158047 -0.47147809908332994
P 8.242217525973512 2.0884104626447217 12.838642992700319 0.5676327293297321 -0.07413493144220136 0.45780625802319225
P 1.36832475144749 3.345828970039634 6.182662299831959 -1.1471694091859017 -0.4126335181412958 0.4136280208440811
P 3.7696003593516454 0.4296516035862705 1.7336881092945742 -0.827363513800304 -0.13462476129714232 0.29758693608639714
P 7.091699389785434 3.441868152514593 7.614167899837028 -1.0631033346729175 0.057530747226617045 1.414310370077616
P 2.78385034183027 6.2885727671254115 1.8168798192039834 -0.14669891885285705 -0.2972051272669462 -1.2105576436345604
P 4.176959696866086 5.4755193510162385 11.514254247561645 0.048884898626160966 0.6419473808829074 1.0480940057482788
P 1.4257576813005435 6.837802913160563 5.405347190427415 -0.7983984940265217 -1.2729416051884206 -1.6456497478896883
P 5.520296313079507 2.953910283286267 1.69620775673116 0.21085488470547556 0.07999421843645578 -0.34237992403137163
Ni 3.4225233947306477 5.639390080153985 3.7675937223533964 0.7783217778813047 1.396403150779892 -0.07763728816850499
Ni 9.106052087695348 4.520373091863726 7.574399666546705 0.3440467702108333 -0.6247901523773305 -0.15756620058466414
Ni 2.8302925628132476 0.7999839090209957 11.50679388760135 1.078090037889737 -0.504051662143977 1.4758983180927419
Ni 1.2720080258192459 5.7296101078484085 9.28054624359699 -0.5095245123330903 -0.5222057073451846 -0.11806737115909344
Ni 0.8150258227851838 8.220115839533603 9.825236708788248 2.1524308931496865 -1.3734223736140023 1.0333055345851945
Ni 6.726776400408229 3.4235688072746866 11.162027932303372 -0.333041163128949 -0.8770212860367477 1.6671009757849289
Ni 1.910496049950767 8.930839095026698 5.703114913292003 -0.35907486818854933 -0.37899500415124404 -1.419223491108517
Ni 6.074873790534612 6.316058790739042 10.772470212640613 -1.0474224336025508 -0.22530474158221842 0.22742770146249222
Ni 4.558322492356191 8.077051595453769 4.231623671193202 -1.9931281694898901 2.3751257079128836 -0.15387178245221242
Ni 7.0793672223411495 1.117647775400722 8.063439028928997 -1.3700534571417695 -0.05037433868749389 -1.2266530065345262
Ni 8.876329619721577 0.38905536655531303 11.44230118507258 -0.6164533503768609 0.191778841910631 0.7665368694312347
Ni 8.09271428073747 2.555339812292509 9.478317943764624 1.3689838782266746 1.2323464573748777 0.43670495726820274
Ni 4.389585506597518 6.43787248071571 0.5656616258534524 0.40039146754914917 -0.165909687453353 -0.8962595654410693
Ni 1.6813286682835658 2.6928531933066497 12.0513483566475 -0.6921741382489435 -0.7560881632940849 0.6732796153372856
Ni 4.005623056904979 1.8996163583420056 9.21575564475036 1.4117624068447814 -1.7638708710178266 1.3208209453682027
Ni 0.23951604070934482 3.644955729211473 0.54500408895447 1.0705633904953884 -0.879715287929143 0.8937419412255382
Ni 6.647251035553711 8.688405150632486 6.520535933490035 -0.2923516558293868 -0.8163975017071037 0.7032036565902277
Ni 2.364094076802444 8.270258635893713 0.556812624982891 1.4280333760906632 -0.005379004923726221 0.5028435007684888
Ni 6.918308930490021 6.549944406012084 0.5824520614833343 0.3659173450316795 0.1303490167399239 -2.225502673434696
Ni 1.282684185782265 1.4896388637482454 9.8742397279322 0.39908174759879017 -0.08079100330613828 -0.13032536259084004
Ni 2.626797922824884 4.74735713405842 13.132253119128702 0.7323918481184096 -1.3475709597685372 0.9920622116646914
Ni 1.058401563612875 5.835039500342834 2.8394385348578237 -1.6586381897295566 -0.8672102134835967 0.033789180635303104
Ni 0.9287241509598063 1.045181258078079 0.08295209765374009 -0.29031379946375163 0.0022173193662929553 -0.36282430792865256
Ni 0.9054706604337673 6.076252254862593 0.37176442810567434 -0.9217546243883803 1.2658052512539557 0.17999547612245775
P 8.783065868779465 0.4429597977862733 9.140024294801243 -1.036673422616163 0.7309893113439282 0.07188830149986973
P 7.892698181603608 8.737558043079211 2.3384703677473535 0.254344066237362 1.061211002746211 -0.7960788447544096
P 7.4245106363275974 5.243141720209376 12.111657558712428 0.734411963872232 0.3280557940992156 0.513593025975509
P 3.022768739616208 8.657764386509852 10.037916176862648 0.37473365777172885 -1.3051855528237908 -0.9502123655084408
P 5.630323670480018 6.376600203908884 4.32308894250203 0.7611509225289731 -1.533290997079598 -0.026603718630457407
P 6.389774252251467 8.344778972550662 11.645501629318462 0.01293033490842289 1.0876190604260947 1.0117532623357157
P 1.6712168460655585 2.705527663973319 2.2940986186878796 -1.0847499664084157 0.19843774198804534 -1.0818070817300078
P 4.775999587477405 2.3958912707304316 11.559371662559611 -0.9464099610432152 -0.39365054928088977 -1.3022804633618539
