# total energy = -340853.138097635 ev
CRYSTAL
PRIMVEC
9.47054591420735 0.00000000000000 0.00000000000000

0.00000000000000 9.47054591420735 0.00000000000000

0.00000000000000 0.00000000000000 13.86110124288862

PRIMCOORD
 96 1
Ni 9.38807634018268 0.03543215320160504 11.0860808119989 1.2719491593681642 1.2311269831454799 -1.5448326791706106
Ni 6.302828205858654 8.756523519397865 1.9661004720547215 -0.21296987416594934 -1.396733280425801 -0.27589710981778937
Ni 2.708623466823043 8.300677735832565 5.8395158439424755 -0.10108626322006463 0.7906792710053931 1.1430055076161993
Ni 2.5025728006889927 2.607487507653786 7.786057744700601 0.5474310575708765 1.0277131280990817 0.6441166206200841
Ni 8.81892494602641 2.3413178164418786 5.01953420169317 2.275264575349172 -0.9158516286403839 -0.6136523905929561
Ni 5.382518442001394 4.328408806326241 9.56378527151137 0.08772706830433924 0.1327673963734294 0.30083398226878516
Ni 5.476930313614684 5.130545099023845 2.138656658668787 -1.1349358432341874 -1.301794781974687 0.6952239808188607
Ni 2.195708173944704 6.795751176440308 9.10437288037765 0.9077218004443979 2.2300159879240176 1.0005255119406962
Ni 8.16280552929768 4.067343739329357 9.805827800106965 -1.4574761068318125 1.3519310365094457 -0.9689032570497248
Ni 1.7674879726339905 2.6829772286518336 0.6179748991946897 2.7597272596176277 -1.4490423742421623 4.5590875817913155
Ni 9.268321287865493 2.31349335272437 0.08282371170697798 -3.387079002074547 -0.0027752487522919944 -0.5838476485266977
Ni 5.645553382535801 7.354996379633845 11.972678273781545 -0.2838518458884918 -0.04178248325342482 -0.028922596571621155
Ni 1.2485683536845493 0.7567723780594595 4.432710768974315 0.316725456688061 0.3190415064157473 0.507084792543346
Ni 0.6499285209043135 7.415522638183401 6.851569626646103 -0.0805482911677129 -0.43042400935549746 0.4571066608530063
Ni 3.4076255151763064 8.268714643577088 10.776520867904711 0.5862814547791709 0.3428221537751128 0.37229085265819106
Ni 6.23909143226477 5.572895354747943 6.007179546568636 1.3935412558510647 0.5409266807934555 0.013855674936169687
Ni 1.4973406521636237 3.9249162002389504 12.895717448953778 0.1777539883864487 2.7404339586056548 -2.979252932624224
Ni 0.9627851620100955 7.360953352975681 10.965489510482849 1.0363258094687573 -1.120379285576251 3.170119804243547
Ni 2.1668798323667273 6.4724740937319485 0.3277348686415908 -0.0973548212020904 1.1339349127734986 1.1829468238958272
Ni 7.575868450028583 4.497827401099051 3.234099544666845 0.0696486135360736 0.06701683234018135 0.5156686775576151
Ni 7.571843468040856 1.188837620986684 12.76948359621823 1.8744823001195072 -1.0286929755138476 -2.323532923437256
Ni 1.9475704020378126 8.049821917265726 3.6906982366274956 -0.4562365995432272 -0.785096634711293 0.572551249677272
Ni 6.00867305164973 2.269786783610584 13.76518269328749 -1.524579585348529 1.8718718590798538 0.7309299188609025
Ni 0.6783922464669317 2.2548706738913613 9.987755091843042 1.3299684161954257 -0.804823166605943 -0.7912695962912243
P 2.3159178124628594 8.497702971768254 1.7332197495177775 0.13011864589667266 0.9419416408592165 -2.2829375185133975
P 4.872349607420563 -0.01794668439233463 3.982682741726805 0.3219265412730262 -0.09717150154669071 -0.2826714524271454
P 3.984050288548046 6.153970166133739 10.386940493676173 0.9529089385039975 -2.1616179589655937 -0.919394608796636
P 2.16683247963746 0.9409366127261293 6.619243878096173 -1.5948295799140275 -1.374951151553703 -1.8712771629186482
P 6.186046904939458 4.9338513321930275 13.622718219068254 -0.34083957612744525 -0.5135819702319154 0.236199019897219
P 6.4678429968095985 9.058131993193475 13.645339564893863 -0.14186910156438146 -0.9776126118982648 0.828318935735038
P 3.7288474894344628 2.1584605171029883 0.2468204189786733 1.3380763900145407 -1.241280526639714 -0.44403465816039656
P 9.035241683865626 3.2269275002920086 11.38098982165776 -0.04446131563716858 -1.6966437224390523 4.200630549692423
Ni 8.995711625473223 7.86588497569954 1.0192940150086085 0.1877715205234508 -0.662081432628621 -0.541713181250493
Ni 9.309764396520299 5.272262347175241 11.785540287716884 -0.8582499189665155 1.3954914375989 0.4522537036360792
Ni 8.66512328136598 4.726380084180956 5.425484414429438 -0.38132365228442067 0.9929957792225544 -0.7359178589937971
Ni 0.7841062675017583 0.36474007950945797 0.8675484058529682 0.6971283969304253 -0.08998989619658695 0.14843107105261533
Ni 0.21193755743656978 6.42371972367826 3.1026549976027127 -1.170431722147952 -0.2637483902703974 0.5611486642672853
Ni 0.27498866351066326 1.81433876297113 7.697707022433535 -2.120892199111457 0.49449024370778705 -1.4076938932023626
Ni 7.333659239825966 0.44050539339184125 10.14593783101529 0.267732571729126 -0.08914246059462712 -0.21591790105067976
Ni 2.2364031094770853 5.541841434894399 7.4412351701755854 -0.45699198965201293 -2.4885149568700173 -1.429238452142358
Ni 9.123743934866349 9.512689782522703 5.998613437844169 0.37036098262532985 0.6585111987788594 0.2814113547677992
Ni 6.878334336282608 1.0085847217574992 3.3413847292587624 -0.12760205012240605 0.9754752538402878 1.540323221336031
Ni 7.7559508794324055 7.411175657636657 10.555394986881101 -0.0989620177882102 -0.7500157318477599 0.7911646952822439
Ni 4.33611783065097 0.6851646338067516 9.43105178315658 -0.8649905801244586 0.7062231601428418 0.047629943173137325
Ni 7.032884174065462 8.620621186400502 5.650990422910281 1.6361340950897694 0.0821014945874457 -1.5587906840125991
Ni 6.982103107199131 6.441145528048653 1.1911901045766873 1.224663486908323 1.1107569319951387 0.20983055720601926
Ni 7.691598520358045 3.868841098240526 7.555783316382533 0.3718475944731854 -0.4303167943536718 -0.7782808973410403
Ni 2.710356576714229 2.832905440058192 4.603354852380564 -1.3544725719843769 -0.6803036120636025 0.9740035543907677
Ni 3.327542579439324 2.928898892829012 10.01463155392062 0.4102655321297515 -0.7400496217739835 0.2452207637798551
Ni 7.884182070288453 8.373278940345303 7.8547116257016105 0.44621932451654117 0.3591448021945363 0.7964220870264412
Ni 4.385251022538797 9.48730871963539 0.5355612621231672 -0.5470816446512577 0.16862991459799345 0.034432213535940705
Ni 6.748370035535374 5.14783831575229 11.60836720999925 -0.10982647130653987 -0.22227906738201716 -0.8483470580305068
Ni 3.6385837169049946 4.276623861599441 0.4901547300286826 0.7565710164677745 0.5730549287865679 0.46267052809402903
Ni 1.9554877783713176 8.556685531343694 12.965909346601393 -0.20693755192894037 0.6727443116591059 -0.1298311965632409
Ni 3.6877737320679427 5.979598475879562 5.502843621178961 2.8851405296188313 2.15874449407254 0.26585515220075506
Ni 4.5812250278847495 5.593844202175829 7.760566823481389 0.16828410122280052 1.4210924259964557 1.3160512918937013
P 0.505609713806968 4.010653051850457 8.570873356086784 0.6246258588853242 0.03269980422586626 -1.2481278885788505
P 0.3541302269898102 5.4004177736644605 0.14317381810366042 -1.2649552445488343 0.20979121932765157 0.6054150902848283
P 4.610157545467115 2.775513932186135 8.06171313463935 1.0483554869397815 -0.5765773401175296 0.9066313955936967
P 4.9993496273156595 4.719476056253773 4.375187620514895 1.335565450667229 -0.2587697061088834 -3.6552460902379305
P 1.1580583469628911 4.2072615837685925 3.7331831053261832 -2.0033727300360336 -1.3777073741426016 1.831117559980627
P 8.146412014425314 6.555862249971793 6.560403376708534 -0.8997207845167925 0.40185905323361115 0.4961763731609583
P 5.4216886196513645 9.363755978430959 11.359713293343344 0.9406429766524509 0.0038124317675547244 -1.5925595529329284
P 7.506117879817742 6.843852078830107 3.7089394549958734 0.8779702802135783 -0.4610916136426833 -0.9440463459070452
Ni 1.7597031839424344 4.598044717320521 10.409576045320565 0.001508723335042563 0.8326733560489917 -0.4983654103924772
Ni 5.672866436777222 0.6257388526853682 7.422522318623705 0.0023957539256861966 -0.14856296864478932 -0.06865102550949466
Ni 5.070549191042083 2.035968477034146 2.1995626861070683 -1.7755287669717295 0.006915753283226799 -0.09034445132252827
Ni 6.936843368565375 6.1057366761019916 8.49808842298449 0.27512526464877135 -0.22710168558164112 -0.11974681574404537
Ni 2.997948642646696 6.380505622948855 12.205337385545517 -0.6133633985976275 0.05274566713314787 -0.6714443619007598
Ni 3.926914485414033 4.227443316982347 11.998640828184262 0.9145401089178121 -0.3655573905890995 -0.863581615592074
Ni 1.0558616866580453 3.7107113941250582 6.305817110130012 0.08190969029161378 0.19544009281230212 -0.18155742129293895
Ni 4.512279454071454 1.6890718529672197 11.812402543975681 -1.2631744984993278 0.5741239934810306 1.2039265114712878
Ni 1.8391326520155271 5.0409726763416804 2.033562011332778 -2.0360421952445966 0.8562724835251705 -2.8714033825383964
Ni 3.5711723715199613 6.856059612435235 2.3330036242371133 0.4000381979747885 -0.5780392693750367 -0.3193898908941016
Ni 4.544507721610827 3.946357516051217 6.155257213315227 -1.2495273400295384 -3.5887771599814196 1.93251209846973
Ni 7.992013705376117 4.088642996953821 0.8176992406986184 0.37409988084247187 1.680623692861712 -1.0807349317117516
Ni 1.5921976394320265 0.1350802896172809 8.535652396057712 0.1709369654646153 -1.5848488145522317 1.1922822423641404
Ni 5.079413621960935 7.906665146144602 5.986027082404901 -2.381289670631751 0.48764108199643763 1.7470602272183913
Ni 4.026573039430148 1.292748450091009 5.665059865830203 1.2212511187926642 -0.5181839877803011 -0.2198339482756343
Ni 5.378351401825865 6.937174837670247 3.9583150272458143 0.1383621168523875 0.2940966635449516 -1.1889619197416557
Ni 4.714125197846561 6.433275504444416 0.11957227078221602 -0.44721177033679754 0.673022505021157 0.3740510298824074
Ni 5.9411670008061614 8.389577749759132 9.281878374254742 -1.6387237101938166 -1.5261081061779136 -0.26112560793556966
Ni 6.434516145951221 2.3709511544174013 10.611158507920944 -0.24596278415220224 1.3518181650806653 0.5179893552709918
Ni 1.240082744599836 1.6390768414067267 12.330544631110552 0.7687624163276437 -0.5409140823879652 -0.47643210065449565
Ni 3.025839400185179 1.0205554917162913 2.909182163416663 0.13938875834468897 -0.9653659333204276 -0.46299345865108643
Ni 0.25965016744637553 2.1771648451636008 2.500418251507327 -0.6756339745020751 0.1200373504012707 0.8032352532935327
Ni 6.814550209959456 2.842186574994597 5.3933678993311345 -2.666002836079273 0.7568247843497934 0.5747078910089586
Ni 3.402274656769093 4.043402199411773 2.95568538472098 3.129796679144468 -0.7356198681374041 -0.06619202244604085
P 2.203142552439682 0.5585074476715511 10.670095608876288 -0.011664837932437973 0.9918184710850017 0.06582769712808663
P 4.1167799886844945 7.796068111667724 8.086954980502615 0.1288786028419845 0.33298459885940074 -0.5160633418928725
P 8.665331633374757 8.23157116273976 12.434502812944144 -0.31566127708960473 -1.3845737622451317 2.6959181355814668
P -0.05110306542534969 7.738572427791278 9.326649432722458 0.17436938818493194 0.9608467052938355 -3.596106089542664
P 1.8117154217697176 5.745477111835813 5.346143969487367 -4.844106708515032 0.8821640065799518 -0.3426573460624744
P 7.025203561378294 2.6270631259329185 1.9053611262234613 0.9171366660003947 0.11984271789196134 0.9299410168539145
P 8.729314641160832 0.12707862542568008 3.600711951091535 1.7351969001219019 0.032974398043491594 0.6344464445201718
P 7.535504983601074 1.5329309634809818 7.14646537754077 1.2872672777824732 0.25178813258472765 -0.8768603349788511
