# total energy = -340866.6741779498 ev
CRYSTAL
PRIMVEC
9.31522240688579 0.00000000000000 0.00000000000000

0.00000000000000 9.31522240688579 0.00000000000000

0.00000000000000 0.00000000000000 13.63376958958567

PRIMCOORD
 96 1
Ni 4.919965064760083 7.918497858524922 6.849700924903258 -0.7934439782347239 -0.007006513224820191 -0.6729723685095119
Ni 8.988695801578768 4.215957825087732 11.003651972827884 0.5812744884828828 0.05209080715796835 -0.8663445230491919
Ni 3.2958560587677774 5.860970189895334 12.997890158185243 0.7043706803151353 1.7385331635839865 -3.712343606581871
Ni 6.99644921074668 7.941599609800292 11.094929972988007 0.5086688492010143 0.7779001169628539 0.5224152522528294
Ni 4.332910440919297 8.909078596679334 -0.05892995924123045 0.7104279422528087 0.621596070920065 0.8620980890680121
Ni 3.218837800886823 0.058101835979786715 3.0184617803287606 0.7718865637789223 -0.4168544982011789 -0.20142253564798215
Ni -0.05254996349586693 0.4351988016166055 2.09394273559962 1.1487344396801764 -0.30429802955798557 -0.43247266435441
Ni 6.965066226856872 6.668376396969547 6.604743181994875 -1.0194334045887927 0.7512246645541966 1.3006362428902116
Ni 5.1437167041287974 5.7190434631084175 3.1019420079112168 -0.0752091383429866 -0.7599543311177105 1.1359041206847276
Ni 6.255386016810849 2.3068123322909595 10.972730092441353 0.9398747310278587 1.7932328691197117 1.5904782449238672
Ni 2.3666719507165777 1.6768238489226792 10.144751216943083 0.5792919108352153 -0.2306914598154285 -1.466678599266687
Ni 0.22245123433724506 2.542329097409993 9.29074561037087 0.01805994282550438 0.27026613678425715 -0.019145976800831542
Ni 7.349104896143048 4.088236812290711 3.5661167399782943 -1.3470330849871963 0.2247702092349871 0.07459438757712315
Ni 4.877366553234975 3.4073313238937306 7.172862753489918 -0.6680260802478302 -0.14912218358236898 0.027206385211462823
Ni 0.9703294448993094 2.6214712259727153 2.265005614660369 0.44389530436905483 -0.20044757332922253 0.4831233966317422
Ni 3.592983704102659 2.770272586808512 11.864501473215428 -0.5075920711970678 0.5635189642716746 -0.6431925661439182
Ni 7.1003046240406755 5.500117108885124 10.297750016942059 0.9794244682960229 1.6823602159368445 -0.6195965239915329
Ni 6.443777072372584 1.3668039359405744 0.66330717044963 0.37043323062416206 -0.7029280343313378 2.2400427760324004
Ni 5.762685279529834 5.351446161161366 8.490007239410733 -0.5282696541510773 -0.21234098233269882 -1.547741111066657
Ni 0.6622023850862191 2.8983941541639355 6.649802775248594 0.49224284243450717 0.829784464536971 -0.39189011494635734
Ni 6.097334640242617 1.736413325901932 3.3959807255352468 -0.43476531704332866 0.09898670037855854 -1.304360228709018
Ni 3.2745800910609435 7.099689819369638 4.338851689694875 -0.2612289662826533 -1.3324071075439055 -4.239098366750318
Ni 2.3106688343183803 3.8981038101610355 0.3832096145025036 -0.14642663902807684 -2.3673573768213747 -0.11413049799853248
Ni 5.199738450971571 1.230811005751405 5.4846203050860485 -0.4899561032828594 -0.4707041970317829 1.1693901682573151
P 0.8287539019926683 8.077396920321405 8.835500450389507 1.650195715389158 1.7822288046997241 -1.3258520800342068
P 8.47519417292763 6.206797817354263 1.0818764372368836 -0.8963294994470563 1.8285582838938832 -1.2511774740384516
P 3.723396816141043 6.070497484829575 8.064088262237886 -0.048193528986091194 -0.18958517669342187 0.6026398415325364
P 8.54970663601299 1.666279017292147 7.583470299787228 -1.7573634089166124 -1.0132164771448033 1.0479356257935437
P 6.8173826926956895 4.95980627048781 5.503953117423511 -0.8795841616679174 -1.6164723549947841 -1.0757539335573925
P 8.358548959431584 4.833091301697943 8.726348401702294 1.0490910795542256 -0.10710238750715749 -0.7367203002904344
P 5.476018628824888 8.872721284087492 1.7915864559942283 0.2963234959929413 -1.02670576988049 0.19934534140397928
P 3.5205019594761824 2.337543250620576 3.1260600499382587 -0.4894238849284733 0.9523150136737407 2.35597124647162
Ni 0.40402634175051627 6.9156117117274585 10.356974337207605 0.007887373167876738 -2.31207917307436 2.691136397922107
Ni 7.126145050668853 0.8555090834495718 9.49950626251077 1.4283542497651918 -1.564598291833312 -0.9019494167369951
Ni 4.084166060150656 1.0156014252212056 7.769612660688528 0.4932733405815504 0.40941218299052073 0.7618903717981589
Ni 0.16779137299304284 4.6261536385598925 13.177337668827832 0.020092399874500882 -1.1194248920827818 1.2001996974390041
Ni 7.877408413010542 2.615155505261142 13.095140147354495 1.816501866949981 0.3942773842316113 -2.649914672268159
Ni 2.6522394051914855 6.811644515766002 6.286790425711921 -1.1795779074235944 1.0050352268855915 3.2276659780891315
Ni 8.36973654140002 2.1942937622686993 4.119006854553939 1.985072389064949 -0.7119361513672191 -0.8905128927652793
Ni 3.8020172922556115 7.1481941818256285 1.8175591587789013 -0.25763019318780145 0.8250904014954112 -0.28646254403846144
Ni 5.107918304874261 0.3391774902672009 10.920826605372305 -1.4028064832030744 -1.1917137714551798 -0.259810745778888
Ni 9.462030191722084 0.6411509142365373 5.744425580800002 -3.427020061243859 1.1724425819303936 0.5858628791845136
Ni 3.0046901556975074 8.647237013373124 9.755534215586756 -0.7442595460902731 0.41781300545970623 -0.6740090373041424
Ni 7.551515361248909 8.496218629632676 0.3669927440205305 0.5606380431794539 -0.1846715414418884 0.3784684422238127
Ni 7.687871585107327 6.436772025211665 3.2860247731645402 0.14584608393425852 -0.06372067808741283 -1.0768811051833003
Ni 9.272940494488715 4.647988519604033 2.141088007123725 0.188785563610262 -0.527305490465595 1.1764632730540128
Ni 2.7666675957828795 4.582493191693899 3.128363704410194 -0.13641682020055862 -0.6007930181317847 -0.058798558195447125
Ni 1.5594520480881333 6.075210987307534 0.9051992737028827 -0.9432153653653175 1.2521637492111208 1.621803280289394
Ni 4.82098151272295 3.674883138462764 4.687126426048981 0.3837448601314037 -1.5572809322362924 -0.9482274738679282
Ni 0.76810342119476 6.362091888125113 4.742915292334545 0.32936062895356827 1.2515214876414318 -1.5046162548527249
Ni 5.107918304874261 4.568967488931061 11.031682408216076 -1.7642076855319553 0.37718546174633105 -1.2572064538413508
Ni 7.323776806740736 8.860369299332998 2.8296888006531997 0.5993100058283549 0.18049632701827625 0.29106636135906
Ni 5.922562439666605 6.94093980112977 0.1380068812479336 -1.1842218339535089 -0.7463115435232953 -0.9978399946887331
Ni 4.688817138894335 5.710547980381345 5.600602274755157 0.7008886353038059 0.42516250384624193 1.070594243733324
Ni 2.538342182270534 0.1986294163789765 12.08468724549212 1.1818121960707517 0.3289096574590787 -0.03651892086164034
Ni 2.0860974553882827 8.438250001331614 0.5049744741682852 -0.0431528812383902 -0.3633585831655678 1.9332510335182833
P 1.5279293358639983 7.2311834971934825 12.355085791992504 -0.5091681574349359 0.7282449158295716 -0.3188810695784831
P 6.764965936878547 5.149575978948236 12.266220434405092 1.1909599240082909 0.9166864658368535 1.733167528396699
P 1.1680450379717884 4.3204000973859005 4.706363291596872 -0.14992950997501275 -0.9452331671262947 0.811647388616628
P 2.0412726057362325 4.395424897697125 11.758021961802774 -0.9497451960640353 -0.49481137449263174 -0.38957277966709036
P 3.895532808809422 5.128346587352844 1.0785732594133972 2.1617339157181674 -0.9290005073175162 3.4304792234370534
P 7.230251974964637 9.902640205966053 4.873049879226504 0.08127514203140841 -1.1863149690371118 0.43388240021774305
P 5.52421558894536 8.902706984634031 8.57326855926941 1.1119612367158849 0.4456955908025873 1.3501474622464618
P 2.538630954161476 2.5978198765823253 7.826479298192867 -0.7010519003545475 -0.4398494164344554 -0.23388708393459076
Ni 8.088332991288052 7.797064620772609 5.053029289061762 0.3071465547503742 1.5515936520435278 -0.22868754201152225
Ni 1.148324712387127 5.676090973136347 8.257837433659942 -1.2426560668310018 1.2459511926425058 0.9357090296859434
Ni 1.6283567473558425 2.1726451856703277 4.581437777008617 1.0804269135530296 0.4040897423363427 -1.0291760857978534
Ni 6.586402440831134 5.079870170563719 1.464689223269899 1.4778053053074678 0.07737272165320867 -1.316611021051913
Ni 1.6277046817956506 8.983954353433944 4.444949276993702 -2.2001996758935336 -2.048558582544053 -1.3199231161442815
Ni 8.845492889338335 5.264218419652264 6.34114754233175 0.2966258577247085 -0.864659422037285 1.044039633173247
Ni 6.837401105393582 3.087865775511131 8.584434716226582 0.6881133379160085 0.46691181986888614 0.2609309754262603
Ni 5.449852169416616 7.898106836935492 3.7996363214386824 -0.28270461965792604 0.45931112470349283 0.9607297200999971
Ni 2.4593211515975613 4.60203652805508 6.816080424619764 1.057889908792778 -1.8674721873502613 -0.8596938505018935
Ni 5.0454597394301635 7.134044359169463 9.82731638701937 0.4005135949493102 0.6162587178675516 -0.020899469156828523
Ni 8.092664569652184 7.3575351723141 8.72390781346272 -0.9508638830495107 -0.5858140282244492 -0.5238702395318011
Ni 7.328117700327156 9.067148603692145 7.103139246183053 -0.1850636346739845 0.9760141570628933 -0.14820507108473832
Ni 0.23620702309060806 0.08012115842523905 13.204687161466738 -0.0602885124774123 0.6992413295083699 0.8193462999227824
Ni 2.570926829835553 4.045256376651776 9.505696227721451 0.6221246897300254 0.2422331419064409 0.5634665137671844
Ni 8.601378174047055 6.6016794053842025 12.442655402159593 -1.0972540124126975 0.7606991797035351 0.5347400923667693
Ni 1.0386659156074227 2.244102255845074 12.116235108816433 -0.1308786639911488 0.6920604954892146 0.44212484273219343
Ni 0.4988897709694658 7.947756971732962 6.763072152187305 -0.07154711611036711 -1.1907961447369169 0.28188855151453385
Ni 5.033396526566612 3.512090313749707 2.088570646905868 -0.40920135253129525 -0.13136100294420602 -0.26608757992653526
Ni 2.265434114885638 0.3744784566515338 6.441274072143676 0.39707140203698066 1.08990528535711 2.6126704432047196
Ni 0.5974932619372304 -0.0018537292354027473 10.929975085181798 -0.6006462081412752 -0.009052597120571505 -2.4200575354285676
Ni 5.70774409847252 3.6238450355443135 13.166540394673282 -0.8438471132776241 0.07518959795896082 1.4502168541662377
Ni 4.196470380060282 1.295691528990501 1.454463903763861 -0.26168893663820736 1.5719017674732605 -1.9242827685814021
Ni 2.935850662985817 6.4056964436573764 10.519025670226501 -0.8513642475902756 -1.027119974599773 0.5357865313534128
Ni 7.218272599101683 2.8017300924766277 6.169771671802109 -0.3286684879825501 0.17858779714165374 -0.30624126932728546
P 3.6659871011772887 8.915347741279465 5.162958227287832 2.038626411032005 0.9633705001569538 0.6531951858825847
P 1.8311584517978183 1.3622115313523657 0.7847655593021213 -0.21945033968397043 -0.49799491442693594 -1.289034139874909
P 4.567113759695658 7.745290615293371 11.99951630506431 0.4773898365820745 -2.511823549688971 -2.861214100710221
P 4.663405212491428 2.5873775123969662 9.532076937242357 -0.15404276081243792 0.3727675351842935 -0.3012083348890684
P 1.0911758236474494 7.527444826855538 2.8192455049456115 0.42946267388349263 0.6692548104486087 -0.7652371767832047
P 8.058477703853551 0.7016029807997014 11.804049406652263 -1.3396930996823573 0.21931021456168037 -0.5455685504408411
P 5.04463068464649 1.6166568281615419 12.80050059789286 -0.5512625155018248 -0.9065388358798904 -0.4667860929242993
P 7.971166125343852 2.8401646996387977 1.5130072812801203 0.6111134262211863 0.2572617541047892 2.294415694356326
