# total energy = -340892.08285362145 ev
CRYSTAL
PRIMVEC
9.09899360090689 0.00000000000000 0.00000000000000

0.00000000000000 9.09899360090689 0.00000000000000

0.00000000000000 0.00000000000000 13.31729687529705

PRIMCOORD
 96 1
Ni 6.416128041341898 2.0164097741119162 11.375461712064558 0.22769612463253042 -0.32416982878124817 0.9786009439534631
Ni 4.784041558983616 0.3730150625052924 6.095659666887112 -0.5940952943966349 -0.6113959904586115 -0.7584726043658615
Ni 2.712919536343961 1.6784185577787458 4.7761818483103635 1.0490113753562256 -0.694058756866166 0.8962346257404048
Ni 3.451821509766881 4.481600110652752 5.252821709349332 0.00979564593418313 -0.45235706198316294 -0.013721463351150563
Ni 4.760611650458931 4.552635953702154 2.518793417748512 0.3653141642300418 -0.6738593991001556 0.08221770845033582
Ni 7.297693135447739 5.982251630432759 2.8476910998760245 -0.9789835241038624 1.8199330041187174 -0.5285717587725285
Ni 5.058121444257609 4.681941751777604 11.633591061554563 1.2096970954064779 0.20808940614519647 -0.8789866372932346
Ni 5.74876235561648 7.889582669246069 12.392850213362834 -0.7042657793061549 1.2742328131960186 1.1219594855791775
Ni 1.787524590058158 6.518846580112834 0.45365762299949425 0.3721833805460493 0.006400761320021235 -0.37085617709419355
Ni 2.7138749306721524 1.4579317448194666 0.3305127534918354 0.36816268942243047 0.36078285201859156 0.04965597246423061
Ni 0.7256420100469889 -0.06857092568266855 4.77785970273054 -0.4127502462248182 0.16496532126221267 0.17939949440967168
Ni 8.700357593129757 2.671200650679621 1.6546210499125482 -0.1424990218388965 -0.6950177783453255 -0.6599049938025926
Ni 6.859940553264225 0.5329417037489446 4.623632671079067 -1.6482468191929034 0.1070296252876931 0.9242899892157244
Ni 0.6785119528876467 7.540709056565122 2.5727686477945024 0.1558427901356542 0.6404833947428711 -0.1635360450148538
Ni 7.842549971318266 3.803352028579558 3.84187989718774 -0.12105859257693345 0.06638099852839535 -0.004184470394992793
Ni 7.780886091678739 3.9451689428575096 12.770781462111188 0.08339604502915315 0.36886922857115184 -0.07729096057267978
Ni 7.750204285253404 9.039886539381635 6.764960708551636 1.705195211553489 -0.8184767528336356 0.28791727420711705
Ni 6.90763747772496 0.9453399402609903 0.46393857587018966 -0.2901093967624294 -0.6270110712880492 -0.20123484511720827
Ni 1.6841327257606884 6.730416379342331 9.350061222374684 1.030143591917445 0.15926621399490634 0.09731085533803241
Ni -0.03662981854284296 5.040451198682876 1.5702961267076905 0.7131000897683332 -0.3465741646183773 -1.1006368128420012
Ni 6.434662691308804 1.8302352660250967 7.11647029967903 0.05962105409674249 1.5067880656930632 -0.3279040990126998
Ni 3.474605389745836 4.097386006822341 0.1546028200872279 -0.6713361184576696 1.369132230879081 0.7119196963069867
Ni 6.029047754526915 5.447512875447455 4.870122587953625 -0.5199590774028529 0.6305262835301594 -0.0723457007522625
Ni 5.505145900921377 2.998445955569043 9.295632862447324 -1.1146488108503771 -0.6636423493578377 -0.34163353278365033
P 9.210547263377352 5.773138559475753 12.567373460142521 0.8119132406835049 -1.8875445326201041 -1.042503656144695
P 3.76514535444552 6.199617488586614 12.649075143491975 0.10291817422248081 -0.6127892712617125 0.7696489326976551
P 2.2855671038473258 8.57806711912131 1.4299577988900343 0.7542853057573913 -0.28110153683686423 -0.5756340023676538
P 6.229835246338255 7.6352476000880225 5.838302821953901 0.44976513288627057 -0.29889922713991746 -0.5763971057859234
P 4.7879814232132025 1.1184846895100051 12.676575031854753 0.1755873197524331 -0.4966026620650995 0.3160184033187074
P 3.792060177519701 6.185568642465405 8.429502391188247 0.6050980732650417 0.8368650255328361 -0.23962552908026477
P 4.750120510836034 0.8092699503419475 3.7065096198766776 0.5970559196868556 0.7652878275154821 0.513877132874831
P 0.23673852543148827 5.7813276537173905 3.60417960813254 0.614842040025683 -1.0963523265340345 1.4572295380386453
Ni 1.3701901495171256 1.14286999236288 2.560316675050413 -0.2820808700309981 -0.32285445240393434 0.09208688793493172
Ni 1.9747727793899925 6.646723836192799 5.027745364017296 0.029676958239142435 -0.4728469544063985 -1.3356580103810352
Ni 6.206086873037507 5.545754709366296 9.353656234746762 -1.1195547327924267 1.5733984066234452 -0.1584915406124109
Ni 8.679093245082306 2.315266218963663 10.420851717122034 -0.04939577682430848 1.552363697440333 -1.3670136418741812
Ni 2.006428178130721 5.367432632757846 7.197959066578201 0.5106817658659849 -0.19369122844199546 -0.3390413465764419
Ni 0.8670021548461292 -0.015433712947405474 9.392143157883737 -1.1378951829728274 0.024998836037182753 -0.7904846384960839
Ni 1.2253159733889627 1.196372074741576 11.56399467929297 2.0181827984656726 -1.2948170651052733 0.05724355500350141
Ni 3.919200415117918 6.691308904841712 1.5993137272032516 0.15978403417158932 1.1591263244374617 -0.19971558025920444
Ni 5.877749688915868 8.020489890195439 7.952436697248714 -1.0443959880714013 -0.8320321229205669 0.9658176761458657
Ni 5.3024931154216635 2.9464270091474436 5.145044130135786 0.4079430546441619 -0.871325778313867 -0.8290411586130432
Ni 0.9156772211190602 7.499854575292955 6.912635554910439 -1.1176973678687137 0.8733255823527152 0.8240437053984517
Ni 5.183687555962711 4.46793342226282 7.183789203842088 0.7707835605227306 0.778414337595111 -0.1448520954521054
Ni 8.137521145902037 7.375371243826469 9.14739842798201 0.38083617112504087 0.3448582103685351 -0.3534174127924558
Ni 4.662988548105014 0.12225680773212132 10.363334248866856 0.06395362003382535 1.0882867759170807 0.6003950113624177
Ni 8.1298415953021 7.19830482833507 4.874690282741738 0.3402615921367882 0.23488055819611162 -0.07114345291404522
Ni 7.279950097924192 5.9459466459615005 6.995309920675928 0.693535023152212 0.259482673015508 0.2496024377873185
Ni 2.2834288403508984 5.215106380869793 2.6999616595556106 -0.40350635902904697 -0.21348332346725815 0.15032700252374756
Ni 2.5460166967057942 5.130112681635201 11.000273809887151 -0.22969104357537218 -0.13333329617922843 0.7414408456945553
Ni 1.078967760297305 3.141145472226371 3.8865996309419604 0.5184529251709715 0.47880394332078174 -0.6072570285895735
Ni 3.5541123958385303 2.276959455900005 2.589774666836302 0.6808790249510983 1.1102594235334298 -0.23675977749669544
Ni 0.8819736389185623 3.192290915262196 8.229130723384511 0.20337888804340457 1.0890555357623053 0.7172915021418615
Ni 3.8467815250410404 2.5734228654344733 7.128762130135727 -0.5196456599274921 -0.7299035344789172 -0.7866575514405098
Ni 4.194344882643325 6.782417127776727 6.211840166691938 0.03181997272407423 0.2741171350992311 0.40075759263931626
Ni 0.8492563876245015 7.654473773568666 11.637399900276284 -0.10437856081809122 -0.34933475808265 -0.0860540514772905
P 0.12429862189636952 5.6808019724044945 8.218343866469553 -0.753411130682554 -0.3175145282482596 -1.2690425272443306
P 8.795824234000042 1.3563232832679533 8.13644200526086 -1.2667904979853601 0.3914802811024484 0.16444647264426518
P 1.962825800790804 3.1025202443866493 10.474786001696817 -0.32014605233383575 0.3718018288369145 -1.5215564822514893
P 4.061253903229518 6.063733118137049 3.9249000247100976 -0.856763564228976 0.9375486539978434 -0.6520605580575093
P 7.055377836837697 3.9466065838465973 10.495441627072307 -0.07202379863646952 0.46352953366021465 0.8951066827835488
P 6.48031234220913 7.9403732515314225 10.378062789810121 -0.14122683999469227 -0.3074190916854706 -0.6716253675633143
P 2.7025011886698787 8.685371550667561 5.812014919538886 -1.2926938481146835 -0.33364640081311575 0.37350364201936964
P 6.796065618179455 4.235226660896298 1.7908038673522537 0.554430114596529 -1.089207230848821 -1.4067461845771128
Ni 5.489586621862267 3.068089652597366 0.23675763331805208 0.7647011017740766 -0.32132567446423366 0.5725818458048914
Ni 1.5027351893148235 1.2113945131781794 6.991380975238662 0.8622461846101023 -0.9207755483045627 -0.2737679792899285
Ni 6.932131968501057 0.7939854608896119 9.234213745735685 -0.1361828498128816 -0.3152583852242312 0.07384311123339542
Ni 2.849231559492812 1.6202577906759186 9.20908414520618 -0.07249688161814612 -0.5232578027587828 0.511323513215042
Ni 6.29313694482611 2.3500516715034174 2.728767253500249 -0.6869874518416814 -1.3256512768773105 -0.1230087743247688
Ni 4.27585366732842 6.8378572957926105 10.634127577651872 0.05004420904158478 0.37188487546902405 -1.294874914926402
Ni 8.368162435720945 7.223372555708082 0.4086594600410583 -1.4507680986840177 1.2547443654541035 1.1888940426181978
Ni 7.5070882752064 3.8896377849056085 8.309341081682627 1.5445524289260302 -0.5287818179008055 -0.7777088268876541
Ni 3.1816177957672624 8.417042229349917 12.526183226006449 0.4996203658455009 -0.09191668090565461 1.0516840370923823
Ni 0.008581260865875547 5.075409532101066 10.277357858323267 -0.03302916254082699 -1.0417202410114512 0.8465827670412323
Ni 8.672869533458663 2.254211971895457 5.730233165045736 0.04853599992717447 -0.5178075782774888 0.492934469184893
Ni 4.003557184800383 2.678270568708234 11.316213615226314 -1.108134663880943 -0.7227057311788972 0.11083408663544783
Ni 1.456257529996732 3.3364735678766206 12.47962549554466 -1.738187093098477 1.123242723166975 1.496152697466404
Ni 3.016653041766283 8.499742982196851 8.069096714016357 0.7670480047396983 -0.7643516888544578 -0.12009340045018672
Ni 5.49885849634252 7.748766644264317 3.2817685985437643 0.0037898060597354086 -0.15102634258361733 1.5375765118288294
Ni 2.9755437886732645 8.399317389813573 3.5671976585373066 0.7604937485609483 -0.10150201060124453 -0.22636455030530048
Ni 3.3831332070667486 4.179586315021174 8.769772905418675 -0.414999190159995 -0.908283586485139 1.6609334135216363
Ni 7.309094174430818 6.271344855149755 11.550251559356782 0.16534455897850234 -0.7402074875080865 -0.09250340664706004
Ni 0.43620393347248493 0.2102668233457161 0.4214089698759272 -0.23083518448214438 -0.055597020539013935 0.06255596835535032
Ni 4.667601737861137 0.21449785537056196 1.5113264590736613 -0.18259254742567263 -0.21647994420173686 -0.6953381377992219
Ni 5.862044825959128 5.780463249325218 0.32310708259931487 0.32368260473218446 -0.7894415419435501 0.39959699667231174
Ni 8.156337864670597 9.201266289903497 11.225735952547906 -0.5584721458763865 -0.8725524516321166 0.7340898046461227
Ni 0.26787073204011214 4.692669465234149 5.566323894302568 -0.46916796289291457 1.1840374858568448 0.8202803817012777
Ni 7.689723274782113 8.847524715645578 2.603039179709034 0.4910426514788188 -0.6571955652912295 -1.1999371878062366
P 8.486103590787724 1.4627087164604218 3.6275248960167272 0.9439468442147034 1.2935058024930175 -0.3780025583309877
P 1.8975041257233451 3.313289332179186 1.5065458478352654 -0.8403059328935851 -0.2741670145005601 0.5744219843374236
P 4.734315558949675 0.8756825947422646 8.313202694567238 0.9683052184544098 1.294284589640571 -0.43221581114859753
P 8.523509553484802 1.8672226750164913 12.658250568640051 0.05492981926866024 -0.223136530286306 0.24236323972640192
P 6.330788580350438 7.6547467433767205 1.2773622167913676 0.23973634362651614 0.6427068847567512 0.12456326329608226
P 1.879251544558096 3.289295286051189 6.216034802742377 -0.11581919855486504 -0.48469948286961034 -0.6528822826278562
P 7.203500353681708 3.875070296149096 5.9575460430051 -1.1788788244740405 0.17673248910046982 0.7919144289640748
P 2.5665531252651 8.570760627259048 10.51272698521768 -0.1871356867116648 -0.042800382994977904 -0.8847127411437343
