# total energy = -381162.90688376006 ev
CRYSTAL
PRIMVEC
9.36956101341808 0.00000000000000 0.00000000000000

0.00000000000000 9.36956101341808 0.00000000000000

0.00000000000000 0.00000000000000 13.71329963288704

PRIMCOORD
 96 1
Ni 7.237489169973951 1.2220718216779953 12.52247804134248 -1.514015693789754 1.1399860040635852 -1.3557213567898136
Ni 0.8696920076667424 0.584856420867745 12.868011517240566 -0.5810045226509477 -1.6147939388510966 -4.267594417307482
Ni 2.8903689788418037 8.771501781034186 13.078099558445757 0.49966818836430077 0.04748570428578919 -0.29378890249654566
Ni 3.6700569849825255 6.317613794394097 12.116687045705257 -0.6104361976485035 0.7098301607678098 0.3015320367770743
Ni 3.1621611999813823 2.7613407563751338 2.609051662142017 -0.18835516094106272 -1.9993127010340472 -0.274708745936643
Ni 0.8279787227621159 5.897520164119201 2.4423250115949875 4.472407466694253 -1.279902609887286 -0.3414085612570378
Ni 7.327258932478719 1.2434063117336636 3.5493170760438506 -0.9308601862340743 1.0330669362118272 -1.3275076133597588
Ni 8.02655610652562 5.82709854476988 2.4440255868892797 -3.265898796318085 -1.068745106339727 2.308825956244385
Ni 2.769023796272213 0.7404782678952412 3.8815354690178676 1.9630434342893677 -1.6771740437502145 -1.7436602003979067
Ni 0.551600101586415 5.568929665106341 9.629150155184217 -0.8930513429164169 -0.8615327034828453 0.27384639793634774
Ni 8.399061737242878 6.477561567666082 7.444374695280577 -0.15896693758693267 0.4074105791794596 0.31817375909881335
Ni 8.052781507345037 9.019457839371121 7.823245068683306 1.0736430578619767 0.3170429879284798 -0.6764891234135189
Ni 4.21814818603058 1.9083734148258127 5.1968334841982315 1.0349127311713144 0.853272520356582 0.744017605282796
Ni 1.3784685313877945 3.902375246260651 0.6346359607082189 1.587746447815001 -1.7949223410069925 0.33766863459863133
Ni 4.577414627266653 7.761135186764106 10.338607681016962 -0.27681190832257485 3.859693014534533 0.6917442498003763
Ni 6.385842936504495 7.990726905834854 3.4481539275453668 0.37403251793964615 -0.3633845513074968 1.1129166586506187
Ni 6.997188042851545 6.452563579318026 0.4048577873765546 -0.66812969570523 -0.6857193837625352 -0.7325738822222287
Ni 2.1808402443465984 3.8278310201372885 8.706285889693179 -0.6936795191498764 -0.39935634141641546 -2.844154059904141
Ni 6.574452196416923 9.133307373260637 10.687253725029448 0.577158152321664 -0.6061298569636657 -0.6907541179729652
Ni 0.44076662933454674 7.827527894947885 9.14784049909522 -1.3656998081587641 0.09360126769692913 -0.5639871621573448
Ni 2.566903629613946 8.364684818483877 8.650774052524618 2.0322888988497514 -0.05237465694697431 -1.7642153988414389
Ni 5.349222832732444 5.909072832647369 2.470369044175409 0.25196605292348867 0.5758088373826212 -0.5356929431983419
Ni 2.7650511024717717 4.8393219617093814 10.602313971142905 -1.4232948329644133 -0.7826903392626455 1.4446789550671442
Ni 0.769505167408838 1.6583747922235563 3.287392876391593 -0.3323580210189953 -0.6523305238894443 -1.3160073260296432
P 1.1997628972939172 2.9496408207795093 10.278721195887487 -1.601286648393281 -0.027652728720262053 1.0829465946510897
Ni 8.486517218217672 2.749956739942268 0.29781055466421 0.36799993859232105 -0.7924852138658803 0.12598662600617014
P 2.9498750598007617 3.9664443033536063 12.813912609848199 0.5500127022551238 0.4248120624853587 0.17618381568585142
Ni 5.838922930562701 0.8296427567690929 7.290881612478223 0.6657892204975114 -1.089343499316369 -0.5959038083602834
P 5.3324325796890735 9.07298614050772 13.044213604675301 -0.31350180754444074 0.27253256422093064 -0.007103700924316799
P 7.255919096166091 4.399036927802529 1.0604028600778475 -0.2457714940770025 -0.12043921382537967 1.2271047493599643
P 3.5703835966592066 5.971633390443459 4.938693650173327 1.013833541903512 1.1592042288632487 -0.39626381853402076
Ni 1.3675342538757327 1.3955679799392193 0.9125118377077652 1.333080479461846 1.7012963907197154 3.3329529096541055
Ni 8.30619065009673 1.2871527913427607 9.456924509374264 -0.46724220662511146 -1.9671422869490893 1.6561712162463025
Ni 3.9717943225990107 7.683667657655514 3.41378918921547 -0.657086807627507 -0.28700607524675736 0.659038274926923
Ni 1.0037985321141636 0.9682129400054997 8.113336042163121 0.09264661709314367 0.1093644440684568 -0.3484204737984967
Ni 7.665200253219975 5.395770811035721 11.598365750346211 2.8167216747248007 -0.5119418635253312 1.8255097268755467
Ni 6.851294610854703 4.035666618914114 3.8332372567477937 0.022610024090032026 -1.5307345492063316 -0.6266657721334885
Ni 1.5304709170588986 6.107351479357096 5.225795733741962 -1.0145722198417495 0.3674795473124768 0.5337479036568291
Ni 9.127610680263777 7.455012894669776 1.5435274001035073 -2.324485517158513 3.299458634551401 -4.2079358251045855
Ni 3.4710568820873404 0.5664480446655619 7.148523315790122 -0.5021302767515481 0.5469741725391161 0.04827426162535557
Ni 4.602674963318512 4.244354847728298 4.518080009271251 -0.8596650541464872 -2.6725275245716684 -1.4051644419122895
Ni 2.3818079550203035 5.981911798696014 8.164651253026927 -2.068063228235883 1.5291126973321925 -1.4491123082481494
Ni 8.781714602360791 7.251356120032094 4.366849675414195 0.05300997653812806 -0.3739695259121947 0.5798920063130594
Ni 1.342620591575328 8.245897526026363 2.9042303071634348 1.2149444598483463 1.1656983212280247 0.8533100584627368
Ni 1.3774097710117337 1.0765250634326071 5.447101013196885 -0.2791940354015063 0.0015354628079199363 2.7811072679553006
Ni 8.609726943396433 0.36466705611006867 5.08853916293674 0.5219352272926172 -1.6232618671127914 1.1255469458201195
Ni 5.362358957044279 3.6521892324413927 2.022629587656221 -0.18617409412934388 -0.4863113074414206 -1.1261321288996282
Ni 4.9717700738863355 8.959361476078607 5.3573743506720275 -1.9607093868395524 0.3779382807519555 -0.8334966232812355
Ni 5.589252242590199 2.603988351458625 8.772864115181791 -0.37611434016933937 0.6765526296616027 0.6465267727234737
Ni 1.0262479999109932 6.443025366372629 12.000055689199346 -0.04319453310960303 -0.056559641562599364 0.5464805207321491
Ni 8.330261051920624 7.689607959234475 12.645224910215244 0.22635632277518436 0.0421825469053209 -0.5726767195115428
Ni 7.955759704742295 5.0257855921871375 5.472771736013978 0.8909759484446269 0.5524858463859647 0.49313912899653134
Ni 3.1275313030794285 4.828359575514769 2.0008387999871533 0.4268329495701294 2.002651021378661 -0.32351316903385574
Ni 6.188220159054274 1.4911000223667963 1.0766871568353138 0.4274536138732638 -0.2426794854152401 0.33080661737147543
Ni 8.871072104188155 3.274005647848976 8.821422801243497 2.113102270753393 2.588265017777162 1.631950396025725
Ni 7.772903355191826 6.992315871209495 9.953455954020328 -0.35590829753510966 0.41519305133835593 -0.47002542579720347
P 2.275922547853371 7.2587393339819695 10.483118165832328 0.787901708260256 -1.1442715188128165 -0.027014838025947025
Ni 6.218577536208583 8.403840213276428 1.291174206859622 -0.09572757001131256 0.4771278411699395 -1.4366560847626677
P 8.339077808680566 8.796115617387388 2.873677106187358 0.018573392126813172 1.6359266070646536 0.816204154749375
Ni 8.745997836400226 3.43578985504758 2.502540368310298 0.4858996738252987 0.020017066551875205 0.24837807846191418
P 6.078774318764304 5.141612103416023 10.409724521781357 -2.0883574597085457 -0.4158749078967289 -1.815881202646847
P 5.196648903849485 1.8393572296040068 3.168827642526226 -0.48533968755677065 -0.7316845376387399 -0.10491772115101285
P 0.4718070474748291 4.693250508056388 3.964473884706831 -1.548717101826681 -1.8859697319338167 2.601118476701062
Ni 2.3987012732330264 1.8980950065732578 11.717589664339341 0.40193284389434003 0.9352891685397053 1.3649292485413267
Ni 4.262756665237886 2.204357842080339 13.581062269659324 -0.7333195021390015 0.2574224480523696 -0.1134560976393272
Ni 8.918022973607984 2.689644876750201 4.936116083983466 -0.4936461505399369 1.776695533586321 0.3768936415375251
Ni 3.2362556871839403 1.9928400058894262 9.525627751263677 -0.14155311298585943 -0.6266025229957208 -0.1792845660983622
Ni 6.927534727491932 4.629321994376184 8.331624323024315 0.12965044801100253 0.20376121108348777 0.025744198843639533
Ni 5.934370646942628 5.927549606643757 4.792345794475255 0.6076851172659277 3.12850547113687 0.36127830359777136
Ni 5.284713406279535 5.885873799982532 7.142571770738141 1.133388039131093 -1.138150750627059 -0.2897471283270042
Ni 6.294649000750512 7.708150320156814 8.130930203527432 -1.287378606549357 -0.07808645989078165 0.5002014351599515
Ni 4.674717516694898 1.0185836991356148 11.32390788914478 -0.2985688403836922 0.17731150153239142 1.662602316583627
Ni 1.663499942008559 -0.06448038081427429 10.436369678926859 -1.0317636440193714 1.8531143759666924 2.2083426167156417
Ni 7.077335266363264 3.166321284998825 10.55656615333623 0.1985966361634128 -0.11158150632443364 0.49520552460725675
Ni -0.15446002148208432 3.7946252964845493 12.156483318459951 1.4059900231373788 -0.5440960796603725 -1.7415449538271168
Ni 6.898001871692431 8.127541233367953 5.728922412270407 1.7575418434760053 -0.9174829935962199 1.69798275296545
Ni 6.044388030444453 6.9058441941239606 11.903322469070789 -0.8159213334016335 1.1949045104783356 1.0698054292834416
Ni 3.6971256462784523 7.318236045380077 6.618518178051008 -0.9196224085367259 1.2737453320366385 -0.22151313575027012
Ni 4.195764305159701 6.048641811070396 9.30256755306153 2.313649088664641 -2.4335278020008606 -0.8795980456249883
Ni 9.302774620356319 5.431356403144385 0.19465075274857024 -1.4119269574471038 1.1787847220983378 -0.619748733298681
Ni 6.4709372881450635 3.6920473442977 13.023781403329496 0.4007262251807486 -1.42148066257381 -1.2484145665813338
Ni 0.6784480272432669 8.09015668557607 6.729993465221108 0.6825193887679988 0.2712261867046813 -0.6073830126444765
Ni 8.09501948765727 2.0922885247523433 7.206722343010492 -1.1442877167627326 -0.7789714956501617 -2.1467742090845414
Ni 3.7557041407132514 7.144777365362254 0.9564372759290993 0.07478156388726476 -0.27238961088516317 0.21924053766600948
Ni 4.855437606371545 5.11598635449101 -0.007250166185804132 -0.9481518834349864 -0.02170499577725939 0.7889160084573833
Ni 0.32382514036450105 4.446559340434216 6.8418941304538015 1.137952261463008 -0.5094178115518969 0.49678366772765403
Ni 8.455747580385959 0.36557402960035795 0.3723444742706371 -0.5487150664896226 -1.3297275038292131 3.2435235139466783
Ni 4.0759932088129265 0.11003143784310006 1.8089080307533656 -0.19960579415421753 1.1301420213899698 -0.045429335977392724
P 2.118832490640665 2.5551635698687756 6.9069226305778075 0.3581767818543122 -0.31954287153219807 -0.42978046223422756
Ni 3.4575928231457533 4.4359436279910565 6.618696199707159 -0.4329339202615447 -0.36658968850835577 0.3795197663064625
P 6.058254980502594 2.965447269933621 6.62264640656156 0.18780957285023786 0.40014849830040766 0.14422577472201611
Ni 4.67585123355776 3.548852345825686 11.398439934839036 0.13870278802125788 0.16729525494696995 -0.31132948248347025
P 4.795575482100284 0.583578412767792 9.290910882407927 0.6849727354044978 -1.741689706935097 -1.6850652735728335
P 8.702701095711932 0.04245066934352905 11.330448779574231 0.4206962405447722 0.04900625469537367 -0.6216768035593294
P 1.588421650916741 7.1587942283939965 0.5175895326566523 1.3007629982760631 0.04758083510275676 -0.7891116694079571
Ni 2.1261313785428895 3.4215668616771344 4.6840514732137635 -0.448882216060685 -0.0386724768695334 0.5140295992922953
