# total energy = -381175.4909751709 ev
CRYSTAL
PRIMVEC
9.16538601909958 0.00000000000000 0.00000000000000

0.00000000000000 9.16538601909958 0.00000000000000

0.00000000000000 0.00000000000000 13.41446889036529

PRIMCOORD
 96 1
Ni 5.559072260785943 2.8930356849755925 4.731739467676973 -1.204916386188383 0.6535975635273259 0.7199855040342568
Ni 4.487977784491771 5.2476232872104545 11.963130764196872 0.510725731730043 -0.45288413813122647 0.25942636585627576
Ni 5.783853346596803 0.012837955836708334 5.541100772383988 0.8053003633526776 0.03973922757115092 1.6048532826986166
Ni 3.73750683292076 0.9579202929060981 7.065360333442888 1.5756882310988862 1.6562797167997088 0.1403837752681066
Ni 6.185599700698635 6.602029002791049 6.965154254369342 -0.42268138929560106 0.4456140868323745 -0.9119628351089392
Ni 8.172481191551402 7.6241528229593305 5.434241539785871 -0.5020816829017998 0.9898855157283469 1.2881514801596394
Ni 7.525734910647934 6.724001956510556 11.730952295537575 -0.9079120620783332 -0.11331597251703711 -0.4566760010734909
Ni 3.833670060334727 2.7856356946175227 3.0954688106831862 -1.8680843670129634 -0.09457263047126294 -0.05296343957090879
Ni 4.403573747010336 5.479938320117605 5.790543161664421 -0.36248620786294344 0.5515949591405791 -0.6561223868317088
Ni 2.072834478527965 4.592747309136173 3.8515352302618435 2.5526297850720554 0.46358249838533705 -1.2456632290884417
Ni 4.322460083017425 8.510931391581478 0.3634029627668788 -0.3895339560093549 -0.783919069463424 0.32133570176656273
Ni 6.242846700167529 1.4825103123748198 10.180347749644637 -0.3719180426998046 -2.047088168646113 0.6800778692060416
Ni 7.554202598824428 1.0743573536254118 1.3788864609506573 -0.27200857339666057 0.12165997360635823 2.395387286375397
Ni 8.25641779435898 0.970146917512487 8.574782968030405 1.463881239027208 0.11736417444448176 0.8817081499894557
Ni 2.675586907774261 1.120440913236299 12.871638629383357 0.7913115052727534 0.4787656338836787 0.7100152801954224
Ni 0.019729409391089 8.009099024959582 7.639955781090018 0.30962689797006676 0.5182837465829591 0.5684858213586468
Ni 5.895240279761303 3.9544423485194247 0.21756426106193175 0.3682534493640239 0.6159427292890295 -1.7847772821531909
Ni 5.449820862503968 0.9235134347558853 3.4273300148890256 0.23740563861081046 0.9692243878345695 -1.7946791146479348
Ni 4.432169750587496 2.479575967870039 11.725265173672307 1.1048639635494715 1.0520218800477752 0.14409619112268732
Ni 0.5220301272254199 0.23081007656504512 2.020943730498331 1.2632439182846824 3.2751596527947204 -1.1623268336526305
Ni 1.2111415707361675 4.918943388402575 8.54053558759245 0.35667937137317923 0.7307483989777157 -0.7468471043117912
Ni 3.9161951937349717 5.057349878793188 8.061277566102138 -0.2282334851932392 1.8299466796009776 0.1818512983842739
Ni 3.0500845700059327 4.095167681507801 10.00789093460995 -0.6512457754656977 -0.09910831355808737 1.7844371252049527
Ni 6.031199612153487 6.929636551464785 4.556774086559249 -1.4238437634893477 0.5306309552944023 0.26740835562048787
P 2.6064890645152166 5.351522100207474 1.713537608582422 -0.41413452816685453 -1.2641417475086036 0.05540084536780781
Ni 7.719298692553727 0.34931668138939825 4.179196854711575 0.7920812935592423 1.0023916186151574 -1.0285520790606093
P 1.784573930930111 5.448281077695966 11.371270479390033 0.3909022971117913 -1.050517784698423 -0.8534612393286205
Ni 6.292165640952371 8.484049315141794 8.14737170071807 0.7856936448653437 0.7917282810951978 -0.5141506982511919
P 7.029117648524564 5.885983240141774 8.769829709352475 1.162301893951966 0.7615270749214691 1.3171936330282605
P 1.7436046565743701 1.59682100359737 3.6528269173278907 0.42038025196625023 -0.059145657122220724 -0.41090445126533104
P 2.3058094192099734 7.827175282971416 8.204383149772884 0.11111202288718283 0.28085651070559375 0.7106559991032149
Ni 4.762178630330854 5.044518338726514 3.5758010153847932 -1.7516375621764284 -0.19761910274149191 0.9665900355355159
Ni 8.614032816017213 9.039031753797012 12.330995436752648 0.4745649655387698 0.43189416614312065 0.06833066605559845
Ni 2.651967708665817 3.099980930093775 7.907386156466777 0.3528196313074569 -0.32785936181769343 -1.2296755954109337
Ni 1.2404066474739484 4.606229591591943 0.04547039530341524 -0.6653552182838864 -0.007714080814806071 -0.7052384276320692
Ni 3.0242106860000586 6.406494662946446 13.120410112426018 -1.3231925309241728 0.7678918407972323 -0.05408444054922944
Ni 1.9699071964217076 8.635580637943464 6.082885055542055 -1.5571572621742344 0.06647047291840812 -0.08559125290825904
Ni 0.32389006820870553 5.829753598492452 4.751726424407971 0.5264673108350159 0.5633261315345782 -0.8353097652305743
Ni 3.0136704923738615 1.6051890007979945 10.210140752602305 0.44352172307972004 -0.8984869121096912 -0.6993732271005438
Ni 2.1175065687315175 6.30391566549914 6.5708896046649565 -0.35540076177107177 -0.8305586236988342 0.29951577767799387
Ni 8.509217464444001 5.876634546664625 6.8238056751491545 0.7429521401327592 -1.618598657309167 1.8281746753022192
Ni 3.1580619796670026 0.6797114238733317 2.0608113254854903 -0.35136310136658844 0.3596004016747162 0.648147081935716
Ni 1.4680564990282867 2.9989967097690426 1.7676784588166048 1.5570423338629247 -0.4104583648668479 1.5988219889028723
Ni 0.20061562971100644 2.002215181232443 13.572893292490061 0.2979162944013579 -0.6928945613547357 -0.5249683576919861
Ni 6.706816858206974 8.489090277310845 0.1092303178947233 -0.8366881336353397 -0.9700036892027553 -0.16753488176160178
Ni 0.9709168099164875 0.23145990241556458 10.457610750866776 0.04787394086314336 2.4851799789595135 -0.16602101622023666
Ni 6.735431192555659 4.362320345695975 7.259158749224184 -0.1719738913695619 -1.8321336599499674 -0.4047777695423029
Ni 4.632020987125959 5.9982958772682275 1.4901459952530676 0.24871952096173297 0.6050795613222805 -0.14961249295522622
Ni 0.8527209116694632 8.331335657576838 3.8375845965936395 -0.9833130047171517 -0.08592292521606493 1.6224787090898638
Ni 5.827975513654641 3.4987851953660334 2.3219643281539173 0.964434936865726 -1.3749645212901416 0.8011716858962846
Ni 6.718502725053409 5.63465919716442 2.6111130016321 0.6968376051628837 0.29958571168398085 -2.9589815839696976
Ni 1.532379176305376 2.8166513600358285 11.716599301434421 -0.14707532835566928 1.1244254306211667 -0.05266313472167059
Ni 7.318230576998275 3.121455428933931 9.287761992603745 1.3996712800082023 2.179682786887104 -0.08049532644259041
Ni 8.681480889839113 7.617792045240565 1.2792376373314354 -0.7093102837085977 0.6626295918226072 -0.2674474363885394
Ni 5.331385747688556 9.468118453626623 11.916837317252037 -1.3453238156055733 -1.2555578624943342 -0.5769856312995417
Ni 8.4409994982181 3.7535737541613896 1.5870525354523257 -1.5748850184713006 -1.9009201825960615 0.5680780443972668
P 8.459632727472064 1.8012549330167886 10.821706616797256 0.5038945677408225 -0.46343543128451153 0.6610182814714293
Ni 0.26900315557350324 3.299621362759714 4.069252553265999 -1.6843237674211184 -0.027564282771513817 -0.6837779437654482
P 1.214871882741265 4.270693984234154 5.976199048734838 -0.2780162130433212 -0.5666464541570627 1.3972361882041484
Ni 7.595740127097407 2.692304571403986 5.648081904612738 0.8402362559979142 -0.8846806023542183 -0.06480156985641744
P 5.980542525047407 6.336214484924114 13.282054521877381 0.3907932823377528 0.5125658702625754 -0.3422148592084171
P 8.114070188090745 6.985151293024678 3.410239320058791 0.9010582723812934 0.801124377598117 -0.533611892299597
P 1.365963267026363 8.75058789848392 0.06724093610368176 -0.21461949395423038 -0.8210815374463344 -0.11766885016909412
Ni 1.7256221697095013 0.9694320174230581 7.9451484623444255 -1.5856769668804822 -1.3742075885194593 0.7758974847105282
Ni 9.175742647821673 2.8493901179773737 7.463984957154213 0.01165146819599929 1.7286657838716035 -1.1981551562051493
Ni 4.111665375879241 7.952603587123163 6.635064719231279 0.5414205897107386 -1.9990242232593507 0.6907775150117329
Ni 2.431210227204436 7.62390535754376 1.7803276077066177 -0.46019378441876224 -0.6374793178092247 0.3997584619508406
Ni 5.566716192511376 7.422596824669153 10.144248961282777 1.1616403491085672 -1.2559198738194435 1.0904143637830446
Ni 2.986724258233844 8.37375306288296 11.490686290481966 0.10579086778458556 0.42784082200935347 0.37528978738551494
Ni 6.957691797281994 1.7109392217189205 12.765677604589907 0.056874344589540764 1.0724724345926433 -1.5500527899189693
Ni 3.368664213704187 3.5003524763313205 0.16996108049171987 -0.11190443688149115 0.3820456180521098 0.8801387486198068
Ni 0.8511233849311621 7.284786084353064 10.019199187562995 -0.12081305222503064 -2.0870559672883027 -0.8671508210005712
Ni 6.280369789476793 1.6742776786712776 7.590389374889604 -0.32924235820814907 0.09165108594909376 -1.7081530086302321
Ni 7.807588853598212 8.45433513450168 10.085359524685348 -0.12036310917180561 -0.5022048387432254 0.2699344644764512
Ni 3.2173895217038506 6.5714899374323625 10.043909067577108 0.24891183947819712 -0.26281199449905707 -0.7836043664364827
Ni 1.024974255140237 2.6227667896283697 9.426132737989887 -1.541992638618654 0.032335221797595924 2.1550842716121332
Ni 6.336086169523447 8.11112809926117 2.546226653130653 0.9476649164962387 -0.04090573707542633 -1.6540397717255966
Ni 0.4441188490177217 5.6701384054487765 2.090309203021624 1.2221137239032758 0.09983465020115065 2.089556365112653
Ni 3.6092464245685814 0.3846813223517307 4.777402336081388 -1.1961101007506625 0.5656524656749097 -1.2091211682983498
Ni 8.075658056362577 5.654786384297576 0.41023900054881873 -1.504410823710138 -0.5813881312426116 -1.3578466306629324
Ni 7.200437039186199 4.922215431119577 4.611223810293608 0.27723151235849675 -1.2058337557963297 1.8423810487095882
Ni 0.6195544144250308 1.5490418476205294 5.6121572585803525 0.41355500151430064 -1.5717672987779252 -0.04371749549260858
Ni 5.367882313792485 5.0199184433415445 9.92818232425434 0.8317603573164191 -0.11481672543227968 -1.5875183909645951
Ni 4.968225667644369 1.689721353680097 0.8483581880467936 0.16912999416286356 -0.0997559744444153 -0.2730565550452007
Ni 4.3286008914779055 8.914025057390312 9.173524624467289 -2.392852949989318 1.1056383798216505 -0.02370505692642369
Ni 2.5614045319523777 7.040143607596143 4.25419720640129 2.2540853701683954 -0.7291887678000796 0.10598087230820458
Ni 8.818842526252869 4.771472331493431 10.286321605978156 0.1171677421629595 1.325386196141382 -0.30307804110795544
Ni 2.925966916018138 2.8749890404103904 5.502923274531326 0.21514451321976497 -0.15075431986915327 -0.3943313773979983
P 7.775464176502715 0.45423376874456634 6.566905411474254 0.6380007375303335 -0.3769856870306991 -1.4529679345488138
Ni 0.5584066267758674 6.790560987913552 12.414191476390666 0.49369988659600783 1.2294058866893152 0.782337069688285
P 4.774588562652481 3.640078782271649 6.775647988740347 -0.47491232157585955 -2.261779910599176 -0.6997776616278143
Ni 8.276627469963993 3.766066174954874 12.27635782261017 -0.311148991041548 -0.4138810173951517 0.3107772095244261
P 4.366802219333549 8.072468502117431 3.290877584742851 -1.2720836280634997 -0.15180153018674503 -0.0993836787066611
P 6.244762265791769 3.8211226472266713 11.422205277684698 0.33946377882584117 -0.9423532744753382 0.16297477319474513
P 7.39351505564661 2.3699212926145385 3.276389859468999 0.6641771388153851 0.22112901293797402 0.29361355326094596
Ni 4.876681794654404 2.7989071732007695 8.839343661125111 -1.7099489241883905 0.8736510840129341 0.8102487084968883
