# total energy = -340869.5136087119 ev
CRYSTAL
PRIMVEC
9.22284303463139 0.00000000000000 0.00000000000000

0.00000000000000 9.22284303463139 0.00000000000000

0.00000000000000 0.00000000000000 13.49856304044659

PRIMCOORD
 96 1
Ni 8.394345576431043 0.18864863733340595 4.5774167611457 0.038514354025114314 1.2955187191579882 2.0585306061551
Ni 5.642313855302342 7.65574343645165 10.2428716512293 -0.24911701351046775 0.7891849458480538 -2.2000366679531074
Ni 3.9385135514542204 8.359040534327237 1.1015634278525381 0.3160232884147138 2.594853469627957 -0.9175395578657682
Ni 0.1194385806574987 1.3742773547031781 11.936212329097819 1.5975323235571712 -0.8688595761615616 1.802184936106677
Ni 3.039055810813265 8.533970193047946 6.041996813927972 0.7629887470686602 1.7777969941806158 -0.5892755044104884
Ni 1.449240620695792 8.433764006407966 11.521482302501353 -0.4778073837354675 -0.6889234925221297 1.0277804910019073
Ni 6.915785538585827 2.1640109349708396 7.99425404587093 -1.3845660489356477 -2.2797928022368286 0.9427654223120925
Ni 6.73824581536267 4.469500277954315 7.78503939145621 0.8703844974465204 0.14038968880537755 2.3824412677376907
Ni 6.547572764042381 4.19598765292024 3.7803943682409855 0.24295073679875573 1.100090710530544 -0.3712693533722122
Ni 3.6598084659435406 0.44984600042359096 8.093913317934955 -0.24760674751352837 0.45111573337689403 0.5962750756567731
Ni 0.1519841482060637 8.237160667189887 8.008993993177697 0.04475647828008421 0.03328421597442655 -0.5197636735625951
Ni 8.587702474995899 5.747730948104456 0.6090304219761647 1.397257014139755 -0.11698622227977272 -0.6304627772820756
Ni 1.1280920127813219 0.6736401246809702 9.478150420539883 -0.43608429296506834 0.3372104640152902 -0.47550804617832954
Ni 4.1983579235108035 1.683602278193124 5.229828668634839 -1.885662485106043 0.39951215026798936 0.7029010377481443
Ni 1.3816464060722846 5.756483425888288 4.58691997833059 -0.35421008389708025 -1.1086296012394905 -1.165367163140851
Ni 5.080070914672207 2.5604087170036336 3.172553692981485 1.4428686413312828 -0.11702453171687588 -0.9660238786194008
Ni 0.9674577603461155 6.633169967742855 9.766574537756151 -0.7012521892908116 -0.4650449418634765 -0.7003037093346134
Ni 2.5449881239008225 3.0337065620096584 12.546090330324072 -0.3398476445278212 -0.2768543315247361 -1.853631681922743
Ni 4.237425885462662 3.766728882116323 9.934388773283784 -0.5157010734574473 -1.2192631418283582 -0.30174569544977714
Ni 0.9232987891880649 2.708831925618193 4.554577313322851 -1.1933366517705837 0.0310409284662046 1.307259147523368
Ni 2.692996304590964 2.491126722154161 3.1871054942958486 0.2786163085211653 -0.9429950218243953 1.5954787834622521
Ni 3.445866182327563 4.893852496407336 7.783284284478061 -0.4107820667548538 0.3382080520418691 1.4647721262725932
Ni 5.889845732267865 0.12068089757792255 5.320687504132653 0.36210259927127963 -0.22366026400025998 -0.24005413197725112
Ni 7.437457193893434 6.949476583205785 8.590700821178748 -0.9165129163734668 -1.0957763994259062 -0.5270887464690986
P 7.046510111934659 3.8831027121230655 12.402695415584903 -0.39732645547058026 0.7397058652813197 0.2671617868273205
P 8.405818792830503 2.0629931381675544 5.944469863111179 0.3644633861939723 -0.2437493214406512 -0.40870872916559287
P 4.53175446661698 7.7554423667395636 4.493293367719048 0.18705495407240044 -0.8223534621802224 0.3095991300559249
P 5.0054581167046575 0.18395605493465572 11.972091032021597 0.31218848804965593 -0.595692977901058 -0.09705297369095543
P 6.494938000383444 8.096945788636035 1.1618660629861637 -0.8594979324410036 -0.3609108929560236 -0.4795930148809805
P 9.156014046165298 6.822468815491182 12.102716920952846 2.113091729230432 -0.9780895515346832 1.9474766901993623
P 0.5305126723819816 6.907484980097472 2.8764220460666414 1.788842967582132 0.050167879103642635 -0.31237977812485557
P 2.4653119852553758 8.178789295331217 9.589513480072487 0.9280864801436791 -0.40588231546039133 -0.5354443175226455
Ni 8.418915229556575 8.11561282239207 0.15953857871474358 -0.2535925327833181 1.5424937466247886 -0.8768497934558899
Ni 1.4698721199607374 7.743212877233387 0.5220977506433423 0.7319089949447201 -1.389949167624432 0.07149595115745751
Ni 5.5270375435846155 1.0449480852562953 9.740482193290143 0.5252342097588631 0.4305139979661425 0.8853066659739913
Ni 6.2813185162642355 5.470160272253852 0.5183827895776649 0.01890763553778034 1.0733005869208934 -1.6176087825920722
Ni 3.896983090484149 4.400513414073316 4.108922172651604 0.0584108358387252 1.2019917563424203 -1.7230656640760067
Ni 3.23768817543961 6.239548261382278 5.718369105878313 4.671109003866646 -1.7390275867219016 -1.5068510577205145
Ni 8.381156911277323 7.842976367420653 10.525976955023085 -1.6621253769472084 3.435982926864102 -0.7228016333268132
Ni 9.073810848602285 2.7036025737705294 10.217426750325384 -0.9940190782807462 1.1307539439423557 -0.8906985264135241
Ni 3.3065459195219 0.6437267564574903 10.825213010812574 -0.4024131259648682 0.6187447175141989 -0.2511353294920772
Ni 0.016378846466078154 3.611084187616895 13.196707472611173 -2.2684979460492998 -1.4168477917874889 -0.694454706753004
Ni 7.245797298397307 3.4403878137252484 1.2891357594352872 0.7682839340293285 -0.6182664923261997 0.4377375122977752
Ni 1.191526725317887 4.546879928751316 6.873576276388262 -0.1698023376395398 0.5306075582556345 -0.28263777097573256
Ni 8.702287073506263 4.569466670682408 4.766315337518033 -0.8202287025277357 -0.5375698485060806 -0.2753306957913581
Ni 5.536122043707982 6.487642731756455 6.633314766374263 0.7205521751710042 1.1466670156281864 0.18253983981086624
Ni 3.0731434376721114 5.800540945775927 10.193885444168133 1.2457678729871062 0.7694069918901781 0.6652708861001962
Ni 2.6701789915907517 2.4025689859261736 7.311064589791246 -0.021356868409221283 1.1702507164853977 1.2106784854831407
Ni 4.857357707586868 4.199104973774755 6.194261336554087 -1.043723644594725 0.22072817795512956 0.5144674581606624
Ni 8.847574515580778 6.313773699953704 6.614565649317622 -1.4960804494675717 -0.2496258348260862 -0.3123412115774363
Ni 6.611238047648068 3.653204910523916 10.263078899727065 0.4637393356781756 -1.514326283051637 -0.5481537946695141
Ni 2.911227210092592 6.876560788306965 2.8951582511434126 -0.5210741648439026 0.3492118593515405 0.6264896515669405
Ni 5.934309057237155 1.1867492927657002 1.022327218806974 -0.2846982530491871 -0.6845024806362985 0.09904609286158425
Ni 3.850020375125587 7.359680960857544 8.035721791510202 -0.5813955874417794 -0.9860499440323405 1.3496394122617916
Ni 1.1954648791784734 0.7678920440319691 6.679682608374493 -1.0204518185509779 0.41924690969275535 -0.5869687106541827
Ni 6.2447776132299415 7.574895996775069 12.401885649990149 0.980510245161034 -0.08690097285861807 1.8293167593264625
P 7.453569500203607 8.179407225796462 6.406552731315158 0.8211303884063987 -0.44999576083983794 0.8817783411057588
P 8.013820306796537 1.482018603882031 0.2574307541050247 1.0857210720724335 0.3533783320244043 -0.5053539258951685
P 7.911861780031239 0.7910100217063155 9.845878995838175 0.16731968042700215 0.43760175805085927 -0.9095156591200272
P 6.959003779781864 1.1530305796174474 3.3570926315788783 -1.6312723961220938 0.6208936455364017 -0.592631822477231
P 2.131214506099071 2.4501035175361556 10.253103472992613 0.6615602700178284 -0.6380187352524626 1.627439395529249
P 1.7595154969905167 0.7099845811643725 4.402070229932022 0.689915938342386 -0.5283992377504062 0.484204802621379
P 5.223117205954866 4.826608749808893 2.1872940015306765 -0.5681320375636537 -0.808996324147026 1.5901679127722999
P 5.335414539459549 5.703461302833228 8.91401864171151 -0.9182023882607476 0.6993228334785827 0.7722300631612701
Ni 3.9142759206682225 7.320465433421447 12.026085242704072 -0.9536648428334157 1.0398939864359897 -0.09630658244323413
Ni 0.9604668455303672 4.836071386485618 11.361227108903782 0.7115875097785487 0.10231216520736572 1.4543977250168048
Ni 7.7621381505868365 6.142708412351465 2.7951337545059007 0.04188892692430206 -2.3858940021729813 -1.2789052789710231
Ni 5.347376566525546 6.932727900744837 2.5727046109777176 0.1661608842322106 0.35057043026196394 0.36243298602750484
Ni 9.018381563585601 1.2071133295904652 2.175496141065894 -1.178219850733803 2.5116286600693454 0.19830661572681976
Ni 4.600031171605086 0.28467687620091303 3.123270510383289 0.23811860551743508 -1.1351613289814322 0.26326245177291435
Ni 5.15223043646431 2.374817452046772 12.342289484612312 0.3516011855193235 0.028881201810724455 -0.6953661628236798
Ni 4.220880105542541 3.8398199110276745 0.5840272952406854 0.2086679043564858 -1.3175389321828213 0.6701698660637103
Ni 8.226923311720915 8.383149045314527 2.5474487783504816 -0.7718490256727675 -0.2491283263643774 -0.013826364360131026
Ni 2.457389563320379 0.7191631542839406 13.258288393752006 0.27044174313017294 -0.10015680942725977 0.7630859347681567
Ni 7.140278754324781 0.6546392240168482 11.86066064573681 -0.9895723553633021 -0.02546626259190453 0.4699243814429649
Ni 1.5357139944589255 4.14718036900871 9.291749389988269 2.410759140845777 0.10479816485401305 -1.817207377657438
Ni 5.928360323653834 8.906969622986342 7.846255088023554 0.3888891233365045 -0.35022384555582264 -0.2085213514762925
Ni 6.822791614987952 7.117304652997565 4.532763445615453 -0.37304161478128656 0.4857850026243053 1.9231453125428493
Ni 8.043148946788726 5.5558589272247385 10.795624286654416 -1.2192024637937517 -1.1436205154923789 -0.3741371618383105
Ni 2.1163749520904447 4.601986414271232 2.326261029458446 -0.10779761380196919 1.130132765418589 0.729119605125041
Ni 8.905226505703787 2.9251444798247346 7.788198215103168 2.570137969159148 0.26245641093185124 0.2863774405238229
Ni 3.9171995618246767 6.253059726032767 0.726975824390036 -0.7038091513847105 -1.5404026684237149 0.5538906971532913
Ni 1.7483558572450608 0.07664735708147369 2.2516814337248494 1.3218103058646657 -0.24243420217365344 0.5096211858119546
Ni 0.8820247232468559 7.976117325573874 5.050338314166919 -0.6082101365314623 0.7664895611330671 -2.0019845914392556
Ni 1.4767708063488376 2.5967006032832765 1.223725513978494 0.2826588540216552 -0.5779312830422627 -1.0199640802812822
Ni 1.7056172038727955 5.008234192376874 0.11512505709638335 0.5725530494494849 1.4000705723291502 0.51029558617116
Ni 6.345223593781807 2.7365926823403597 5.5762423320193095 1.9083180177220296 -2.292952222436922 -0.3658592381002344
Ni 5.57530067977302 5.506240033149903 11.171599005668748 -1.0478394665353117 -0.3438896758076787 1.0197457936228889
P 4.88392871759237 2.311576419208269 7.396699607147055 -0.4042913168241876 -1.3923477497635957 0.4441020210632223
P 0.12863559946259648 3.7179215982047933 2.6399677255459673 -0.6647733776384874 0.09849819077791423 0.012758585217248994
P 3.7346795035085063 1.6538124960626932 1.6233642029588524 -0.4260058256831437 -0.8701512983897917 -2.6938494259778962
P 8.953803218546197 4.888881384157088 8.767019440019842 -2.443610125937527 1.4078841548362977 -0.35890697515211734
P 1.684072643174131 6.923256041225346 6.6097328797088455 -2.302360146014383 0.776668815658914 3.737431917009067
P 3.5487285476838157 5.12497693609421 12.480001283639787 0.02744704046735918 0.07279178715074561 -2.394406924739999
P 2.7348864564288644 3.7438654549022865 5.724578845911879 -0.340965045961716 0.1905107738314848 -1.5956484762708971
P 6.83119362474672 4.937227525930376 5.833647262164593 1.4327552070463647 1.4677152680613175 -3.037965615974084
