# total energy = -381165.06160018436 ev
CRYSTAL
PRIMVEC
9.31356397934456 0.00000000000000 0.00000000000000
0.00000000000000 9.31356397934456 0.00000000000000
0.00000000000000 0.00000000000000 13.63134231324556
PRIMCOORD
 96 1
Ni 0.10421505402334272 0.7966701438466528 11.10320518862697 -0.6418193399454754 0.008068635940747394 -0.8208159424897735
Ni 2.64125219852254 8.343286079059565 1.8885402133213591 -0.8778414679451979 1.6295916659855612 0.8988874899822196
Ni 8.174375285128832 7.95669867089476 11.563917388737956 -1.411753150873401 2.7286001991955198 2.1932936928023192
Ni 4.856362283221704 2.805878753083615 3.4022057563720063 1.1385513284995874 -1.5747160969936043 -2.2608656263150224
Ni 4.765527095021084 2.564806466465666 7.702621855077125 0.7415768570517873 -1.780587155331243 -0.7459839849805475
Ni 2.182484670542825 7.119837704978781 8.367258261045578 -0.857411225115304 -0.6441898970601809 -0.32304779936166306
Ni 7.269581184512214 4.679581527840183 13.38631919111201 0.022681757868231903 -0.43549859566492743 -0.0021041908271963758
Ni 7.240299339776978 1.5278808355504532 2.917120891029583 0.9958723294394011 1.1951287106739998 1.1567120585690143
Ni 5.430385163809095 5.159947210381287 4.459643580304039 -0.4965530397740868 0.3820949832328065 -1.842570796122891
Ni 1.989824288802024 3.0329061854201598 13.018872088009347 0.46682748768519605 -0.8071492436359584 0.43276397034258374
Ni 3.0876047458940903 4.08514331529998 3.832751323182284 -1.3472719404708797 0.9191824927858299 0.6244044869031375
Ni 3.784780881231488 0.8500834325096855 5.287448036735112 -0.3360691513219954 0.5064487016212439 0.37301976040441565
Ni 6.176783484078338 4.422415402894471 6.392799489878474 0.5831349387303892 -0.8862546317095575 1.5934818076368815
Ni 0.41204324087165856 7.947627259707698 4.302924241449139 0.6637436508223924 0.5225137255039066 0.3419988865428691
Ni 3.546735502863841 0.3021273544175151 9.310015379259298 1.4031947197804286 -1.543508303932232 -1.0820037711218464
Ni 9.135628209786477 2.6633812262232137 12.325541523184413 -1.0113354580720066 -1.4097253218100947 1.8691351768749809
Ni 4.255814372797814 6.061323233066025 6.4248875114008355 -0.17905316681384648 0.525509832017753 0.025749083939645975
Ni 0.09837265542206629 3.040813401126335 3.374738193874183 1.4939927137006077 -0.6359006604681952 -1.1274583039102195
Ni 7.897334014933439 6.841380773078632 0.457207506035328 1.0461811049962821 0.835277112220426 0.06200909471294482
Ni 9.170777599745376 1.2514635741328164 4.998545011624074 -0.2747408847261591 -0.860554398729976 0.15124925722770077
Ni 5.816143664791511 1.263245232399379 1.2359248242103398 -3.272032677129965 1.0023754206652415 -0.9509171048849494
Ni 7.773789590501856 4.313707485671294 4.0726501007555 -1.1110202129588544 1.5695458656465744 0.09047480625280548
Ni 8.927563193442598 3.4193632036911064 10.410542406329869 0.7520443322420145 0.8069862356955328 -1.7143437108219768
Ni 7.978185062689985 1.4526831210490887 0.632841761707273 1.195900812953334 -0.6036032338870702 -0.4800272742049217
P 9.225830075645495 3.180339901119516 0.7433686179497853 0.46864474339959294 0.2669224171230048 1.7453108486274522
Ni 7.695695357644048 7.027177058264131 9.705951742813808 0.09769189282653498 -0.4216645179953125 -2.932871260035891
P 0.8173173835392558 4.956678679418657 4.5473065686583425 -0.12716727657783258 -0.8166790375032645 0.6201318276697126
Ni 4.7980407464112576 8.304048034571796 0.7865109084022526 -0.15040182162574098 0.6650752251496224 -1.301091071039443
P 5.496427645048776 7.406425378117434 4.789712557619193 0.20949888489821336 -0.2615547250531883 0.35881055878356916
P 5.438394828717589 5.324238476643868 1.6450845857149408 1.124690511357095 0.4452240504828074 0.34955998671957866
P 6.078981750120098 3.4385305180884074 9.251742272980856 -0.5950203773140655 -1.29261902901269 -0.8239313481903034
Ni 6.476484655113687 2.45833380456579 12.544310618457747 0.6017553820450541 -0.4375058559029433 0.2785168068288235
Ni 1.003666894417272 7.097606228075788 11.470665330719015 0.8263831521649058 -0.11958509335520051 0.42452898402730116
Ni 1.9631595555078196 4.500900805433856 1.4665146947183945 -1.4818902740101187 -0.42933000496037027 0.29213671160510335
Ni 4.023915946569243 8.432398257948474 7.0918010837299 -0.7001720688527555 1.464043218526369 -1.4712731606159049
Ni 2.119711250213472 1.2645863855933595 3.5321122762675334 -0.014059563416859657 -0.005905823961473699 -0.036110372569312
Ni 5.682736176245864 7.631059224545278 10.665680037069686 -1.918754125453689 -1.0410072741048266 0.7921291160780423
Ni 6.0583056383795695 6.7703927894361495 12.579765493310829 -0.4956073880313659 -0.8860170617774548 1.5080373647191319
Ni 1.095042269321023 8.955019579663805 9.438450356066985 0.07554878107059247 -0.6989754774414929 -0.6199536502206355
Ni 6.702357205533193 3.5168855307339335 1.8809887757541426 0.25603379523495906 0.92261800082994 -0.6552816360979682
Ni 7.051094290223446 1.7083125079600316 10.04685798302143 0.5816105316660629 0.9275632606503573 0.026134749413838858
Ni 1.9434520544073874 6.252474817463598 3.1135486093465303 -0.6298883928358443 -0.08230975394350985 0.24714266339291632
Ni 6.127347087178011 5.483202384385915 9.076388355580708 -1.072620273024417 1.4177204242004295 -2.5944567484101704
Ni 5.93788125783676 0.2387485524381014 6.101375283034029 -0.7662738455778351 -1.6913937868940225 -0.8918845763018252
Ni 6.623732099536102 2.3408338830709647 5.08627598899446 1.1663886624268298 -0.2644585289635445 -0.23609463310887083
Ni 0.10082026000108024 5.853705267786805 7.030596067552396 -1.4917113738655987 -1.5363850626238895 -1.0974879828003743
Ni 1.882168804293568 1.8149621275730023 9.736295333827611 -0.14382391129790714 1.828725662709683 1.148221761709816
Ni 8.580083439871702 3.399171397270626 6.038411866002195 0.362391334156292 0.3615531545257128 0.45335053624468374
Ni 5.166252493105764 9.096865157054909 3.3581898536306825 -0.44360091305708765 0.9538872432568667 0.21010386547206397
Ni 0.30969089961773283 5.742017010132561 9.482111412025736 1.0626855304092087 -1.1798285899818197 0.36910448451040945
Ni 4.3466123067430456 2.842993305014249 10.600413375698468 0.07396755262640164 -2.0303389742122326 -2.272259984194893
Ni 6.888982397901083 8.633142813108545 1.77086147140067 1.4001057964424597 0.02418842432074544 -1.024080930663133
Ni 3.051896542104366 8.096951628868013 4.374965589162726 0.707701287350265 0.6167413139309249 -0.21881296321028765
Ni 2.481040273224983 1.4482871189132644 7.476559307955139 0.9469087550565047 -0.3945815457355914 -0.5012021085103239
Ni 2.060355907815999 4.875017351607415 6.590794680990886 0.7113365701100072 -1.1844231513310377 -0.26931842815900714
Ni 6.046822014156113 8.67610628313515 8.913316234825711 -1.654504370066841 1.5539187006322785 -2.583110727269732
P 9.279727669628578 7.533397194044745 8.084081214987727 -0.6076136405980439 2.189592075581016 1.4054585761139409
Ni 2.4253265342917203 8.884916384586795 13.166240608761774 1.9232980360706293 -0.1623296834115785 -1.1696351943885857
P 3.24483633076058 0.5669287390050675 11.318580421234426 -0.2913396696251047 0.5762901478944139 1.3562672019909547
Ni 1.655122744829329 2.746569978505377 5.521647844590298 0.23180346193268464 0.10001128498833099 -0.0915029904070037
P 2.829004332115927 5.014264444685183 12.832708848408274 -0.5020935099763418 -0.3581186749228671 -0.10664473114444858
P 3.666656950958908 1.4320349500001013 2.0212277633816256 0.11089810710416385 -0.15778011636768313 -0.9744802369168699
P 4.623765339704602 2.810796314794876 5.423911305578987 -0.8659254332339023 1.7307650896027935 2.0574635983431664
Ni 1.1123934387681427 6.9295988498382215 0.531078037688483 0.07438664244169124 0.28553591845913406 -0.3850838906578013
Ni 4.347990714192414 7.036602384877382 8.658014685362186 1.388173563781248 -1.4435674671705203 2.0063068729636933
Ni 7.355591946640044 1.4471788048154612 7.214565031511097 -0.6851861369668845 2.871447862623087 0.3770805607373506
Ni 8.024007796817642 6.640356811003148 5.204432516740504 -0.48028669851389544 -0.7185253745489626 -0.37770765279838825
Ni 7.592333426069098 8.95676121610321 3.889090002249686 -0.3907408318332626 -1.8952120764676912 2.9124423027575777
Ni 3.9729148709426054 1.9169083974431953 12.99801622448657 0.3899982972402832 -2.2570503663339903 0.501262272324298
Ni 3.371398349878618 6.366109609961883 0.9021490484840451 -0.1223423443853635 -1.9437362493203234 -1.0269543955561862
Ni 0.22651891175049402 1.8261197770618103 7.834013888406262 0.15342878137752286 0.7216312671677959 0.12296789378450435
Ni 4.322834778241438 6.936975192405113 2.6702844397466734 2.213548072175981 -0.3985564712229394 3.3840834097813337
Ni 6.628826618960457 6.845041003670536 7.114470298133705 -0.5597381570730038 0.5473312987682186 0.0010358974636820871
Ni 8.168805773948273 8.777018747418316 6.449179148626803 1.115914564936678 -1.1644179118537044 -0.25995575599718457
Ni 5.54156117545175 0.6308467963312273 11.32356969738731 -0.6090424026247705 -1.1060942364121467 0.6833791656651328
Ni 0.14482032968386407 0.3262923271751619 2.6366419844182327 -1.1076430689565053 -0.4775039935624357 -0.5753401252763187
Ni 9.087719237357073 5.139066200236123 1.8432297252052903 -1.4291896011822933 -0.255481779386231 0.7743437670701632
Ni 3.652267494815162 4.395927627313361 8.264341517822517 -0.6780081311612065 1.2618439526133622 1.180986614845663
Ni 1.8777541750300497 7.160621801065166 6.005697041632924 -0.4029047208893061 0.5470803590996772 0.6926353941560781
Ni 2.2689424837353154 4.1427290805665065 10.826952777289426 -1.1273099512578133 0.2731833104310521 -0.7248970824032612
Ni 6.905746812825837 6.6228659380983235 2.908846720907833 0.17967923043361958 -0.9167265750461695 0.07672403232561625
Ni 4.734056562781783 3.958301889266529 12.384824219783876 0.40274685515520314 2.2873343620295126 2.531879954119214
Ni 1.4731170801295932 0.990301930296705 0.9465589149761006 0.761458683577379 2.6542027581205514 0.7266246066173292
Ni 0.25037653690118705 9.075844443452038 13.098642762359631 -1.7658976716398684 -0.32415260239006755 0.46124202317761853
Ni 0.527659028400218 4.826586819602573 13.093817404930457 -0.7546012943359134 2.0313990400456303 -1.4913154239787607
Ni 8.037652167853622 4.019696902146514 8.3857969098832 -0.21420760322779236 -0.04388178898461475 -1.214207581682322
Ni 8.035826709339593 0.0864140394424091 8.810931296098321 3.113627011363141 -1.1394892669328247 0.7766413048550883
Ni 6.696480346745682 4.597836377954318 11.013428952635762 0.6243852036294278 -0.6884313833770596 1.733331821888705
P 9.293698015399205 7.30838149149917 2.3047596562220503 -1.0104013762935116 0.8516282998849397 -0.085535202859343
Ni 4.348149044777815 5.274531986391976 10.580784108534353 -0.35107230959904695 1.5451324697992164 -0.19465256391400024
P 1.3257299322494724 3.7407184106709286 8.50678941782068 -0.19185391812294056 0.08371177649735906 0.4416535595227297
Ni 3.4323742523854843 6.976390194605976 12.432546920936343 1.0704335497857438 0.45811067663748845 -2.6388442733866104
P 1.6393641948000612 0.22507717206696526 5.874440054979571 0.3442825403707232 -0.19020661232750466 -0.8438311724380241
P 6.72898468457201 8.884767367565242 13.193967088334546 -0.14410184754964214 0.056247509638819256 -0.3161821825900813
P 8.367929768998952 5.895774635684088 11.506352113311893 0.9337303086930178 -1.7256668491442797 0.824684167195928
Ni 3.992687566989967 3.8456450209721886 1.1898077814651136 1.5850593879011412 -1.828804081356102 -0.3087653213007198
