# total energy = -340857.81379693485 ev
CRYSTAL
PRIMVEC
9.40233525635839 0.00000000000000 0.00000000000000

0.00000000000000 9.40233525635839 0.00000000000000

0.00000000000000 0.00000000000000 13.76126805029424

PRIMCOORD
 96 1
Ni 5.70944596587997 4.323231444881444 4.966455554934704 0.6583775014144726 -0.40310243872240903 0.7343111766283096
Ni 9.373395052009332 4.352811192177242 7.501156887887819 -0.22715233631391848 0.04107800098723248 0.08197833874602009
Ni 2.8010497510779184 8.945146879701099 11.299625187164345 -1.7322840973504814 2.2392871288132983 1.2097919691131294
Ni 2.8839125333150024 5.294304649175786 13.531950233051768 1.898679980411633 -0.4554202742895189 -0.7342607830063483
Ni 0.5758977468980498 2.4333902283482356 11.453586549535368 0.7583229661618747 -0.6958762696908789 0.2011379145280278
Ni 5.780950726904936 0.4270794620129803 2.162184563734872 0.0760948833820496 0.2020966788968713 -0.2428880018816204
Ni 4.602208139736376 4.807573950427673 10.785201789843343 -0.554745846064735 1.5679610376579576 -0.15884095353202968
Ni 7.259477377258243 0.27544799836411454 4.683056001488563 1.3631808983916522 0.9530344083382684 0.7134824128084164
Ni 0.26427520316017417 9.241658930152555 10.595020750888446 -0.15308245378169766 0.3926871569263559 -1.1880075262481864
Ni 7.083080162059113 4.384214992548496 10.850278174127642 0.24328138066529714 0.0076582878762061655 -0.7033810627083564
Ni 0.17609351976440205 5.311727176747024 4.976266891966861 3.446123100621897 2.3215398042666275 2.7472183285173397
Ni 8.124388812093954 5.063928626212774 3.521012902295867 -3.5207951355144917 0.04514908573281257 -3.3323690121261773
Ni 2.6934118149551294 9.316981039366361 5.4551315968854555 0.9127760750388537 0.6889939407487489 0.34643789615082915
Ni 5.117747594274167 8.911900221583508 13.089883448346638 1.1084953896544716 1.2843578174451622 -1.8232605258300536
Ni 1.5093757129335719 4.097453163948834 3.166811882515709 -0.052913560169579835 -1.1896442905206608 1.9822824850246377
Ni 6.238092276021812 6.660689644730308 10.232699874221876 -1.7194478648177614 0.4803980272807791 2.3273461265357596
Ni 1.4648462522873866 6.591309811514893 12.096870834535446 -1.408910282107967 -0.8290483577018948 -3.820288544594982
Ni 8.955094550597142 5.647578598681512 13.310875940540038 -1.5153999757317902 -0.37512317990066363 0.6814845197455812
Ni 5.715275413853076 2.0178258065492294 6.462209164282086 1.229513873022089 -0.6754627390315334 0.7896580288297304
Ni 4.912428795260074 6.461322524050048 6.002445303810856 -0.9917235973783503 -1.6147301754926968 -2.6975178759684186
Ni 5.326667487761971 2.7457076046751636 11.422485504365298 1.6958127418973243 -0.2257027483515855 -0.812017370361537
Ni 6.325280132561523 1.2451700870556572 -0.004116342455848789 -1.0322693800111964 1.2043733692007192 0.5897899821530617
Ni 4.89201632501876 6.280440394845801 8.146987325325185 -1.1988454974039549 -3.680488152634171 1.9233196333371843
Ni 8.992487638643992 1.9392598916084516 6.014651415679707 -0.44393129981331286 1.3239402077234748 0.21977764111640213
P 6.649096565132177 5.0232917324389526 12.968605544200324 0.3025923597207886 -1.1061173763405985 -0.4980494218139551
P 5.169601474228499 8.981139019767316 10.879948183843666 0.5166333554637297 0.1049694003245547 -0.3344858659952756
P 9.518266236476482 6.9969453670887365 7.054301493742845 -2.1941830373858084 -0.8252888906594625 0.5435432924806961
P 0.911585568195873 4.2309569248684245 12.424966269965068 1.1682969351931363 1.8113527186488743 -0.2374110379274492
P 2.2504771946888424 1.662267089531464 9.349144548441208 0.16492521205289662 0.09616697154157632 -0.23543463092736874
P 0.4531239311831519 2.069538651471953 13.994934393411368 0.33457868281939795 -1.3557696935292458 -0.7882081837570812
P 0.2988381882394344 0.040677323816214285 4.3332580953951885 -0.0334402819363166 0.5819866840585589 1.1039357953082471
P 4.0702804145258025 1.676605651078219 12.554212653397203 0.11882764636388567 -0.7295394662712791 1.050515727815894
Ni 2.6691819965249732 5.826260581392682 2.300457189189882 1.150689249413702 2.4708558490273576 0.023227088848740644
Ni 3.8131641495700217 8.001556701899325 9.627451797012776 -1.161475798506245 -1.167040951298848 -1.7172631984616167
Ni 5.195608334056909 7.499575415066728 2.0773049805458017 -1.2849573987023741 -0.015367997815638051 0.9237058345774801
Ni 7.6293746558227635 2.9110382710608307 12.73156796657772 -0.5219372841751463 2.7735407684619524 -0.27906907978786777
Ni 8.013008746465848 1.6796143984191774 10.69053719616135 -0.08846394647036378 5.052424942841583 -1.7242874522982496
Ni 6.776413589331923 3.6991608323540177 7.721873891652812 1.2867641128938099 0.27094516512915273 0.14593015900763254
Ni 7.202781294552057 6.519024656648367 1.6274351976586054 1.213280184772046 -0.39979600005699534 0.3768458190187252
Ni 8.470338342291534 3.2537533978668796 1.1064057194571093 -1.1551267163597656 1.3400350564028085 1.7899945646880722
Ni 8.30682232664588 0.8424765222411453 12.815813832358101 1.8082463118094083 -1.5000602600509263 0.09600782025589273
Ni 9.206277941889972 2.5756663682338083 3.6272912607139607 -1.3577890379521196 -0.24105172000383004 -0.17789668461190009
Ni 5.028096325849046 3.621704392995218 0.11062035692451386 -0.18148054530841648 -0.012057188274850202 -0.3543664069692865
Ni 2.3637565320759277 3.652327799524911 10.423899186104977 1.114692519604119 -0.6027537414025813 1.3851165221224788
Ni 2.541423062559525 4.228850801729754 8.238059286635364 -2.0098963900871643 0.4229426133767877 0.46233628468306187
Ni 1.398964087855837 8.114168473470135 8.945251245624489 0.22340855300077006 -0.7979904599548258 -1.0272282180428631
Ni 6.060218894158523 1.2344984363306952 9.33406226216111 0.09691927632656856 0.9416896727494105 -0.3788895889216313
Ni 0.2926862401607184 9.264967319709543 6.554574886948879 0.09689870750127828 -1.3071169655185488 0.3738605111381561
Ni 2.2258524781701854 8.516174727563946 2.0616303471329522 1.5419818399853766 1.036383659289886 1.8774912621491602
Ni 4.110907905964182 0.8100083774980273 8.221518698128445 -0.8827108802223572 -0.18073029740595326 -0.16155372447750244
Ni 3.675316509676922 7.271973081058661 4.084207153780264 -1.2987673080022728 -0.8052885362781357 -0.23885779767630477
Ni 1.2313862632998913 7.511516381076157 3.913801106723817 -0.7421813234050058 -0.8158094904141175 -0.17490906273848586
Ni 1.9684447408157486 7.40486569017462 6.272386354307473 1.140897460134261 -1.728550855560294 0.44114885197216924
Ni 5.752856548608736 8.16081345959043 8.56561878894488 2.839717621399341 3.5274710048727704 0.528627037490496
Ni 0.42300825076724585 9.165264954698532 0.7350350949290629 0.017838570843317664 0.3008368104822626 -0.04196374602629547
Ni 5.592565534019174 1.8053800372712407 4.030881808329496 -0.014769187889374565 1.9486645398598763 -0.5787764046513774
P 2.63817309424222 5.443341068243075 4.596979500997917 -1.140633922060229 0.4509221293088493 -0.010653365948788105
P 3.207211837436429 3.847021959491245 1.6932553066762477 0.8462629218079685 -0.7399683749140868 -0.7824445418004267
P 7.318430020470148 0.9057636420911184 7.403989392511566 0.5844163765459741 -0.9159642429588483 -0.06819696869121158
P 3.954387227886259 4.42321587995567 6.848185376683398 2.4464162279277546 -0.4520786115107956 -1.7941448394110195
P 7.154312255356304 3.0112389598501883 2.857720447478415 -1.4390191856782057 -0.5864804581638545 -0.029714239234981083
P 3.5707437349077344 0.7284365359169234 3.5760993051746404 -0.2311195484917826 0.5661839126983474 -1.0060500413033513
P 0.8846713829974555 9.17583317973365 12.49462629277661 1.4951106293551348 -1.5061879702152188 0.4427154251283408
P 4.05769068737098 8.230898467963883 7.1400611355291455 -0.8325681979296952 0.10708336134376398 -0.5067873159075852
Ni 1.9044336411368576 1.8390027888064517 4.402161230203769 -1.1852649305060425 -0.24914606697619024 0.05514450638262761
Ni 1.7001585013566596 7.222695441015025 0.3026555364282755 -1.2700935942166642 0.006740146937310973 2.0037617379443358
Ni 2.4887417770864304 2.8031276672102674 13.467313878066085 -0.23338828992130128 0.41887127152089154 0.03738049753098724
Ni 2.2207470100259963 1.9027412207575685 7.115414793638975 -0.9911980638921832 -0.6554248465440519 0.4478267782129772
Ni 8.217801014695274 8.195470468024098 8.635154700928606 1.0083936018348634 1.8239413539471618 -1.2330437405522183
Ni 7.458364978831037 5.700871035958238 6.24775317568692 -0.35380976313486806 -0.019916536418268925 0.5776456334810438
Ni 0.17382473622261055 1.4944824135958275 8.547027551078388 -0.47166938915852963 -0.28633501732166167 -0.006999057025652462
Ni 1.6130834728422334 1.8223794597476561 2.0295260727713815 0.8034188300592486 -0.333502933256716 -0.47884816629515586
Ni 3.742063688968997 7.036764257679233 12.08700402372419 1.7831389752188194 -0.8150674700417705 -0.8245093321809608
Ni 8.11218458069219 7.811102995216654 12.838933234972735 0.08840455398733807 0.27946065879933163 -0.19931423105572768
Ni 8.195799549764514 7.533376810975308 4.99176288100634 0.7294250521806018 0.13524722537248965 -0.5371618144343846
Ni 1.1344669895792672 4.557970151488846 0.9845787189210692 -1.5627278142834764 -0.46575996565263017 -0.4482157861212797
Ni 1.6573778751024064 3.7596648609136043 5.806030516458913 1.2721759306669898 0.4185146595124212 -0.13363462946973118
Ni 5.839480265022019 6.8694779055219435 13.642659912162967 -0.24926382350097717 -1.2632603733449148 -1.0929576990301886
Ni 7.618242290661217 6.0010876065732495 8.638292260265098 0.9062177050950458 -1.8206629403062065 -0.9877664125028149
Ni 5.19242094234258 4.389527312072376 2.6656542402676995 0.35977832201347715 -0.11708932351654028 -0.6849876478028332
Ni 3.812618814114473 2.4851688896190423 5.5291129330654485 -0.36557950207628653 1.0721952696718566 -0.39595142949992457
Ni 3.0942239724479985 0.2864919815725202 0.106654451835713 -2.1030106908453456 1.8600918357257903 -0.019382775401985974
Ni 4.786973433477547 3.4370425249438927 8.831169889024329 -0.4860426271610661 -0.42916519724773183 -0.08258486198176745
Ni 6.266741192109 8.139780435210044 6.368769694907989 1.5605722013930543 1.6375327752095088 -0.3751800012805281
Ni 8.624687080882701 0.27220325240359966 2.5314819732982894 -0.28842275308862586 1.5816531904330697 1.7344499946535485
Ni 7.344314649937831 9.229567526776078 10.623203311137786 -2.423041814867872 -5.395916097659262 1.0486287952058264
Ni 0.6964657747186077 5.277201801009526 10.05201519406188 -0.9555219506468123 0.445808976452 -0.19434248887274916
Ni 5.124150584709145 8.908938485919753 4.228410772431139 1.0645171843013086 -0.5059288245620319 1.1142191795121263
P 8.847475419145235 3.4267563699719914 9.435096938104039 -0.681546226221452 0.6354643442617248 0.1144436583635771
P 3.7496419713340363 7.7548488222761724 0.3860006584734568 -0.1466770644759861 -2.3821533041836265 1.790398742105026
P 8.304593973146485 7.064012225785788 10.502971886926 1.467542747039195 -0.150885703240695 0.9349222721185899
P 8.066639667818432 3.8343476113174573 5.265226046358967 -0.3613724059734744 -1.5721791895043633 2.0293874089322403
P 2.8851536415931474 6.08768311598021 9.915668166905084 -0.5504657306321422 -1.096975304830014 0.5067562055593337
P 7.365836595761125 8.841006612362175 1.1146148985302056 -0.5899499047696937 -1.2734905357133552 -2.01753745157219
P 6.323174009422852 6.525446451754225 3.9179983092644544 -0.550597114003684 0.06266498312938885 0.47322619212268824
P -0.11808299056363487 6.20654744061895 2.0195896846778663 1.998027149453404 -0.16672884092053866 -0.609319310435241
