# total energy = -381173.8882495596 ev
CRYSTAL
PRIMVEC
9.17788466140398 0.00000000000000 0.00000000000000

0.00000000000000 9.17788466140398 0.00000000000000

0.00000000000000 0.00000000000000 13.43276191675897

PRIMCOORD
 96 1
Ni 8.761805009193585 2.0834898930484034 10.228228104811873 -0.31177094089626306 0.3943509177820241 -0.9261033882753792
Ni 1.7645492323197853 4.977185065018304 1.9744281749538384 -1.33301645899313 -1.423347797689536 1.4744037358250868
Ni 9.038866983412328 6.236161357368114 8.41128600161541 -0.9947520997920287 0.6762847207121966 -1.7067142193011768
Ni 4.960242690418869 3.400103299420132 4.144947356810021 -0.16249551956548142 -1.8237390081283686 -0.1683499214637294
Ni 0.8586865354675782 5.064586058144219 4.391169803873277 -0.1361327133012365 1.041109861120962 -0.33543460306179007
Ni 3.38518923727274 3.8478647455646198 8.574588098716049 0.33430408900177266 0.18121135080742984 -0.0661853375778215
Ni 0.7042640415223862 7.325236653734837 1.7822451112283306 -0.36882577692772606 -0.19716196059941526 -0.09455488985945006
Ni 0.48620209715872464 3.2233556016758445 12.188310328662581 -1.029059614824647 -0.3012507580912296 -0.44001242437488086
Ni 5.357727685828949 5.442347779982149 1.0198960749253831 -2.277686811637419 0.6359387127949822 -1.7348459445403863
Ni 2.2591087110116885 4.719855542256111 6.632063167719472 0.9825452733131916 0.4108260326189118 -0.3771684924654666
Ni 2.7625064923792455 8.770881936863598 2.2304158910169867 -1.1890673349712684 0.5760795745455046 -0.8436483670032567
Ni 6.349884522948624 1.4544193406136263 10.020651893373376 0.7201816792054628 -0.839853932957831 0.11463134889435098
Ni 5.766685036737023 0.5344988782283977 7.779153706945329 0.22738579248096322 0.15290067678819474 -0.43276834121795793
Ni 8.37371816740746 3.018826447857616 1.3322011252339618 2.9780781955898328 2.0007697451955475 -0.11076132441598342
Ni 7.637752795384579 1.6534784753304115 12.446084978818096 -1.0997037595047705 0.12859218194981725 -0.7314163715790177
Ni 0.11966951688223015 0.10067680290819192 11.553599048476547 -0.2641803356014934 0.2009905903168861 1.2325822275347675
Ni 1.9705101361041635 2.5764799535081813 0.5966239777211322 0.027692323708945855 1.083870906237572 1.6960405416374147
Ni 4.06159013955004 6.258748130872563 5.567208308280112 -1.1353482481812576 -1.0147257147004782 -1.1326010244534237
Ni 1.9685644246117036 0.3008152568302283 4.443852695896943 -0.4893284970011896 -0.2720540819226154 -0.36977888486961474
Ni 2.542742050459682 6.546924523097762 3.392013912111387 -0.35210177930482583 -0.22461131505961965 1.6965064255302396
Ni 3.2955029509316263 8.289199029982642 6.495022669036399 0.8829780178408148 1.1367181319455908 0.2740605708296829
Ni 5.083712769230473 5.168048348967323 11.514119460948413 -0.30742371967116083 0.31387873126788524 0.12281542736704008
Ni 0.489813594669493 4.500595883978459 9.657054400527489 -0.4239152617027022 -0.9115815405101204 1.2193505593358418
Ni 7.413087363196272 1.934211603308512 3.6293035242896856 0.6669410747137675 0.7860466573293882 2.6394785645364993
P 5.282166163576965 5.529895619258437 9.377141775414605 0.7721997241439669 -1.0228195474522064 1.2757068266383835
Ni 8.054896819176022 8.737226634774684 0.4041206058301205 -0.36291712475277493 0.5658368137715739 0.3010155021519719
P 6.0613134816942935 5.315610374324716 5.665697103547726 0.46509507837512154 0.6954376394915636 -0.8035746389108225
Ni 4.7028489224658845 3.864797942279658 6.468183781690173 -0.7606600989354835 1.307775167927838 0.25475338586063867
P 8.52146375045282 5.466715063059887 2.7658325576852243 1.4328817053219 -0.9791501315887137 0.42842600508886214
P 2.039325913323328 8.202220219539056 -0.04494960662957845 0.9127102547979249 0.1275287736823094 0.16762975546825326
P 7.72991711051326 8.129366173184597 7.653625028663163 -0.3263496100413863 -0.3924716984814402 -0.9450002251798821
Ni 1.5616537419244714 4.999900328904332 13.186915547360567 0.05734999867437865 0.6543493540916859 -1.0243691513275133
Ni 6.959617272955983 5.272804721490602 7.701028801580872 -0.6473317851232723 -0.3481638777030004 0.5718413680944411
Ni 2.1598223575898534 1.5277414590724023 12.062001530206551 -0.2590910940040441 -0.6353800120780349 -1.3499903678433074
Ni 2.7355877574387537 2.0189234763056962 2.8109528729646125 0.4118269630796004 0.40316543074986044 0.5567849879819508
Ni 5.1431671043632745 7.834957997452889 1.8443316636065916 0.7063059496646352 0.665476574353099 0.5551860189259471
Ni 4.3181120084851745 0.5695070004776349 11.621340095432661 0.4920680074195396 1.857434600608601 -1.2948198933187507
Ni 6.7518942153671135 1.751287189364105 1.6314891821002973 -2.576500935262698 -2.07074386039184 -2.505347969266956
Ni -0.013229920360286127 4.429008385670979 6.426381271620804 -0.1780326959691321 1.1365492104678943 1.4441400518445386
Ni 0.3633478543902515 7.178124344712967 10.423366447313663 0.7658010197064746 -0.18290210824629147 0.38890300729357535
Ni 0.3104254195837875 7.130004696812183 12.789170817822011 0.018389044030148977 -0.3680986689537144 -0.5481993031954688
Ni 6.042012390804469 7.4452650258970445 4.15936030646926 0.7404314305934345 -0.3647102120974558 -0.6040598618085146
Ni 1.2570948260481378 2.679639374146139 8.134235958646386 1.4261862955795954 -0.0014081932014362846 -0.7342258160033548
Ni 5.995957766893325 7.601362483744944 8.938562802610711 0.14727021797529474 0.18995181600422126 -0.03401029550717369
Ni 6.4387815112314755 2.275206720246473 5.892630390970876 -1.2616917433062143 -0.9113694244993144 -0.3144770269735164
Ni 8.801637027482618 7.63729390116466 4.104460955363382 0.8559572662775968 -0.38272618905890216 -1.9323382918960268
Ni 4.26119076944633 7.973856099938196 13.070466550113732 0.12068321151538572 0.32924595775257487 -0.39161166447399004
Ni 1.8337321249148857 2.537629968849776 5.4399459276350886 0.7190411378431166 0.7453921170328195 0.020198843545378115
Ni 6.865727515560404 3.6616179374679936 11.269576566730064 1.3702295777083175 -0.12571588884328674 -0.7503551174650496
Ni 6.556836638248028 4.311329551914761 2.334291186638019 2.457326704192671 -1.4253807689591647 0.9983889252136676
Ni 3.7852532181987706 0.9724335635475242 0.6289163639768843 0.32737882263684903 -0.2972357233945655 -0.015147654274715847
Ni 0.34660280430538015 0.9939373466929633 2.33971806968279 0.4985366458630188 -1.2897388792514173 -0.936842114849122
Ni 2.994908881115399 6.362164532273676 11.810365966925122 -1.1514662367890427 0.1940038745864078 0.5305049712394992
Ni 6.4083843581039925 3.4280132458756505 0.04234216967199448 -0.5095314543116257 1.2091584492941885 -0.5587657658574054
Ni 7.626895358141278 4.235208178714474 4.501453098381269 -0.09153024410051333 0.2205559140433234 0.46946338264614634
Ni 3.8299128036813594 1.775975698395787 6.916703321085969 -0.25118623733467066 -0.9690336119800022 -0.3448217007036449
P 9.034856247930229 0.6212087766591124 4.4197947075234305 -0.474513286365228 0.3108846816365678 0.8735526107618569
Ni 6.37369195507806 6.989784978973507 13.016829158112635 0.8190819905178023 -1.3305199178235214 0.2980530770895383
P 8.730297332053896 5.0786465770425595 11.684272848752455 0.10124875693985788 0.699783575165085 -0.4319741274514367
Ni 8.559625393781346 1.0239765623289094 7.884117499656011 -1.832391541597044 -0.23049579886485466 -0.08250207245997404
P 3.4005163042180597 4.271570956700915 0.746232671299366 0.23123499102372436 1.406480846730868 -0.7124848247818375
P 5.828543977582204 0.6243421063927244 13.253312952040755 -0.10648429430718434 -0.16725977372334422 0.5064505013934568
P 4.926247806607214 0.5259974039101646 5.199419275629476 0.8784703597784483 0.6665803489402391 1.405493286006618
Ni 4.709181662700778 2.9271026711800583 1.6289101965843484 -0.21446085688917904 0.04356631462672497 0.5915370467511554
Ni 5.747907085257908 7.535648831452437 6.565302318817107 -0.06451617740551469 -0.526501506507061 0.31706587074661524
Ni 4.099742604994167 2.9422828919750033 12.501548769814477 0.0802238179487586 0.40640476362276456 0.9286724345541362
Ni 5.018990328452993 5.531437503837368 3.5687221449527606 -0.8172619065899279 0.8428107015933098 -1.1922809568125596
Ni 7.205933334440103 6.781033998332017 1.9041209915199346 -0.04354343180858952 0.761080988522986 0.42982622787049846
Ni 4.1613812766137865 6.269945149838605 7.825967341896221 -0.9407537911987023 -0.16262176073070056 0.32437320304130585
Ni 7.225757564740636 8.823847507726734 5.447898564466298 1.081285404898583 3.0543476568765335 0.4989781042758116
Ni 2.2211030917179353 8.726956582132882 10.781457209520514 1.883659338633085 -2.0963217088609443 1.674892703915206
Ni 7.371603325715528 6.19609989196912 10.441379881022392 -1.0859468149299942 -0.10723711331280887 0.13510890002241246
Ni 3.8446524860251814 8.176329407651185 4.127994886537746 0.9406738298903865 0.06567240249714495 0.35984234248219316
Ni 6.0951523414711755 2.962988199177782 8.143974611781521 0.5604488099867831 -0.05343112323594669 0.7477518755142477
Ni 8.297174611524849 6.6054243582531305 6.010300964631136 -1.1597698715587317 -0.16863582813526443 0.8782872972333648
Ni 7.95410529271285 8.896784155040779 9.663998387863314 0.24151246169033247 -0.6133466864270792 0.377737220484743
Ni 3.639260611073504 8.629212113289976 8.819373289082517 -0.15455389612090153 0.2063546828422769 0.09596154039898956
Ni 7.258972328378427 8.977953364660182 2.6954446088686144 0.17540631408987856 -0.5013664020023301 0.6569600522416558
Ni 1.1778346163836002 0.5286929485579731 9.17917021999903 0.44395006886639027 -0.33241587084012425 -0.5876585376323556
Ni 2.3628096268291516 6.067361707512837 9.419724405657838 0.3260860719673545 0.20186990759804585 0.24232467317898265
Ni 4.648534202596185 7.592533358953688 10.788737107425321 -0.20232473574727736 -1.124414117767257 -0.5909117544623307
Ni 4.7722520842865475 2.9287638682561674 10.305842719803778 -0.8965644982759979 0.5721756115054081 -0.3608769543942946
Ni 8.273101020747859 5.345915748608215 0.3664297879712325 -0.33778330579962473 -0.8724382946517556 0.4142797954954672
Ni 1.4661211432215797 0.5923810417637543 6.693854192220105 -0.2953966133032977 -0.48758066107214737 0.895029292578394
Ni 0.6335108129067207 2.977966506515962 3.3923360558537703 -0.6637616485445215 0.5146636333318685 0.24854648571897844
Ni 8.705085683611506 2.3147175125815624 6.092912937677967 0.48292619301927153 -1.255735011502147 -2.475117966737821
Ni 6.592841478742931 8.620208608695151 11.573009356190713 0.5564391746067578 1.1175590425186366 -0.668395804882423
Ni 3.2851502973302367 6.74704829240476 1.2515064122379553 -1.361862436690545 -2.3272042016412566 -0.7841134448624173
P 2.756660180017468 2.0787357489300353 9.856987269839001 -0.12226058330483461 -0.27459253207375295 0.24276150360608514
Ni 1.497188281910146 7.057141472573326 5.706250503550474 0.043305861876486704 -0.13951474239959197 0.24182202251095128
P 0.19587257325366247 1.47709789296206 0.18285649759985892 0.28284140234610644 -1.2056128980347753 -0.469440756938327
Ni 2.5024236042975336 4.135921825292639 10.958231523129557 0.3495715566838044 -0.656744850907056 0.20586103103531
P 8.425490613298805 3.30680092662605 8.153055210605293 -2.0386546931667793 0.4752869313064589 0.7863652170110714
P 1.5275579013844345 7.369519945957093 7.954357684533806 1.8363243009925472 1.8679275297201252 -0.6928745067500777
P 2.798364486723774 4.052559101302019 4.131124545117598 0.18971810272686035 0.05576542779607815 -0.09396225058077365
Ni 4.916023643387401 0.8481971313886528 2.9302901504316208 0.04171794856407654 0.11871940292079555 0.8905476026579566
