# total energy = -340870.20882950106 ev
CRYSTAL
PRIMVEC
9.16419764336244 0.00000000000000 0.00000000000000

0.00000000000000 9.16419764336244 0.00000000000000

0.00000000000000 0.00000000000000 13.41272958235455

PRIMCOORD
 96 1
Ni 8.193305991690204 8.793102735021856 12.076728266916632 2.3440788659094083 1.8289269800872117 -0.37225305744172016
Ni 3.289085560919634 4.216933091433 4.2992358350875035 0.7415413758281617 1.0965577576766212 -1.0986331521484112
Ni 5.130502801837722 2.324205507261834 4.4946321104472355 0.1925792263247393 -0.23447715211010586 0.3895455259735807
Ni 3.2554071341550226 1.7556770066841554 0.09182251228663342 -1.2581675322030397 1.9615041148267056 -0.6260427938375089
Ni 8.679604145775675 0.5770117984432569 1.0878608383252986 1.8234376748378662 -0.0029619108418013507 1.252801639905436
Ni 6.3724807031367625 5.5837456946062005 7.325000086857119 0.2411406801732105 0.5761672491633044 0.6453363519597983
Ni 1.932289425897106 9.199846488360771 6.815477106390816 -0.7938448132175683 0.9033504108495797 0.3138993000931755
Ni 8.910386137942536 2.6023572376453683 10.569686942473572 1.3628548825108013 -0.5553731952360887 -2.301490598925236
Ni 7.543848460702108 3.1524290439362637 6.3137876821689725 0.8427513091102841 0.6995231224148469 1.0603116308603935
Ni 4.510508166645063 5.895227612239501 12.054449185744538 1.5116322811592418 -0.5280989329011679 -1.6216065908975554
Ni 5.592561652850433 6.8742938440283545 0.3015882497326002 0.734915900091844 -0.21447628350814676 2.6410078566968322
Ni 4.473888032399787 7.77819532579725 7.234933434861125 0.9541577233094342 0.4590365308858675 -0.7541660065707076
Ni 0.8302121675881496 7.670580151512397 2.2780985954963606 0.30660353776271065 -0.6275697720049965 0.9122184027631709
Ni 4.577196033737873 6.832780028179731 9.543572635809388 0.5822119126954876 -0.25247873089384903 1.0830532954322831
Ni 4.089798175921311 1.059234633785267 7.576663620037815 0.6551975610245941 1.1342064212673306 -0.5370121762303978
Ni 6.159614717588901 8.082767438320205 11.819914454595335 -1.5950059575908917 -0.5790085752668416 -2.0561672481292463
Ni 3.072434761697272 8.744614964678576 9.01327350260348 -1.2872490229500282 -0.5364460193142826 0.7584463791136165
Ni 4.1329798757620875 8.890774754738109 13.734903707962854 0.059987436297225714 -1.960779320845539 -1.0950894006612106
Ni 5.197080698557425 3.5245687865369013 6.83861395647316 -0.16578730294287577 -0.020898697825880136 0.3354883391178609
Ni 1.0596561868821843 8.833571832325944 4.359566498194842 -0.3904850070687146 0.6864531766047661 0.061279415635771876
Ni 8.745769653596218 7.503709274517346 5.577415066794229 0.27428399969439865 0.36080727749862374 0.8216204406689398
Ni 5.670484826395874 4.6834915635454175 9.764695563538181 -0.06721660705581327 -0.2925133782182317 -1.0226588535046257
Ni 3.4157622665433687 4.647219668814987 10.46011887764626 -0.5738154611016762 -0.1390462874036057 0.7211021341372033
Ni 7.887753310007026 6.647269172942716 12.659189097347436 -0.20924665967809125 0.03913964631393904 0.3667256998655878
P 6.689919349313465 7.200905852161893 9.616242891199326 1.1834589876455555 -0.5923592855421347 -0.07336128650097043
P 6.341267445569344 2.217570902137203 0.7182366680095278 0.39907840516468046 0.6025462533774655 -1.5763706018778916
P 5.528366447548093 4.539833599474112 4.772732521323319 -0.10257955993613946 -1.3583829627823767 -0.4615695817203664
P 8.60761020818036 1.1117271585492654 6.751833585793571 0.5370833957879654 -0.8015812626298776 -0.9974013644894179
P 3.9198206358859338 3.0219217036492343 11.982771412971909 0.45815309983964964 2.2848234226822006 -0.09909340115975192
P 1.7509666090359894 2.136715185308858 9.634873705243532 -0.13222720759924325 -1.0226853358671872 0.11983474747216137
P 8.120148200979484 3.794491067332783 8.53347368114897 -0.9435349534882653 0.7493544441146772 -0.36383937945672823
P 7.590805810019623 0.991309599994981 10.439288656139876 -0.11572252507600068 -2.8224794031441838 1.295952207150981
Ni 6.858888827595345 2.8961522536036486 11.07258420796006 -3.5743702405274704 2.271240798901759 -0.7634227492822853
Ni 0.965805637631467 1.999059770769748 5.335570055092611 -1.4113911395482919 0.09823336715230178 -0.27132825950018435
Ni 7.794232671875636 2.912180435484276 3.9631663748665966 0.20535915169822697 1.243640542231458 0.1651589253302575
Ni 2.6811876667689565 4.929009585708876 13.090502064878441 -2.0780162256835375 -1.1081169232691304 -0.8117959983793503
Ni 4.597852135486835 4.379020257197812 0.7514962909365493 0.8125087081756588 -0.28810419340694254 -0.17784860498278401
Ni 8.237688201437418 3.164644919549114 1.696992233494348 -0.9961865182457101 -0.8979487802180341 0.18080871605237248
Ni 7.342685155692587 8.066372688529215 7.615036865314401 0.21899011221810027 0.23241229916127715 0.5629566640103014
Ni 5.841488756580269 9.41474692581115 9.258244422160722 -1.9292416552485745 -1.4718814836238652 0.9302390077103075
Ni 2.393211916387691 7.018382525394337 6.0747459985618555 -1.6918835820462474 -0.3300113751636897 0.6276096241039966
Ni 5.453192533330376 1.2907955827616489 12.1305266898613 -0.3345360025069206 0.1780113558128934 0.9931878406287025
Ni 2.6930094818781676 1.647466159544963 3.7558859678528917 -0.052980665962089404 0.7871853989195217 0.01635915808431376
Ni 0.9490809767211498 3.260282487362852 0.6318265309194058 2.7958777413962563 -1.1234250143811104 -0.5640887207322156
Ni 1.5736577107933492 3.459035608361735 11.404589346474816 2.284770457957078 -0.4928943599755769 1.8684556343094532
Ni 1.4292024615170031 8.114851294674738 13.408370511930043 0.06242201388064734 -0.2248691967066966 -0.7686924823216568
Ni 8.861412665118024 4.433455591886735 12.436068374507165 -0.7128926017432173 -1.7240010314060827 -0.65602468491158
Ni 4.389100874732797 6.468109106752742 5.097669314106498 1.569298782632775 -0.40172509875890816 -0.14356422987861728
Ni 5.238392902055348 8.909341419398002 4.169830031371116 3.1122285883537173 0.07872615035730957 1.3392614114615773
Ni 3.088939481861371 3.5921639092078603 8.44894678669834 1.809687672241625 -1.2887993981562837 0.6155051275309786
Ni 1.1129276684557046 2.4809499457331037 7.649534571358674 -0.6508058597148016 -0.856069880596061 -0.6305429957007076
Ni 7.356092377014119 1.5787346763518784 8.395336229807732 0.8810507189111149 2.5204485723538204 -0.16406286405260134
Ni 0.43859025697148796 6.9142405820601756 10.017565105143971 -1.2181233717969604 0.5481666501853204 0.4581392158825787
Ni 4.1876259869994685 1.1767563058476826 2.0399824958629105 1.1802726194977737 0.5353723266341296 1.7794468710792128
Ni 1.3654471377070978 0.08127726992526242 11.065207028764004 0.11693120067212119 0.46322280105307323 -0.12327899726701996
Ni 7.428938585001029 5.536678374915576 5.07620859579429 -0.29365803334563617 -1.0181684218334401 0.3344123324448628
P 8.092399010164996 6.835144391201573 1.8019332948731015 -0.15887386365249415 -0.70032119283611 -3.329606361779375
P 2.5092948094019314 6.428913832937165 4.007428533623167 -0.9368369726427995 -0.2104010849975086 -0.3809217888603117
P 4.301546129342567 8.578504716097527 10.828378498915704 -0.8240879283728259 0.4205026364767274 1.0534020482247535
P 5.169523955895877 2.60572049822295 8.98329649531376 -0.014123583885575674 -0.5046201330529374 -0.06828772863280498
P 6.513985080734686 4.915144154499391 11.956121009468735 -1.8442463840531012 0.24386604952417354 2.6355038961594675
P 5.054238348086677 8.090300408878168 2.1520725479135208 0.6816557552161229 0.2822320508968817 0.1423216157207678
P 4.150281881131226 5.6494896493298254 7.741787800939985 -0.30062366603019197 -1.319297823855457 -0.7110288090616013
P 3.340441725161507 6.847140326068206 0.21384288902898055 -0.4628031970171514 0.30143973417358405 -0.06498257551897195
Ni 1.8836183715986428 0.602991382670467 1.6625082737467134 -0.39470958667302347 0.5655107978907229 0.4778678046597577
Ni 7.550052622585004 7.606293304232465 3.5383315787314844 -1.4126162702046445 0.8912675115431167 1.462765637365526
Ni 0.5420989542404976 5.6394548527836355 0.7690164042123546 -1.2872827044014412 1.1580863132087216 0.2179184764204763
Ni 5.318121422559326 5.8523574951225354 2.8808397955680047 0.27181805465240927 0.872763024981026 -0.299416018875336
Ni 6.359934916404586 1.0132028684414183 6.351893332870995 -1.5005009471327706 -0.6698631334565689 0.3363229192040143
Ni 2.372225903519402 6.307002510148151 8.834938214211823 -0.16522346001960578 -0.7867845639366773 -0.927488441548364
Ni 7.55535869308751 0.7253764944836254 4.480335045523298 1.996195495561304 -1.4308752164148324 0.41794156061777055
Ni 3.2295824248699407 2.6911583139308335 5.9967513442738944 -0.062257463278325036 -2.9426879890159965 -0.18779363201063787
Ni 2.590975304028593 7.097011342167226 11.31302068246611 0.3495178206277335 0.405547814939108 -0.4788425098682011
Ni 6.663709743722501 9.068312757924726 0.6044741498678858 -1.9091618537795636 -0.5552744648746953 -0.03920520944455184
Ni 2.30247719437506 4.50686081593695 6.6217441329243565 -1.3210819123390733 2.5965341997644895 -1.0295681790299493
Ni 3.203281177301387 8.428954172867135 3.5431336183572415 -1.3124468623718943 -1.1486511359377507 -1.7537453525480504
Ni 0.35681170542880397 5.782288039056625 7.056383704241906 -1.2081606041572934 -1.5498255043995115 -0.045585144828966646
Ni 2.2120448908884787 5.306427906218742 2.158979603764538 1.0243238999118747 1.9016866284484413 0.6991027470479767
Ni 1.1690858723233342 3.532376683027636 3.3179207091685727 -0.58770738859242 -1.475854095118368 -0.7197631036108055
Ni 8.16452124652894 2.0186711539741746 12.71125731975519 0.24270493933653686 -0.46713062074791156 1.2232534939346738
Ni 6.439324361591478 1.4269480688682699 2.593699820022367 0.8921398868457411 -2.588171943842723 0.9826334621516238
Ni 0.866792895783061 4.205523665222948 9.250505257153181 0.5396084762026643 2.38378415491883 -0.3340942869838117
Ni 8.725745881492633 5.285020340253536 3.1727139956759824 0.41463383640077617 0.13303376266093864 -0.6291219469834649
Ni 3.6171088555080706 1.447402558266532 10.534746605677535 -0.07953167697774044 0.5943881430467054 -1.0767679766442035
Ni 7.223706376186478 4.9796051215367445 0.7690988819921863 -1.3990282471075648 -0.024768722304247665 0.5404209448016306
Ni 7.819030991011701 5.198061267717645 10.488137495874865 2.40481372189562 0.8735073593462183 -2.990894373517894
Ni 5.889380854069209 3.573065721077942 2.5632398595107437 -0.34947514031525617 1.3484567048076002 -0.07618307222048169
Ni 0.25736274776706586 0.2094761487967799 8.914516441872552 -0.15994704211201485 1.0893036472173694 -0.08317672992949547
P 1.2404291518777564 1.223246281079485 12.888385683301976 -1.1534884094253939 -0.18631961856827267 0.9217767358755674
P 3.540844401757024 0.3935693026404657 5.384098147906032 0.21509591937001668 0.954391179476479 1.294656371157693
P 0.7577966768959156 6.244310233278299 12.055388516014842 0.5253429674225856 0.16901763695471536 0.146956800499934
P 0.8151581399293122 7.584766603696392 7.966048549981485 0.3530163206992953 0.37776961638457524 -1.1097248911861985
P 0.12051744830985833 4.1269040126478185 5.104093416735612 0.28930335592136625 1.1247169937196566 1.608601179776823
P 6.426338693366865 7.317474447657364 5.765542300491462 0.21772461524211537 1.5666027238578506 -0.14348092613619162
P 3.016918051672778 3.426814289040817 1.9684119442040635 0.8059973894197021 -2.2756569256915844 -0.086366954732019
P 0.20661416983661987 1.3304215738719019 3.1157099363551897 -0.0552550638185629 0.010669821009020334 -0.11415800880235823
