# total energy = -340876.0906920306 ev
CRYSTAL
PRIMVEC
9.17233411582553 0.00000000000000 0.00000000000000

0.00000000000000 9.17233411582553 0.00000000000000

0.00000000000000 0.00000000000000 13.42463813224994

PRIMCOORD
 96 1
Ni 5.7812945141095495 6.497983992489525 6.749075714636858 0.1349034688798257 0.7742226681112666 0.3848699748747823
Ni 6.74835201749541 0.8481253536409786 1.0882708125613911 -0.3234612327499978 -0.017767351285750046 0.2480122104820632
Ni 7.943864840298826 0.37587857259419555 3.767356354699484 0.6934656033668574 -1.0816325038253565 -0.06083307212697264
Ni 0.4523639129413737 5.937334257713012 5.652980901294033 -0.6351010473850353 0.5076748607188611 -0.8422939098578914
Ni 1.4427622542973575 5.9489739493796465 10.192200157000084 0.5922595267394768 -0.5878148607045619 -0.2970984264857528
Ni 5.383169362974568 4.51460438056296 7.891351394491246 0.0409522740426456 0.8723045972873686 0.3540529894939257
Ni 3.0733830783538565 8.8104852879324 4.056334401849997 -1.3547800759224669 -0.33123881981288755 -0.46064732701641314
Ni 6.946575324514834 2.75974429439096 7.484329079513369 0.9126727166917701 0.07629362965641699 -0.45492276582781005
Ni 7.806637553439467 5.466720152093069 7.518964729397041 0.9111753062106371 -2.6083656451817787 1.214410184611431
Ni 3.1921831464911743 5.891252452407122 7.187269288999993 0.34779106774461394 1.8063884326650634 -0.9950912282990022
Ni 2.334606620042236 1.1604011287924791 1.852358326155974 0.029818111802697035 -1.2562574596645202 0.9448521296377922
Ni 0.4292688935186627 5.161529087613995 1.3844161213890585 -0.7852709555056282 -1.257554324099073 0.19771911865446593
Ni 1.1588693490380835 5.033263170934545 7.805285551428702 -1.154241999761967 0.2931301858666242 0.7603407679228518
Ni 0.7074538554176949 1.6868564029439213 10.935589382009223 -0.09255842825471157 -1.369918217115486 0.8562439442800802
Ni 3.044692018043979 1.1405888876577812 11.729709868357203 0.22014530886846603 -0.3415461152761667 0.33815868686117245
Ni 4.578150309535731 2.468064077685687 1.5258846954246594 1.2890253981241606 -0.9987319103753833 -0.6476757987262524
Ni 5.958971793285582 8.190573104095106 2.9445062842394187 1.0522008288278006 -0.8995171531464187 -0.5405893520586947
Ni 3.2095096851501763 4.342733188719456 8.988492771127344 -1.4593566116839771 0.15789093091393455 1.852931570531925
Ni 6.617499502667818 4.536883979505636 5.7751050232217285 -0.27421560835030834 -0.7201415699961469 -1.8292643088219722
Ni 5.118951113842112 8.621535210444078 8.07897423527022 -0.024068610913429517 -0.7981498683508255 -1.2409876779896434
Ni 6.616784060626843 2.9240850001365066 11.820017915829377 0.22104339520270316 0.2539668854036013 0.4700704201025259
Ni 2.348539395173535 8.831058832777366 9.783553421695839 0.13776536380865306 -1.6163862230388806 0.8671022271508226
Ni 3.9191823281282803 6.900539380878238 9.316295473034778 -0.11045150648504849 -0.9635463636131857 0.3881072508651574
Ni 2.578544839013203 1.6569912839001364 6.803015458359459 0.5140537676620115 0.09969272530664765 -0.2227858318151066
P 1.439625316117697 7.482863340562755 8.40985058625369 -0.2210480231883935 -2.0383322768303542 0.2168113593992266
P 6.285020744959241 6.416561184826232 8.846970080321977 -0.11801286377207416 1.319355673676586 0.42536073589997714
P 4.865446150656568 1.9401045407814246 12.650224198044084 -0.03845239043892733 0.07554029643016023 1.1703188507191715
P 1.0080211463986204 3.5922528324041902 9.921424606392073 -0.602055429783976 0.6151847680770824 -1.062456445117538
P 8.459845309183683 0.08206945720032809 10.193408153369269 -0.8650363457607294 0.72523055448328 -1.1721885569380588
P 7.093947212621865 7.284768446217353 4.985494573432048 -0.04483078316144537 0.4324603230592358 -0.34415707053645245
P 5.547785238735875 3.3968637765470917 4.082714034027493 -0.46125847823785077 1.1311552931458326 -1.4204954158424052
P 1.4238122125453734 8.54745026986771 13.272053399657837 -0.6616980811472732 1.3061669429004537 -0.5299830372977582
Ni 5.545372914931048 5.051983904340061 1.2036431795357287 -1.2052719697555887 1.3232501236349856 3.2662168417791357
Ni 8.911316754040609 4.299953423602683 3.8180344165019466 0.4168935789692304 -0.35381130579676484 -0.7994914699803845
Ni 0.42357837759275224 7.763775237317966 11.30507575513732 1.164449536422588 0.8654564640172837 0.9966837695971029
Ni 7.401779909252233 4.686411366069453 13.608555142996819 1.4733367280131529 -0.6528851108413336 -1.3057008018973124
Ni 6.219099181517077 0.9113869402641318 10.512766804726423 -0.25534114004330866 -0.17781312375915828 0.45492405137939074
Ni 1.8525454417666907 5.646681342399908 3.4060049244706287 -0.8736742239413857 -0.34294890916096427 1.4245724141252563
Ni 4.285387757435137 5.236375331900631 5.064296845311922 -1.7533851409951544 -0.7847189396569001 1.3240062850747196
Ni -0.21430149104026214 3.665714054278169 12.125616231931776 0.5403893202327468 -1.5275687498838402 -0.8201865364358907
Ni 0.9278090868046703 1.6717312244109972 4.74351556497329 -0.932213100717543 0.5054035481861812 -1.2709790821454112
Ni 7.136149120705544 0.5476497859986398 8.265992619247909 1.357879797893713 -0.663018856841226 1.0359763965491384
Ni 8.587148130807975 7.143312713449154 9.183499340662536 1.8756994603560602 0.9873252112003383 -2.607581972938219
Ni 5.526523768851509 8.919681922519704 12.811548123183519 0.06813012000901815 0.5977357193626996 -0.15983545623481507
Ni 8.246992129659702 4.95894892201171 9.926324467139368 0.7242573919367333 -1.2038740609667975 0.39991889878810477
Ni 8.570692963865545 8.521868630735918 1.2454277464288381 1.1282095802539474 1.3336440652747998 -0.023888633692139505
Ni 6.470522024916709 0.30344006594545675 5.985428473067491 0.20357943408998486 -0.8209226432709669 -0.8485437474223451
Ni 4.2160632581314115 3.138607544422762 10.789193430224751 1.2268422397271967 -0.5181441356813011 0.030842439302153336
Ni 3.7842022630642926 6.8354066381479175 2.7947816924976414 0.4505182090022112 -0.20291840346721826 -0.2594294511800693
Ni 7.472140882281987 2.4710450861897497 4.664685776091839 0.8234940035425689 0.11208955630910374 0.9301441340036563
Ni 7.056624986150992 3.0330981880466377 2.1820275980036445 -0.5710661804913132 0.9633720428188506 0.5181022266997722
Ni 7.354533217546294 7.1647484576768345 10.881608362784258 -2.0205335580860364 1.0908735628076502 2.3475565400453635
Ni 4.675092706087871 4.430916006436579 12.753660606968152 -1.0924848731588281 -0.13045648885206565 -1.3898095567227742
Ni -0.07671373146025862 1.8988473830851882 1.9595141164597272 0.5269465644642796 -0.47783386609802864 1.509135225769001
Ni 2.112296764309981 3.764298298591008 11.949726640624794 0.48397186067496656 0.278575685091217 -0.8161450193766654
Ni 8.242066586377604 0.36906352853721386 12.316984136625239 -0.8974877814212157 0.29662122973901817 0.9689608497605375
P 8.117542981912484 2.2891668781064523 0.11866615206298123 -0.8054075783545032 0.28119152544750925 -0.17036926588660334
P 3.4032202039111406 5.34015111717747 10.99907385634514 0.9689161125655313 0.7911245860729278 0.594579433121905
P 3.385003948867849 5.316715804168603 1.0669689844080474 -0.7997542367234678 1.5874713397767435 -0.4155285803009037
P 3.48753229673991 3.7780934887144277 7.019729273204548 0.004382702448727936 -1.499323896105534 -1.961120249124726
P 8.530674071240227 0.9198566733492152 6.57711922008847 0.0634540546895875 0.20108829223701494 -1.1429646270759348
P 5.533824946603 6.821134486663849 12.283194175923336 -0.02697987102295353 -0.1342257260865108 0.8495058542252982
P 4.334074505556885 0.20809640718488107 2.2188380082452044 -0.35411958106580305 0.09014879037195442 -0.4429421964271662
P 4.200727115919738 0.32766695136632584 5.9396236722441325 0.5178433166114308 1.651885187276439 0.04082063356078776
Ni 2.689319115024196 8.357436201651783 6.938402775046771 0.5989472231722975 0.5074776571063906 1.3816236784778722
Ni 3.404733638997819 8.09907907385501 0.7123904055004237 1.1387518745461678 0.5036479989476551 -0.7623310588800032
Ni 8.621443487105491 7.013239846999547 3.051178692548821 -0.7571855101233218 -0.8143547602454619 1.75453108167414
Ni 6.02015126012282 5.360706317354719 10.737307372053104 -2.037728581808084 -0.8814914059929592 0.2220931766234562
Ni 7.432709019023622 7.149733347150214 -0.08234095828254431 -0.4165210261211601 -0.8108966264935324 -0.4158705370213548
Ni 0.38519674656120456 2.7412436969980503 7.801191021594197 -0.09593917180148638 0.4058319218384301 -1.4316671161885086
Ni 0.8331267533153038 8.698408540513476 5.343207338819174 -0.837474634092377 -0.9811262814784779 0.24265814525900145
Ni 1.8740362199975225 3.587850112152035 5.53081642109736 -0.056241338991232175 1.8166355643143681 -0.030903888667708067
Ni 2.586203737785181 3.2822646373170388 0.7609780924164984 -0.2077235381653455 1.6810150147628595 -0.07772676255851775
Ni 2.3359366084517412 1.845033300336451 9.408013308221026 1.315778754958605 2.300436446629109 -1.3018855419162805
Ni 1.1908532772032183 1.7376803048547367 13.298433031835332 -1.215783925030506 -1.3026134212212406 -1.005411636388404
Ni 0.7077923145370792 0.45034049609215404 8.222832202276 -0.7799323169015342 -1.1478366104562554 0.22849213817126454
Ni 3.4105672433319243 1.9432506512949437 4.009080372276971 -0.5230320599012217 1.1294840760909968 0.1279190671421926
Ni 1.498970316183204 7.131269439092738 1.5536603568154426 -0.021865689724839762 1.243192398950446 1.5323384033583416
Ni 5.867945552072276 5.8040419020790175 3.6505751172444567 1.1844298361992571 0.17497899674447284 -0.18960034620207347
Ni 3.661311334026014 4.230445477621785 2.9575420051193415 0.5113983323170354 -0.5082199345890538 0.10154134847961221
Ni 1.7794878025824925 6.440170772178414 12.808835864061514 1.2073874734366947 -2.017087508518965 -0.673294527735621
Ni 3.6903692876902374 7.866688823212091 11.624756355412913 -0.5743173404387593 -0.6642817827140495 -0.19045292401035588
Ni 8.132163682083183 2.415488260007868 9.609208451410655 -0.5164027275101623 0.13310035423281594 0.5839623197276911
Ni 8.132814917787147 7.4833678189249815 6.945142605966111 -0.018723287441116142 3.3840952368558748 -1.9357948829860596
Ni 5.721316623007795 1.261489420248731 3.4986354068758136 -0.07126249499041275 0.5047715710291371 0.2014114799043886
Ni 4.642760229236107 2.368828597668883 8.467348278280063 0.44938538094934866 -0.5280613947950131 -0.7046110784607156
Ni 5.0695947853486825 2.3291215643947596 5.825447377604964 -0.6588654967944846 0.4342287278135683 1.5062121385849352
Ni 4.82855502387705 7.660137037049007 5.119485860906073 -0.20691672599333394 0.1674549204532858 -0.9866544103855587
P 8.750434018159776 3.956036765572361 6.017687571248385 0.2858004849744304 -0.4844955943889205 0.7722835421070248
P 2.3031179979054683 7.022155355510162 5.399483275975575 0.6904651259776367 -1.925624370210961 -2.2033708745326632
P 0.7224827244451033 8.781454851269752 3.007642209888709 1.054060764854675 1.2771638707998842 0.5857340669161332
P 8.999215229408113 5.696835663939041 12.02008486195439 -0.9896134930138828 2.0932309857507625 0.6978097392681659
P 6.268859092700288 3.514682404961533 9.67901633270873 0.19993155292475245 -1.540748738909224 -0.8163424800994522
P 7.434589347464646 5.36452200823992 2.3016274936534367 1.4348997641931933 -1.0426147278012625 -1.410395608404242
P 4.251890394183324 0.6263328175383519 9.544031681477815 -0.4837831417029281 -0.6857954884161093 1.8664126357374953
P 1.5890518070090685 3.146908506564846 2.695828720363685 0.09522851888770698 0.551950799818101 1.5059699406671418
