# total energy = -340853.7040210847 ev
CRYSTAL
PRIMVEC
9.40327190029667 0.00000000000000 0.00000000000000

0.00000000000000 9.40327190029667 0.00000000000000

0.00000000000000 0.00000000000000 13.76263892336907

PRIMCOORD
 96 1
Ni 2.1907837334382743 7.153689690373475 11.158954194004725 0.10192778528475349 1.4273625752758836 -2.3900923565250447
Ni 9.719504124344061 6.209554156763995 11.83574623931683 -0.5847444493093542 -0.13458542341877466 0.6567625915188688
Ni 9.43966274711964 8.53615875218579 10.80989250998722 -0.057312203457907746 -0.6933838422863284 0.49968130099042324
Ni 5.5852239067365925 2.7437807614352847 3.8511994131500553 -0.19710051123386055 -0.09797368573301192 0.5236311269378014
Ni 8.929318961296351 0.5007374030621163 6.708075208595877 1.2892573116293087 0.36079390776218506 -0.7758116098649412
Ni 4.513410744768471 6.2552352525488155 10.582216724976849 0.21298144413017514 -0.29968958425169673 0.6219609104586514
Ni 7.850227666735095 1.7280675207212262 3.9077083767397784 2.194919658441517 1.679663642941288 -1.4360734727863202
Ni 1.8876128381730666 7.121041529697291 8.419679480552166 -1.3747662892364068 0.14488886222731176 0.09635131963824052
Ni 7.154761663391067 -0.3818950891537449 7.8192570497987255 -0.5177826385768244 0.736993351446163 0.12724183856950988
Ni 2.790214118986837 1.4257241133994238 0.647325951909201 0.8160452605740075 0.06062738387406978 -0.3840878452931192
Ni 4.558264352609886 8.662303647194715 11.233616174352907 -0.5058509201362449 0.5527175027807965 0.26171181945634286
Ni 4.893904746381677 4.005342550789549 7.348465307015806 1.9895178264308122 -2.3876760337740683 -0.4692319833616306
Ni 1.8109949772313803 4.654704311104969 9.927376618345201 3.5899354419555785 3.1858747530849585 1.9596174393269543
Ni 5.751812274979464 1.5233018678166896 11.645092076828984 2.6450334329164575 0.843790806118392 -4.981470466009892
Ni 5.412561024727358 4.37860543617004 1.7563741906761552 0.17186796191931691 0.7493405601576062 1.9859985004236438
Ni 6.7888803465966365 6.160769981191405 9.481783764093398 -2.0588458234026734 1.1487362394523892 1.4694530766880305
Ni 3.725059219777172 5.470466374221578 8.505187194922213 -1.7164946957267084 0.6347387789496101 0.496965444721157
Ni 2.08435749998982 1.9735587450222338 10.130926428169259 -0.22749300748278883 0.08135638889130505 0.6390893426088219
Ni 9.008193607538233 6.130246960006241 1.5577658003323223 3.364449694710806 -0.18850762735852697 -1.275281566175507
Ni 7.340222398706836 3.192373259481934 6.016984547752606 -1.7578483189728307 -1.848740929489345 1.6375083497294767
Ni 7.7591945896884 2.467418594882 10.760182112114341 0.6145720741937479 0.25453715608477456 -1.3461823069511267
Ni 2.0085201106311183 1.1164881076399367 7.77905618098455 -0.9347993733874804 -1.2548803768113357 -0.39740590255826397
Ni 7.747976486092004 5.754257125721344 6.634252940444809 0.005958017355647804 0.30158962948788703 0.19459008610718098
Ni 4.3445561879533185 8.233523843429378 2.3533700690821298 1.4763613737720895 -2.0375234077758138 0.9491504999028297
P 3.418672405459183 4.695439285773524 0.34002513954463254 1.4132783292686757 -0.5430686668371227 0.6231973539689138
P 0.9424805577226676 4.926054533637401 7.722850002755937 0.7451242080834135 4.3046671537900645 -1.5609609521910406
P 8.046840682742669 2.17232511033708 7.93710637817501 0.45948390283593127 -0.07659059207154552 0.5092414338750326
P 5.652194010519937 5.987053932708744 7.716188724811522 0.5117359181621122 0.27124572708870703 -0.6200071291663903
P 0.7244986059038525 1.069960717367543 4.016722390665792 -2.368645499505179 -1.3201342037138233 -0.8770549674881605
P 0.5554512820109746 7.398278200554402 0.015555833008815901 0.3514952560690785 0.23408428754706137 -0.2747496264769075
P 4.5280516394034995 0.7770741807807741 4.0348481379352075 -0.7050425095711794 -0.3704738540541104 -1.1526034357172796
P 0.3529969533847229 3.613122668887403 11.173942069379658 -0.8029598881449591 -0.2745141134273337 0.6162245221955064
Ni 6.948312824783468 0.3483564386111929 5.284770557103705 -2.371182921215052 -0.45389098212918605 1.0073641321290845
Ni 7.662942696635 6.075792611366905 3.2648010223829216 -1.2289073497863416 -0.7247369026763131 2.0572116302333603
Ni 4.066595465145728 7.516477330652219 4.7432107289426515 1.2651897291571437 0.1329910823484613 -1.0682522258637086
Ni 3.7563815190894885 2.3724831599203813 8.43440594496316 -0.8613547831440844 -1.3962177742419632 -0.9436215996648006
Ni 2.349012592798333 9.711699408514212 12.114893655061442 0.46090803687696746 -0.5509120741409416 -0.09540438234393891
Ni 3.373894023794442 4.902640386147857 2.634471484765829 1.6272856435602039 0.011493602461896336 -1.1103280719878361
Ni 7.197725213543567 8.227881880178886 9.888002297147223 0.423461204884419 1.8116339973347189 1.8729458088703226
Ni 5.278602010616501 7.772171105164533 0.06327085654543836 0.18701047398771017 0.476385049466644 -0.677373068680369
Ni 0.5503189761074434 8.443931459584409 2.209219788686467 -0.9840264858444085 -0.8897017097178935 0.3409434486951612
Ni 4.760538138412122 5.315669709172235 5.6361999850319995 0.3691865027012545 0.9655109435387242 -1.9613480488648154
Ni 1.0492735187824043 8.165970736776817 4.5454006763987636 1.7079000120791619 2.2658592228748717 0.8997799198895019
Ni 2.0992522829711198 4.232064844010585 12.38069124542818 -0.4870145041560322 1.5896855738192428 -1.2824454309137978
Ni 2.2926587831979988 1.2971437709207028 5.14769529862416 3.028014161188327 -0.8691238855665419 2.8052005614590785
Ni 7.526096877994307 7.958929492027915 1.5043392293317845 0.19368351513251159 0.9328887866283289 0.4807232718306818
Ni 2.393217374865941 3.783265473978085 6.757345533335219 0.7435188112695066 -0.9581573313871306 -0.5733346648105158
Ni 4.027402627098974 8.061810691900643 8.629257728109373 -0.929437851965251 -1.6581540510042865 0.9087510130398608
Ni 5.832567575638179 4.11237059365139 10.851827342173712 -1.7409685124983565 -1.2194670303090482 0.28593006857375913
Ni 9.31493774619542 1.086952430023609 9.442753602653701 -0.27694020637032307 -0.24118258915473947 -0.7246348298808101
Ni 6.967185191856364 0.4562928375563627 -0.19462328363456824 -2.183114695386789 0.3347748579906041 2.121838107964494
Ni 3.080897468924289 2.6988143143288603 3.4674556407045656 1.0027852545091505 -2.9147868917303543 -2.004386516012529
Ni 0.6938326549830096 0.1888675407918576 0.2550929054261371 -0.32699984203087556 -0.8330952740777589 -0.5477886980206114
Ni 8.626533600186594 3.834964663896763 2.289855667789712 -0.11700627688443074 1.4949617624820963 1.2070768841748114
Ni 0.636249837721276 1.8903774001658078 2.0514451073680724 1.4169303241989661 -1.3088182644803716 0.821422722835837
Ni 5.010495916953103 2.742313850990157 0.46528330599602225 -3.067432257974633 0.636372200787975 -1.5794379279493058
P 6.193089027344642 7.33568061829019 11.697775789334873 -0.30586948781016354 -0.33773754016335383 -0.5105403551921143
P 3.101142713721472 8.323127623119282 6.371716404836856 -2.087789760130533 0.6101297221516784 1.711569233400633
P 4.759231083592425 0.99624846749986 13.12036391149423 -3.5698551262659355 -3.625487628028576 3.6819271990735425
P 1.2671755427885039 5.128704450323003 2.8373884543786208 -2.226483806401043 0.5698875868021799 -1.1948939689553744
P 5.415015278741322 6.268681931629156 3.300473275361368 -0.6216909446267164 -0.44223308617528356 -0.4992496127696434
P 4.870114468008768 2.090140512321575 6.19739854694081 0.5188385906451645 0.5306607800910731 -0.04258338188816537
P 9.391847108571717 7.579554479792723 6.836109220966509 -0.030594584957405378 0.1735389218638366 0.2012520715083889
P 7.142245908247059 -0.11548628610153691 2.9380617659659896 -0.3990956315558611 1.7804061496686885 1.7034900559369244
Ni 6.809398286284261 2.196557342497945 1.6292767442051048 2.9046356622289653 1.2386240628534733 1.3798732714456687
Ni 5.966253894858596 2.24206917938525 8.864956384861943 1.3103478137510207 -0.757272156299857 0.5514674324237793
Ni 8.799685452344203 4.415165358033231 13.141173352616464 1.846225619266659 0.42200596049513134 2.214890702246805
Ni 7.2313795243327545 4.2509184045393145 8.75412565876927 1.2540527387037177 -2.4660825960084303 -1.8173390181392959
Ni -0.34136040418058244 6.205078199251939 9.372673836792126 1.1687569055486902 -0.07725265113557664 -0.4197369619552965
Ni 4.84096432454789 9.351121537175246 6.966290000353952 1.1517477725852037 1.5348118045994987 -0.9376944355470883
Ni 3.6473599825458076 2.664069223977912 11.946534650685123 0.22900610169320562 -0.6208892746610275 0.5124370579941949
Ni 7.76442280896719 7.8498703423958975 13.048674305451849 1.7425266010140958 -1.333402381577639 -1.7133211830947332
Ni 2.5228038674576667 0.19228092855840548 2.695894598346731 0.07610979578038506 0.7329436068568216 0.8490836790862151
Ni 1.0105038279794374 2.128637508234101 12.843748796921883 0.7279006451162754 1.3154020883454765 -1.0221842278610525
Ni 3.2836978379632376 6.332840457059338 12.792097563690835 1.570036689240064 0.2683532360322604 1.31402114883755
Ni 6.862968727347686 5.873772713910942 1.0819263810946287 -1.3064451362625047 -0.5439443845738567 -2.247234922905465
Ni 1.6456290343594484 3.638464487154198 0.7185830074357112 -0.7092344361653399 0.5188270206809388 2.713394437989359
Ni 5.213296285992052 0.7941176114333032 1.7386621873784425 -1.2653992740647884 -1.4042910381684008 0.5237478550213238
Ni 2.603681410653475 6.203357400460538 6.281419603994351 -0.9770353992385561 -0.6356080689284408 -0.42920787756020923
Ni 2.452721280614467 6.95178263218252 3.017183718263687 -0.9721042804855259 1.6646129192557526 -0.27222480317252473
Ni 7.794550892724819 4.776617733676026 11.212546262593944 1.7753505895226522 1.9514518727970265 -0.6569837063907396
Ni 2.8430699113718663 8.2868592026907 0.5851242473997308 -1.0453377831593804 -0.22235311515306225 -0.5546275753193157
Ni 8.592606594506966 1.0079085248842108 12.327677478072138 0.12890945607991994 -0.6483921080669867 -1.7016139219601338
Ni 0.15299969975406072 6.186948690673689 5.029336312900914 1.2261858370901204 -3.526888907117055 -0.022989518916637825
Ni 8.199907145728528 7.823625810009022 4.7521983764006865 -2.240063859078323 1.9137235050083168 0.04581423012063723
Ni 6.957462208521348 3.0844519057720987 13.125993650491015 0.30096485141969453 -0.6521502895578382 -0.9804601086493888
Ni 0.5485144881944942 2.9639771838299183 5.326512622212474 -0.6083242935118233 -0.01661472573854558 -0.141110369021486
Ni 0.4474434181979654 3.499700401008338 8.920915257034743 -4.436471672029591 -5.5581611917768345 -0.5118860705867313
P 4.015009114492059 3.646325622616551 10.017838916776387 -1.6429863421249122 0.9859596983113793 0.01867237959852268
P 8.751305617471232 2.56500575257135 0.610785776917387 -0.9375368269233014 -0.6165960466023123 -2.193264639336597
P 1.9917352699609034 9.048947388750959 9.984629380756783 -0.1582585986659984 0.583834278790259 -0.5282354584790321
P 5.0825719974781425 0.28337700752806383 9.304026189268969 1.6658046255710086 0.9107474746445992 0.4005953560298391
P 2.4521194712010814 4.2880895390879745 4.440791155116968 -0.809088112529884 1.3434505098422604 4.238851283736519
P 6.376518655890233 7.714181126221555 6.26025283853292 -0.22719193130260226 0.1935845276608021 -0.6141216169198906
P 6.031484393306371 5.011953424126146 12.880894542635916 0.300005829940535 0.5515682196677016 0.45865909294179075
P 8.242682630439345 4.256786046319826 4.610965931332736 0.6837051815459838 1.6112543011289542 -1.6764374226945065
