# total energy = -381173.8106504481 ev
CRYSTAL
PRIMVEC
9.17916592751529 0.00000000000000 0.00000000000000
0.00000000000000 9.17916592751529 0.00000000000000
0.00000000000000 0.00000000000000 13.43463717922769
PRIMCOORD
 96 1
Ni 6.9229913008330355 6.066887198559398 1.5968545425175704 1.57185265940288 -0.4910511361192511 0.34774504499802694
Ni 0.830476788535108 8.07175475477599 5.826991529268326 -0.15121017645964924 -0.1426301481001221 0.3971801597007031
Ni 7.9682045823900305 2.188028635889444 4.682455081298578 0.4096955185588944 -0.3150223579540252 0.12441516775399217
Ni 3.961498594758491 5.887048977002291 12.155539117776923 -0.3475390996348079 0.7797855069110249 -0.032880552778104664
Ni 2.110180128487146 8.196251784123634 3.744730752286289 -1.1301587335605179 -0.006912153738800999 -1.6748194274751091
Ni 7.951287379331141 6.098279946503727 8.499772842998366 -0.6352802532753768 0.6449314032118957 -0.3170064782635895
Ni 5.7958080663102916 7.351961268576415 8.29861600825392 1.0356429244691194 -0.16539058172508933 -1.68886099316984
Ni 0.6137787077250041 0.15163431590396437 0.38342202780929724 0.6775404474961687 0.0673670165907485 1.0362751587364798
Ni 9.13614331424401 6.55817452472209 3.996213282901959 -0.13783324093211102 -0.2689055089913046 -1.598231406506725
Ni 0.9269580851339542 2.6845664450416558 8.55081084215628 -0.6051469242251062 -1.7602931809688975 -1.7353640218273854
Ni 6.515895285823966 3.0758100402554454 1.3369886795341936 -0.6432774125482404 -0.382731845485857 -0.4924117639122036
Ni 2.8888304274993066 0.9857965396144082 13.433038539956613 1.321841159102601 -0.3504498455236996 2.3487742145025483
Ni 2.491455149353701 7.930698509846016 7.949435941535712 -1.0658438735325322 2.7676403438171175 1.8749425275853775
Ni 7.509310533272817 1.625593593552337 9.420716738526144 -1.034064010017774 -2.162018793948438 -1.7986830936010056
Ni 8.441867909706783 7.407550298269649 0.410819084765274 -1.3427336862808938 0.10291688867090017 -0.8777267967442045
Ni 7.810267851065429 8.571780647033128 5.098511798220879 -0.38481135372270503 0.4324793492226293 -0.4796866030360514
Ni 6.807627541720658 6.38809375669271 4.798409060788974 0.5607131193917634 -0.3001233293550057 -0.11073304228120931
Ni 0.19958168984759173 2.3713549405514764 13.389766115290191 0.37082352408404523 -0.17455219361969937 -0.49284653745677703
Ni 4.257765358691586 4.129559946253441 0.3650875615098809 -0.8018324594087352 -1.3843135666052093 0.3708644046243097
Ni 1.7307960158301035 1.2999076023790157 4.709014998309372 -0.7049828599778375 0.12239402355890534 -0.9167270892668018
Ni 8.824070026345964 8.382331838605344 7.998539890403604 -0.07016617660244046 -0.4796228396776514 0.13251568537393954
Ni 6.94393815779472 3.7506256127336135 8.904558461908726 -0.19615563082208798 1.2310161685992282 2.4709579218228606
Ni 5.495759485958173 7.675361647399403 3.371032215090275 -0.8887506586585339 1.129550410552558 -0.023495769129095016
Ni 0.7094797752082748 7.3438193482762335 9.827961456025475 0.021368181263130944 -0.16439170814692977 0.6902506959739854
P 9.293722058092053 0.37405285300614605 3.3410328645547027 -0.10156654529059284 -0.4833383408560256 -0.14071390491401572
Ni 5.848478121194668 3.066814457511164 7.044586795787346 -0.14414941295812594 -0.9439105916601293 -1.9910419763848224
P 2.0708657602282092 3.720040631403056 12.536571808659348 0.31747904702463386 -1.213856111880174 -0.5861367016711905
Ni 3.1274612077065393 8.728524086769202 5.576946456058527 1.2217391141726766 0.3076090962090896 2.343274367730242
P 6.7210680057221115 0.21110888659276397 7.24708654252719 -0.4578641078443212 -0.7709074876951046 0.33174944090071895
P 0.5822473543730841 0.384430818159906 9.777178637684187 -0.04941454587738586 0.741678158516342 0.3022866555549117
P 3.9947088175838084 6.8898820488344406 9.511736431315962 -0.4768419344984045 0.8651222206063166 0.5591522026625467
Ni 8.832872846602868 4.242812497170734 1.1918137427905875 -1.9627256459386326 1.6353619928104353 -0.4861524132660531
Ni 8.580216300647407 5.731994503822286 6.10949505160267 0.5624013057274637 0.4697354053606103 0.6787516941954505
Ni 2.882662027903228 5.869213857336843 2.852159659067261 0.8093675914435159 0.376757373069977 -0.33876418165565525
Ni 3.423296550834551 6.2726932809160685 7.104168762719113 2.235513520703479 -2.138887350137297 -1.408733904431103
Ni 2.211040805215887 3.1226788621863655 10.136903730378547 1.8677984603414284 2.0432993910276425 2.7394895924145146
Ni 8.849358628856674 4.43115062650458 12.472811485334523 -0.24828397608621114 0.5247508423645414 -1.6677342384935534
Ni 6.940413358025532 2.58115396014668 12.267798482925919 0.32722712755033323 0.2692343530856331 1.0084807622320309
Ni 7.863240818429969 7.900581665984804 2.6667221462101427 0.20313206213992113 1.7288683868007129 0.25106205305198054
Ni 5.379799081051532 7.891374962421014 5.968243290435498 0.35078845981004103 -0.513081119336097 -0.5549952430713797
Ni 1.924999632279864 4.3188068130277815 6.606294466987751 -0.5730328172993808 0.11025353154162948 0.6207157251976406
Ni 8.776944187765206 2.7546310196203305 10.714982825441245 1.517591326956154 0.09158629414942937 1.2533631688358609
Ni 2.703062464663827 0.9994734970521423 9.305649466477684 -0.521594813234063 -0.7097838809109066 -0.7371638155857562
Ni 4.553105026852054 8.437085564186608 12.684030521920073 0.31119707067066404 0.5134207620637029 -1.0825994957243161
Ni 1.50491509728798 5.515604842991986 11.414068112996842 0.40838991237359346 -1.1031806623097775 -0.30657139897319463
Ni 5.962015226259992 8.44443807620515 1.1199638204121547 0.1300127164464277 -1.1924030842127205 -0.007286249248768096
Ni 1.8128577604565088 5.982833574896759 5.088664388865711 1.0197725330957663 0.18224956226395708 0.0107873204234911
Ni 0.2718024505350744 4.03247190677766 4.527445586032295 0.12751257573239327 0.8468825576698382 -0.09524908771299725
Ni 7.543401956040431 4.000822142183494 3.1019367006279444 0.34583600090077216 1.1250268116505917 0.7051574378824889
Ni 4.804843656200955 3.8250319328613136 11.339169789568027 0.3650539685901197 -0.2094613467920586 -0.5049782877233046
Ni -0.019919708278944334 2.423116257995358 2.366310070881826 0.36331615996340655 -2.3492578390071865 1.1749537783880215
Ni 5.968312134180989 1.171032110818084 5.413473769679767 -0.43296040262410596 -0.10124747138827725 0.5976117921903257
Ni 1.2636407172538562 7.467637119335023 12.426246493800372 -0.6962850750935234 1.0753078471589093 0.5673308818185971
Ni 0.023957623431198893 4.653598536938172 9.619388773016636 0.7878551712930367 0.6453026705083854 0.5916108374118844
Ni 3.9568172200650387 1.6167724149633016 11.171210326816404 0.22144808684028955 -0.46671770158020914 0.8999380427339212
Ni 6.117941720216228 0.679745702571998 11.296179165299819 0.3311249199428426 -0.08275892566578649 0.44699476922998505
P 0.7737926843302487 2.661168750740458 6.058578217436822 -0.324279357775919 -1.4327881171668293 0.5528031205160673
Ni 1.6465496296800868 1.1931355427040327 11.817576909907478 -2.161583249072916 0.6153230934271596 -3.130104183082558
P 4.299466310127576 2.4232539454863415 1.9486139549002095 -0.20289680620066347 -0.507406437548823 -0.5915625006724522
Ni 3.6816258214185473 8.699205830355696 1.8958557800216047 0.01633601815586219 -0.9947623842046739 -0.9892036591699738
P 3.023709093667137 7.354375389251666 0.149285367307779 -0.6536507853627646 -0.6276767298965061 1.293631015216972
P 3.7769239235115384 6.842719493589421 4.678021544088896 0.9250078412183553 -0.38252410035042506 0.07330215112826086
P 0.8965383287925773 6.471816930376987 7.505447940192416 -0.3614739645483452 0.03134740396302989 0.20052496353437724
Ni 5.604073645532176 5.327404401149124 3.2249577200722404 -1.8198790109523302 0.9443425369912252 -0.030929856809637054
Ni 2.820418102812439 8.381836163637802 10.974163922636128 0.3825307852186444 -0.4663721453153323 -0.7202932650826628
Ni 8.359099369293327 6.584408581337556 11.592090695506174 -1.0891241842167114 -0.4111299370125758 -0.6377282005952373
Ni 7.799069268465406 8.50817820536463 10.162819269931537 -1.291249659468989 -1.5166739573482073 -1.0817800851468145
Ni 6.165627487926987 5.300711386230378 6.868673585639887 0.608085952248772 1.5015710402684979 0.43979696592996514
Ni 2.3975063846723517 1.391139333904949 2.4417719951070698 -0.6184991771622961 0.3991845917252415 -0.6023979007250593
Ni 7.522657040732191 0.7222535027051548 0.9659842275784312 1.8256207985321138 1.7264767466400848 -1.485019820778036
Ni 5.330773155095197 3.2571628242133754 3.7027342317029857 -1.231333442729331 -2.9633308620773287 0.5773273309096766
Ni 2.2382386742682403 5.749958131812653 9.232820127080052 0.4138144258232744 -1.7583381141250558 -0.8259802602995322
Ni 8.6509968501792 1.000070142846406 6.725003114214431 -1.2048374533213315 1.703835612201801 -0.6055084213295829
Ni 4.219726894515766 0.7579907499483297 3.9122872496476315 0.1725565033459093 0.5638591212199128 -0.52951072564703
Ni 1.7165499500963024 5.301454898681691 0.5181281256550941 0.8428955479976322 0.6073063937702702 -0.08896659713839516
Ni 4.72665551965423 6.319507027850595 1.2661805925042058 -1.454452232403824 0.3665817180885558 -0.9233849609029517
Ni 2.574168614770764 3.6399524074807528 3.897872287258224 0.41405302419664175 -0.5255008331566885 -0.17756552652472646
Ni 5.899036967883956 6.628165665972239 10.57535669458429 0.7678998112170323 -0.41956495515380643 1.5059236608102387
Ni 8.456490321249275 0.6283139171898713 11.828781917923747 0.3678801251850052 0.2903397676056806 1.3842875984632805
Ni 3.662322035182604 2.121039081942743 6.061197951431943 -0.14430085093432568 0.8695216352255928 0.06571225459614488
Ni 5.149053204494643 1.5008120100566595 0.005960950442996383 0.1777861271759648 0.2850358388942639 0.7806373133883588
Ni 4.942531147184857 5.022298100294863 8.942994383975186 -0.8897657301866095 -0.9423977545600286 -0.23988238228607722
Ni 4.4917055850393 0.345637826533495 7.483979706598205 0.17699705561576612 0.530970340911692 0.08276483920305745
Ni 1.2588216550694196 7.381720124961068 1.669764658576579 0.16441844761980715 0.21471256788866896 0.0795653584291533
Ni 6.387276810912872 4.926779698216298 13.106455744258682 -0.1734669309753206 0.6093578769826602 -0.09780502136563156
Ni 1.7057827883013612 0.8339501849743286 7.039078378231383 1.1116267361946017 0.2726960863819884 0.7644043964692642
Ni 4.276573469959986 4.720845107534709 5.468999463127148 -0.08073366770564161 -0.20588108563996801 -0.6340785196577918
Ni 4.825285659029031 2.3900070059967624 8.94018647707572 -0.7840867053895401 -0.4655185390657854 1.2584300418358068
P 0.9840433188958797 4.821696605097384 2.595356883799973 1.0410905778472521 0.534965321003698 1.6467015861929706
Ni 8.516898413126944 3.683296429642485 7.350600916165494 -0.7963274704301059 0.5032499921782881 -1.5537438656173113
P 6.760602673966622 4.110118472526515 5.115251843374701 0.16736287496011176 0.08046961541097754 1.1490663690982985
Ni 4.906539637041664 8.869773094186552 9.700936484343366 -0.8660246778159278 1.2193510735564743 0.7142581146321765
P 6.677255846091033 7.96239417027051 12.335119404767587 1.010076388853925 -0.02715830558234678 0.013811966182427826
P 3.3727009874809997 3.661541806067029 7.912585261448781 1.3681295006461793 -0.37664115920708685 1.0745138905027043
P 6.950831711509981 4.433059893046224 11.16126837205076 0.6641984789716239 0.43762232687614955 -2.018845371750336
Ni 6.583591635557718 1.1051715942974507 2.9914636011953135 -0.45993153189631114 -0.28778331973241406 0.5777914150302889
