# total energy = -381176.971132954 ev
CRYSTAL
PRIMVEC
9.17996954804786 0.00000000000000 0.00000000000000
0.00000000000000 9.17996954804786 0.00000000000000
0.00000000000000 0.00000000000000 13.43581335911424
PRIMCOORD
 96 1
Ni 7.960750086438179 8.17927925697194 7.827516601181227 0.7147949609722528 0.03470346491945636 -0.4887343150606164
Ni 1.0119722819630432 7.0435793480207 7.002409939447174 0.26064532586504147 0.6317246747136346 0.15662620526889798
Ni 8.77981449234172 5.792468864318338 8.438255372490861 -1.11918526526815 1.5604151069898997 0.11493422484675046
Ni 5.722802076871132 6.261895777337217 11.31444625955684 -0.7904725543112257 -1.011248040564523 0.9578079184675117
Ni 1.8498923449250313 2.4787569657292647 5.624030196578841 0.32200058904407125 -0.04369281290226023 -0.32208620677934213
Ni 9.076153083141985 3.7692678779101354 11.770484187269124 -0.7727746228108304 -0.9095346852834207 0.36347762524193533
Ni 2.940986782772573 7.574658935238475 0.7065776513924947 -1.0848818640005897 0.07208421956075972 0.3579407545841061
Ni 4.763522819014949 3.9468911049909066 1.8598792335880718 1.3503343814462874 -0.10822595958863943 1.5990083938820654
Ni 7.864461387856846 4.813939210721372 4.421497356720777 -0.7511359614951322 -1.1028309922798427 -0.2642824083969965
Ni 7.947732889890526 6.803743468610279 12.32788274663226 0.031957012522570764 -1.2271636276223574 -1.1574741335460197
Ni 0.6870849044606995 7.772505634811827 2.194041134131384 0.9463641954069443 -0.33925089148408666 -0.6104781066300324
Ni 4.092806717913995 3.2956548988646492 9.509398064938779 0.7844623435614038 1.6180376425993748 -1.5191370741767192
Ni 0.664620601448174 5.608079999821756 10.792410778149181 0.4643617997535228 1.1791089382069757 -0.14022899485779722
Ni 6.0763135168242774 2.2749708259821966 8.440539348866784 1.1972663258422929 1.7068011225880282 0.38335996598815913
Ni 0.9272503447710212 5.218729959500461 5.488233663877527 0.13284555790953248 -0.6881776154950406 0.16000797725693733
Ni 5.150495247272885 4.993334171887967 4.876877998627129 0.7342769809562644 -0.15634878323779525 -0.352843799677173
Ni 8.562900996414719 1.5457048803248754 7.615149944076548 -0.20960892811351642 0.012752414569661908 0.09505959741001048
Ni 3.1605716497823426 8.260852464674649 3.076828297323734 -0.4302504598921106 0.3071936059382258 0.05210880488009736
Ni 8.345758001253804 9.062061830179612 12.221497917752544 2.6620093986491637 1.1259446954791705 -1.0754063204099866
Ni 8.625985745833244 3.664460167765882 9.373696085921837 -0.4663178950386292 -0.44986566301987685 -0.3394041292324994
Ni 5.959553486577736 5.094157775331458 8.879150940749442 -0.5497517352842533 -0.5888659276768955 -0.7442639169656473
Ni 4.422147298551224 4.2641508459548545 12.296698390727904 -0.27275907840943997 -1.1158942532217042 -1.0653687336683266
Ni 4.31394299974503 1.4451107761152995 2.3999992546282236 -2.246168172203848 -0.2118797264255641 2.772928074578618
Ni 0.8871182727347916 0.1389553601569182 6.000071117326944 0.07116376462901938 1.3673175462678453 1.3945740679909528
P 2.1682628621811277 2.1379965032124315 3.2445206335545396 0.8145913017363003 -1.3620876653274736 0.1991201127670506
Ni 7.027349162198238 8.608626423779922 0.4336544084300969 -0.1362041899691203 0.3708052692516001 0.38345535391544283
P 5.510552005377283 3.9777908818452072 6.862569630244281 -1.7983735327803865 -0.9255981665041865 0.26554867670392973
Ni 2.797200922740214 4.088914410906799 3.6178883472260006 1.8966212981103918 0.11625500054070301 0.2244125687852522
P 6.347186872629347 7.599940570846541 2.177058190821682 0.5223730861609842 -0.788275546659907 0.2391403619137301
P 4.410810036395828 7.82351872452643 12.630054289961707 1.0815648838122147 -0.8244468543741413 -1.7249903919025453
P 7.66376889778295 5.534575985183494 10.38749609978378 -0.10916904022819908 -0.24554600832975776 -0.14474642311217653
Ni 7.7028663872726915 2.027680811454221 12.629610897441784 -1.2637565962550428 0.7674256997940913 0.2714578430995131
Ni 4.888847760671195 8.763538406672474 1.1642321717084756 -0.09784281658210245 -1.5298891704869007 1.9070604911658446
Ni 4.80097709398986 5.889253281244927 0.38449016454391277 0.2401261228657671 1.7001537924748396 -0.03894064292925552
Ni 3.4173996524718215 4.2801056326966185 6.421834711449441 -0.5071632111897653 0.9829553642674169 -0.7339255111541167
Ni 8.04701425848211 6.527141811926693 1.1849284126229205 -0.2225549467512232 0.6777507637347618 -1.183304464345562
Ni 7.860330401646378 6.609201558005303 5.845935759841959 1.4179263695636484 -0.03208633901158345 0.6726419817532867
Ni 3.919828555327662 0.7614435742460605 13.057514055069975 -0.9633378471468055 0.2728796631477043 -1.924252686674415
Ni 5.590739037707147 0.3393329772818827 4.369877471031703 0.866746643583617 3.823890660123943 -0.18724881525076137
Ni 2.9996376069918633 6.3274591184820235 11.64968313451181 0.5679201786631639 -0.03207682592988669 -0.4924498162389906
Ni 3.3313649796618066 6.753161837455437 5.135812804283947 0.1349806019746643 -0.4066171367438869 -0.05697693160567606
Ni 8.056781745877526 7.006593251482975 3.5880874127036844 -0.01632290552973963 -0.845488505535789 0.3893748047236713
Ni 6.427428984775351 7.3337581793826905 9.399802082778125 0.9624081362436845 0.42101377178519106 -0.7214307211212156
Ni 3.4553037459452054 8.963294539871997 7.624635606412718 -1.3064978438773112 0.6384370537368037 0.5279896610168132
Ni 4.263618407732173 8.041717416163353 9.986571036100754 -1.1404380039993394 -0.042865689015274565 0.008423705287320974
Ni 4.163767881040481 2.198529221149824 6.965904873303736 0.04325958201958356 -1.3925608942156664 0.6423782977727388
Ni 4.272715757364558 6.165377579521969 2.6958825189484026 -1.275255855143894 -0.3232581156002562 0.05160255466764016
Ni 2.6519187277027303 5.05445440786418 1.2553185816554253 -0.0669291577223815 0.364978635267494 0.6070713949413288
Ni 1.028982765180815 8.960981187594136 8.415682745839929 0.31521647624270227 0.3381949394157466 0.8654158405873353
Ni 7.690877347292978 8.90005373097441 5.591702934489589 0.09964875944258968 0.41365604586853927 -0.4750982123344204
Ni 6.500262861650582 4.314870176650046 13.464699857854198 0.2921932758746516 -0.7620703490194488 -0.01737294406080879
Ni 0.3407742324708683 1.5800104258104735 10.26569993834821 -0.23252079971468345 -0.38904107553333644 -0.30655828634707205
Ni 0.49706137477303924 3.4347314346170745 3.878408533590702 0.04997196104275265 -0.509314196094497 0.043287349933725454
Ni 6.233722451381825 8.634449677580026 11.408080111000245 -0.49236265584182304 0.5066795866851275 0.21904513382575178
Ni 1.1259691414332489 3.0698919124778903 1.5094999991793974 0.3567076535079534 0.08978832170874214 -1.3062888131902985
Ni 5.745403161427071 0.12666705317617916 8.05446104962418 0.2926653304150637 -1.2523588959410625 -0.45366163972719936
P 0.27591407697877685 3.410734994718933 6.828281526700461 -0.0557973094752781 0.22525743328405076 0.395112735648713
Ni 4.291204215648743 2.5605872125739593 4.633541796901039 0.9709891930444762 0.9231461054192682 -0.31919808659826965
P 2.7317018413809038 0.6258021830268734 9.913560903813877 -0.6149775371622829 0.21646297492087238 -1.2239854870046922
Ni 3.428470695515876 2.7476566281226673 0.6625431743827764 -1.8004718100703123 0.013712207379769933 -1.527983983044388
P 6.151589265548362 2.497823762082914 3.3866449191333543 -0.6309690274945327 0.19885503203112204 -0.6587017175231107
P 5.404431559615037 2.197528604489955 12.266816672475251 0.22419248235464617 0.9448464732108373 -0.3512540865925499
P 1.9985160488083162 5.948014265096496 3.6015103638968986 -0.9019687000107047 2.1848962127672436 -1.4085937793088128
Ni 0.20969712201578053 5.171801956149544 2.349439655399837 0.8667103910290428 0.059338232749001026 0.5197420762960404
Ni 1.9313921128728881 0.7619594885239012 1.4492812361940008 2.087425949033211 -0.33383126313041217 -0.318261176606297
Ni 2.971583620638107 2.3714706638587306 11.415818825167856 0.025521541309872175 -0.7072940246095173 0.7655624213331074
Ni 1.5864547642988038 8.714994728714796 11.370755273593263 0.7297896346088721 -0.8494965982539175 -0.08269901896212853
Ni 2.020768294528704 6.8289149445860655 9.198882847461121 -0.9124690853213963 1.3420986238000565 0.6222095361343477
Ni 4.74998236421397 1.3602235994748586 10.269744632846727 1.4816658167041385 -2.146387258058768 0.3689754151317129
Ni 3.6011000192666587 6.514464274245236 7.422655166638092 -0.06310644154218165 -0.4408200078778408 1.0218026761519177
Ni 7.803414591635485 9.134262289169238 3.1071120982342078 -1.3254052223047756 0.7935295959699946 -0.985966897400231
Ni 3.2738616516120906 0.5585589074898096 5.070500994299509 -2.164936481815865 -0.4363709709675517 -0.192252696223256
Ni 1.8879524978774773 2.0129469606368846 7.987442683336352 0.13722774613762817 0.015607110409637638 0.44482398683091134
Ni 0.7613380045984597 0.5509854327706182 3.538751503390532 0.6530116091168691 0.6461951004156677 1.2816869554812185
Ni 5.811324521376786 1.7675296598576544 0.9260514407730498 2.619755117965643 0.8254123036112043 -1.2582413228637683
Ni 1.6322628113882163 4.812259276329116 7.895367590689697 0.08764145056906843 -0.27953984877669924 -0.3881810415258863
Ni 7.436160737555516 4.516912122219361 6.8204216369373425 1.9824835452918501 -0.345241818960199 0.2480466632644244
Ni 1.9144091695631862 3.6086551340471367 9.866764174024759 -1.8557893516956943 0.7640578117631228 0.6642133913699593
Ni 2.0537335644882395 4.223125562900228 12.600763761735617 -0.43287607044041576 -0.36390108593259907 -0.5004816854045315
Ni 8.051962261965313 2.8479386133741187 2.008976623890157 -2.102414966242876 1.7477474830934032 0.41370309705639075
Ni 8.841733385651958 1.0098149891642432 1.104496275111236 -0.3373727006247674 -1.3167138651783643 -0.4601765580275817
Ni 6.655587943164181 1.843787665302895 6.134617338201888 -1.3675399466912963 0.6487142672930957 0.5746922072796747
Ni 8.85774325220986 7.946548673843525 10.224438730081118 -0.5504179081133423 -0.710432570238499 -0.8363693168433401
Ni 1.0029667320242228 1.700194584627025 12.56673086133991 0.507610583139829 -0.01152728391330918 1.059303244200537
Ni 1.028505406774272 7.55641833612692 4.7236285081850555 -0.3969037661108648 -0.5950743704804525 -1.5364575677330379
Ni 1.1682612602590854 6.345883316980711 13.290961593805138 -1.9034023255879673 0.0038697673680513993 -0.19123968157770938
Ni 5.526286472854489 7.452583702734465 4.088383808677988 0.6869296020205525 -2.939741247682847 1.1409180289595513
Ni 6.546952185798228 5.38500674445648 2.4920339554097093 -0.4031435763729896 -0.5234154113825695 0.3646055681987914
P 7.629490892205422 0.5455922007736181 9.502882122689467 -0.28420768656601375 -0.12028160520159285 -0.24429002443546957
Ni 7.974905599186049 1.9733904726793137 4.336476152527729 0.2877270125731819 -0.15964956547625406 -0.041684267112663695
P 3.450016083595806 5.356796698623661 9.483923649974226 0.6818627290206063 0.0030886662276527455 0.5232572885381505
Ni 5.8457035066172365 6.948915504015485 6.869274679862339 0.31136136416267024 -0.12485302662235917 0.4673874739537241
P 8.574366778141107 4.5290847615862075 0.313679552914876 1.106758352358707 -0.0593919688050719 0.4675476536806722
P 0.9475380770490978 8.586484337691813 0.021403098554902935 -0.26539878138962686 -0.26935468071358126 0.5188789569647967
P 4.61542237338499 8.41434155231693 5.918152742776425 0.6579861795133248 -0.6651914390125124 1.2126937161409566
Ni 6.236265302893601 3.3803951959953844 10.570598850573502 0.9575495225998024 0.35728718016050726 1.3725507696423265
