# total energy = -340861.3426991289 ev
CRYSTAL
PRIMVEC
9.26970553978865 0.00000000000000 0.00000000000000

0.00000000000000 9.26970553978865 0.00000000000000

0.00000000000000 0.00000000000000 13.56715105367797

PRIMCOORD
 96 1
Ni 2.9223025121447934 5.968216548999743 3.798110789811298 -0.11842912537388636 -0.22063279002784583 -0.5642815534693121
Ni 2.1273418261591712 3.045302236282706 4.537303072725211 1.7395184103153911 -0.772659694499521 1.677650469166001
Ni 4.280991076924824 8.173915196934313 10.040614220818062 -0.9483881678155086 4.548252181738708 -0.75129948365619
Ni 9.213596111817433 6.867155523149881 6.932882370990702 1.140507423784694 -0.39386317951232813 0.5461318791434787
Ni 8.190934376489457 8.09138700762089 1.5009878160605405 0.9995222674871623 1.261635179036666 -0.2236972878857825
Ni 7.6799696621982525 5.135778443111371 10.737098188936542 -1.1694469896371793 -0.1597837770612732 0.22364355182971163
Ni 6.819240414696428 2.7356199102596914 2.842141805651839 0.5408881142460362 -1.105609583466244 -0.6527712109712888
Ni 3.2834502438814024 4.160623949188687 7.317293356001599 -1.9078379927618176 2.0577433343671143 1.932845827660065
Ni 0.8022791185884469 7.117381957197572 2.8208010893273006 -2.754959405915339 -2.2135192758205746 -1.0386482869543467
Ni 0.4388658707934082 5.627990542892742 11.190634295875904 1.782108991292408 0.21641900905681438 0.41658093282481795
Ni 5.400678821187272 7.049453554267236 1.9764486307797646 -0.6248402888889755 -1.296691913530483 2.4112677050510793
Ni 0.09066328298313853 2.9666302445155446 5.9939399821509 0.8864721470370024 0.8479583072325203 0.7407024248666341
Ni 2.14839332766774 8.654883143774295 3.2031912785086636 1.3210559441971441 2.160945872599233 -0.6374345806142183
Ni 5.651368740516965 4.48311700840626 1.6906163303980524 -1.456409356130195 0.540823579556688 0.041860644789527904
Ni 4.449087919001611 9.15097925021885 0.5022354324899638 1.055749722521324 1.1414307069299114 0.3515772742599235
Ni 3.8978926822325604 2.6576987646493753 1.9449464631325957 1.1553432032459459 0.30803589933386305 -0.4169529714522561
Ni 7.04337262736736 7.208327039232168 6.81560761705609 -2.4890191501999452 -0.8601630768288284 0.47062912081947333
Ni 3.40403057484726 0.6651588518490363 8.379113108864864 -0.11927424698300103 0.9886814681179167 0.2225058386808426
Ni 3.8128616723963202 2.811334865927675 9.419727483105937 0.33612597270185984 0.4266804831526651 0.46948857945712696
Ni 7.6438456193189515 5.859075034793716 2.215909228697093 -0.13908742505418628 -0.8226689365381122 0.8464642391854971
Ni 5.362357858071278 2.904745689662526 7.608227702367598 0.6378027625869145 -0.4587107721153326 -0.24700768047694882
Ni 7.61574914152394 4.224241938996396 7.410363981539459 0.06847979003895303 0.0736001419846539 0.1906881799496135
Ni 7.973578318641409 6.402112930599516 4.646410289020371 0.6216387512325423 0.48092638898042334 0.9516904927158643
Ni 3.887631118089018 6.542975377505818 5.9842939264618575 1.018878046305955 -1.2858243746883598 -0.3816545532612782
P 1.394006143268646 5.3521055636333745 1.6122113061533248 1.239349371055272 0.6397202913246014 0.2976015913744165
P 1.0070608207357594 8.934735557047608 1.1826689052926855 -2.0798206258821277 -2.8697918150769026 -0.392001443713241
P 8.806359403638462 8.910819716496261 4.180120921061419 1.8520291133223137 -1.4937641426295691 0.8734150567427279
P 4.338491061010095 1.0847131448825142 6.176282507855327 0.19043389784696232 0.5847071683135155 1.7034358056602212
P 1.8565088364736348 5.776240945194169 6.277249068657389 0.6215667603440262 -1.3204877303985 1.0388352061541721
P 7.502890475356249 3.801469204164691 0.9162816664321202 1.0243861206083777 0.13694852433431254 -0.6583548757066533
P 2.9341399262471457 1.3416044972854055 3.3739605767214798 -0.6603724203573144 -0.07692509259282881 0.23339343212762387
P 6.151654753910825 7.741390731769268 8.907770910311246 0.3135370316577503 -0.75260714672402 -0.16738241534413753
Ni 2.5171978362630356 6.64624916804169 10.703559466960254 0.9329592348549481 1.6879145700961704 1.7936090215122078
Ni 6.652432061703608 5.190840494613308 12.988892302107423 0.6328176506674972 -0.4540079673230245 0.49366260560016917
Ni 4.993405034185741 6.42236723742304 10.849827079225273 1.6977516107912505 -2.471388067381744 0.49614526281270677
Ni 4.387305330910634 3.502474848744662 5.567809759936366 -0.8971206278897839 -1.1290498167670555 -2.194684145391943
Ni 5.063521087647129 2.4870712929328516 12.939520922897918 -0.6253578519553423 -1.0190587948581935 0.6311772868505969
Ni 0.7515664129728248 1.878450229723649 12.748006950433219 -0.2070841048091337 -0.2805693184824781 -0.5415105783213835
Ni 8.110195240364563 9.266618828078556 6.304057984338997 0.8986229234669234 -0.9914214927568992 -0.49165071737646293
Ni 0.7408469253706632 0.3429577883591256 7.792618833018477 -0.8745085469172229 1.4153110434279883 -1.533712657998049
Ni 7.775169539121634 1.528370526521268 0.7102485540234001 -0.412393891326664 0.6445526797162383 -0.3632122873956906
Ni 0.803595416789335 8.423288818063119 11.138956613903153 -1.6979783820900756 -0.44407682425224165 0.7530082388171805
Ni 1.2997054277923492 7.50138878304256 5.152193237858784 -0.2296761311770367 -0.6184081601103866 -1.2708356145890114
Ni 0.9697409858288911 3.648111194055593 2.912148476586675 -0.3549094239569501 1.0835659734026437 -3.1329311110083915
Ni 4.249251604813269 7.410202688661323 12.666034943458197 -2.5079992908468745 -0.5388620849549428 0.2323243674331612
Ni 9.173124576992945 1.8017712246691 3.9889731019695014 -0.7840100865153335 -0.5144818563383655 -0.07836465325283279
Ni 9.072121864338888 1.3121361030556655 9.940434658024843 0.42712631244083216 0.7744952050463629 0.22208186376954658
Ni 7.093215834593944 0.10281586707725285 3.189813239328934 -1.328809362890318 0.5612633354682784 -0.19055371125427828
Ni 4.7774765110062605 8.416521932945876 7.404883731565058 0.24864084520499757 0.035200202050216796 -1.842494434359001
Ni 9.081734549087626 6.185999013307235 0.3759032491744511 0.2875267236369177 -0.8035216741857 1.3264107807511543
Ni 6.01338782458374 8.985635510717158 5.470981195732026 -0.49443419365887104 -0.15701161363277477 -1.1655605100985797
Ni 3.9802818259613844 6.618078532601558 8.344205251365539 0.8372640607434677 -2.666013377602235 1.422508589617692
Ni 2.2160621788401538 1.425847582142241 10.497881384277548 -0.09975468889283465 -0.13911442163737978 0.8730841557658705
Ni 3.1054162773584735 7.145191074117742 1.4587939699281303 -0.5453232671992544 -0.1704633682623064 0.309117562433816
Ni 6.198717049445393 0.7753775058504384 8.196363643082838 1.1596318033189705 0.46281322431948035 -1.3334967410636582
Ni 1.0761293974598218 4.19703535294283 13.270206547960171 -0.45963791191529224 0.009627752897751161 0.1353104745102573
P 3.992295364470898 0.4542600709498504 11.687965127111715 0.6069932334052256 0.3494064918608498 0.8293851722160233
P 6.221121927977411 3.34034769710007 9.553350289907355 0.14660121693272818 -1.3979247296307409 1.2623193495878842
P 3.6349574817523522 4.94259777757259 9.739070696347019 0.9765859704059633 0.3433330319732603 -1.3392698961020097
P 6.241802641260377 7.134280630579395 4.052915531474612 -2.4408716439604414 1.484378330539295 -1.1061662273006627
P 8.017229362500435 0.5513630184411363 12.38565601090453 0.26076591060330573 0.3113019716796445 -1.92873386237422
P 8.123070861498602 1.8094001924108667 7.3291789725732785 0.30656214300181395 1.1410905499816737 1.8764327389776585
P 8.3710076782532 3.833273564215725 3.933605150181443 -0.22920047709219882 0.26783233053178396 1.251014466098026
P 2.8057637728380005 3.0326212789671083 0.04644029828612004 0.7365302957668155 -1.0479307406975373 -0.595083112231201
Ni 1.7695497278642631 5.821245366076645 8.877801025006379 -1.7559140780645954 -1.0166293594810942 -2.807782463253642
Ni 5.705170112051854 1.174925920171546 10.435893008721361 -1.195748603646186 1.8857434748556232 1.0617599332711458
Ni 2.0090047639582074 6.4765672063004525 13.013136290238428 0.03918181240578413 -0.05980308820056153 -0.13687576211484814
Ni 6.3180181610329225 4.3587268284223395 4.4430524136593705 0.20510358404399515 1.9427538308023962 0.15782253956984432
Ni 7.081767748128474 2.314441564798076 5.4708319534712215 -0.7167418002859786 -0.3185666236618578 0.05587855633517473
Ni 2.096696179313144 9.10526106200209 12.684513174681086 1.4924649642021715 -0.7662761595706803 1.0131791961489647
Ni 3.543382059734232 8.659258444836402 5.028325869272963 -0.009882549221034593 0.22830779007460036 1.5308546197239634
Ni 1.2609395188056323 0.4064979126394582 5.344046481549909 0.2974180146087007 1.470386130025261 0.3971755317150128
Ni 7.83501475873384 2.951900682253495 11.649217757536277 -0.24629522779095647 -1.0366227718838856 0.3729287433525061
Ni 2.4923086766194835 0.9529442792091085 1.0353278611145482 2.196539967653759 2.728738010324965 1.0940864133179933
Ni 7.455197839838158 9.095036576681107 9.906706834053496 -0.8313510376931424 -0.7453296392260003 1.4286833509698362
Ni 4.677595432734649 8.917938850427824 3.0670035441566426 0.19000786605313727 0.11290356756996686 -1.144676724671035
Ni 2.340526516469195 7.819552889726226 7.30614190011661 -0.8610107695411043 0.8472954768375407 0.05685120466108919
Ni 6.0499290042168425 8.594500281234966 12.112304442196589 1.1238885842810902 2.794703775692813 -3.1349327148194526
Ni 4.9672737339864215 1.722941647906058 4.197744485424295 0.28260717484811326 -0.01587244825588234 -0.8724416370858651
Ni 0.45811256061385797 1.6633374406404933 1.8232352280786512 -0.34122524160163814 -0.10492363468828382 -0.5571212882754469
Ni 0.5726360659145023 5.285975483597211 4.56063862970349 1.7658665612916167 -1.0754220041392704 0.34411850398903315
Ni 2.803372188782866 4.240278529753694 11.455763635681114 -1.4807355915803853 -1.130156419567673 1.8585908257002315
Ni 2.3431776522822516 2.0348672426939656 6.70967527494265 1.3335131961238904 -0.2644970955109638 -1.1393301156471412
Ni 6.1933498898798005 5.449131572567849 9.156592056983904 -0.7969062257517114 0.5209420101414124 -2.683376037250398
Ni 9.10534448935285 7.7940426598047905 9.241535931587128 0.22059910857643297 -0.7043863640444191 -1.5630440599723145
Ni 6.411169433009852 7.410823758939206 0.19673467068117928 1.4580260657980115 -1.301220654638772 0.12141366192350703
Ni 1.1951987664063501 2.741404206579087 8.454777081151828 -0.6670629450036125 0.847243797663999 1.4390513244677217
Ni 5.300881170266421 4.2181795515077996 11.395525380549769 -0.05295855447490234 -1.3048435961033398 -1.1031927464946356
P 5.58844597863226 4.86102436794009 6.531538414687116 0.9041433390645203 1.786526917854446 1.0844033817022742
P 8.831712048564016 5.762429083790485 8.805406477898664 -1.0490692251773546 -1.6528555216095084 -0.16754542328456304
P 4.322547167309198 4.177049867582868 3.4788343184508252 -0.671166939869657 0.6630000877881485 -0.09178066954842258
P 0.5570583255863871 3.3260723504143828 10.634299007329442 0.27385925345215417 0.07075958721206523 0.7545233899101264
P 8.111984293553094 6.980663068712375 12.4126410509933 -0.9631226458122057 0.7448763537386656 -2.9337966000636375
P 5.8585744706891525 1.1509637310919996 1.6299442530427533 -1.35475462200117 -0.46757645003607856 -0.17146172761983375
P 4.540394519556171 5.6396518325879335 0.20910509285783493 -0.30218098321498277 0.37370521650721444 0.10453359833871674
P 1.8126353196792464 8.824240665818131 9.325340559367188 1.4680893635712844 -1.0924920722476799 1.3232496094143533
