# total energy = -340867.7945416452 ev
CRYSTAL
PRIMVEC
9.30617365131939 0.00000000000000 0.00000000000000

0.00000000000000 9.30617365131939 0.00000000000000

0.00000000000000 0.00000000000000 13.62052582114943

PRIMCOORD
 96 1
Ni 3.1019988469664552 5.614051446236972 12.025493981114703 0.8720582856045174 0.9931598156042444 -0.22930434965991475
Ni 7.1645343770988195 0.9224055684480476 10.991300797053366 -0.9172616216140332 -1.0313890342887722 0.019921421514275367
Ni 1.1791666138699404 -0.0907873048131893 12.73363886725039 -0.885577660247191 -0.4847473053884103 -0.9204343629150601
Ni 0.8223260495367024 3.080920364310148 4.166709765321314 -0.32351676857828154 -0.8777260254132561 0.5755751241052603
Ni 4.416775019011987 8.413702026969089 3.801856585726672 0.6837586604917385 -2.3141111159027243 1.336817320796459
Ni 1.35536970023397 1.967632151642857 1.48578176058901 0.6011102922618874 -0.7001923805677297 0.17563745626407817
Ni 7.1353781359676 0.24945942180505454 8.339194011211386 0.17809054579026104 1.2090455778654081 0.4004953401168651
Ni 0.3977430574771687 5.8258599518694485 3.599277942830851 1.8544220390345225 -0.5681374368802925 0.5353988089966908
Ni 6.916804042303718 7.374118707298688 7.284651948485026 1.0373951312735359 -1.2157808397067125 -2.168991625721845
Ni 7.909232981568153 4.652565533388527 8.806923214811512 0.00014449599766426727 0.013381820623544694 0.5829565041709961
Ni 4.73939213082047 6.2946677409617875 5.732593482473636 0.8692812370800126 2.4448391132486216 0.234461468380822
Ni 1.654060640338538 3.295167087362471 6.740375746544419 0.009442376359822448 -1.3914051833446683 -0.8033162430431133
Ni 3.2258733205373646 7.471154176904568 10.295142262203033 -0.05446085005204169 -0.7335645282702721 2.1401248220888243
Ni 3.1516286694857 3.713898357614373 10.67771532648901 -0.11111922197603444 -2.8439877095296056 1.183788345960516
Ni 5.987256916420592 2.774049297823728 3.2829415674218128 0.0130491198744743 -0.085553200581472 -1.026066336524278
Ni 7.434981081061271 6.169564852507596 11.615407215295226 -1.411617139516169 -2.266573475333077 -1.896867352682927
Ni 3.736298316887544 1.3856985192083215 0.7801048716279158 0.4279794044697468 -0.4983561544210966 -0.635452260076867
Ni 5.908694200930725 4.711287487278726 1.8891671509732513 -0.23672686737623103 0.39125968045121007 -0.9534478417266031
Ni 6.477710864744088 2.250614271118795 7.068562603107781 0.47681545213584337 0.6917643044050344 -0.8062663268103727
Ni 7.276413193211018 0.3133937633931775 3.2687487224332323 0.545250247869474 2.7954997892315467 1.7859049679997308
Ni 7.740791243784856 4.811673179293556 13.831099140270064 1.2715578374670167 -0.14158962265074967 -0.23005125512826832
Ni 2.777827604207155 1.0902368212590465 10.426308122600087 -0.06451566318488244 -0.2910311372457504 1.0150321901973036
Ni 3.800845935299972 3.4116803778070497 1.9218830034139793 -0.028871174508395436 -0.2469575439653037 1.9220356244184384
Ni 5.587137992885077 7.8739067475004525 11.499305257713079 -0.9645994874680485 -0.032948944122194866 1.1550344137562754
P 5.308306426726893 5.4225676232187885 11.359395316828667 -1.0763892531485462 1.1530297246214207 0.5978318786209317
P 2.8678369129275993 7.832587337790075 6.186128910467844 0.5711224876505455 -0.6302133802754307 -0.13014358559733716
P 7.9678339552046955 6.282439429169121 2.042670619281976 0.05488533918396998 -0.409122933884876 0.25410521075367853
P 1.1510526641548389 0.1952444476722286 3.043819442983039 -1.368109188931205 -0.1588062436393523 -0.5599746985638421
P 2.213138311005351 4.3942913041785925 3.2438779741334614 1.0748288506399617 0.6231125075645914 -0.9402208015133678
P 9.423058895572078 4.482681338734711 5.739362792974386 -1.2389266816955566 1.4133053258518693 -0.1610562160157936
P 5.340487174199525 -0.1508130535908711 9.78953507180039 -1.4320916053204369 1.1106587158543775 -0.6160265472520875
P 2.970744577922499 2.0817072246675887 12.37701234490439 0.009353159080125828 0.42459480426823004 0.8913276753570907
Ni 5.932062002233149 9.508117320065965 13.441470135343906 0.7467290906766881 -0.2124289140608148 0.8522656763586225
Ni 7.891932805295272 0.06907321051651719 6.009470752226599 0.45825105887009465 -0.5315634944110007 0.28791727420711705
Ni 5.202597603551176 9.203237774678197 6.834738483161827 1.4602385000682983 -1.1829689353830144 1.6415503810093341
Ni 3.113482664890466 0.9676000687447769 3.2404179388788847 -0.24257818395068545 0.6932434600537222 -0.5092627740312713
Ni 0.2296372725521031 4.122737165586515 1.9123488288085104 0.1963500062210812 0.01960363316354043 0.12040604659459908
Ni 8.794715376600234 -0.10646169260039406 1.369884538820744 0.8078174733475765 0.12786867352023137 -0.2211860914281545
Ni 8.937416238874768 8.052734174751492 8.045521890398891 0.027154191817288717 1.3651184817339974 1.4832375320666327
Ni 1.1936004887484981 0.6067308619647769 7.764816060926369 -0.5234750609759113 0.6069078727802709 -0.26916981839628484
Ni 1.6088698625111522 5.570200757373165 10.177760705784134 -1.0951737328449007 0.40528144865159876 -0.7591601173511894
Ni 5.5893528621443265 1.9624858377757763 9.059502065926232 -0.9508901083017559 -0.5373291932501842 1.7710329359839045
Ni 3.5848031207895175 8.512198565792206 13.158639706493705 1.29271133161618 -0.7586093870540419 -1.0257950851407625
Ni 0.24376218247516868 0.9264658518842273 10.48163425383188 -0.7977284645426906 -0.5478421769663663 -0.01299075583271311
Ni -0.0651813688181208 7.393019545389179 11.323982535348735 2.5043146429064356 1.8455985272056215 1.2132308195913493
Ni 7.089200903764245 4.565952977943823 6.189234380517473 -0.36925335138344795 -0.01717728311023493 0.9966061222816319
Ni 3.802809537878551 6.032066141140292 3.2483319087026925 -0.10148812664417362 -0.09312998448746541 -1.4616734327426117
Ni 0.5821979277579081 3.00066392526909 9.136853117644861 0.19818217433381352 -0.27822318684780467 -0.18880150444986193
Ni 6.6707860434065225 8.102540814564541 1.8453769522362733 -1.37645293291021 -1.8339190339851643 -1.0826722579437806
Ni 2.596152487908508 5.094785585196509 0.9256859945568107 -0.0699895418152601 0.27513940571615836 -0.1241896820067474
Ni 7.702412584855669 2.294018263661408 5.027921660235227 0.6634433459731542 0.4672964569018146 -0.7679175518288452
Ni 3.442241851115356 0.5423712282541846 5.6868005952299745 -5.197751149716629 -3.048199634997266 -1.9624178848902267
Ni 5.935374999948666 6.3007539783380455 13.385543755930508 -1.4044779573682262 -0.2532865715071251 -0.14055192541485473
Ni 1.9329108188434383 7.770915326945328 4.131350959646859 0.8479325962009074 -0.1991478806811925 -0.3146593181876517
Ni 2.6349871493322476 5.464566383584314 5.178796134570262 -2.183773154906394 -0.1606381546417685 0.5555626855390755
Ni 0.6350904946565349 5.153889092194394 7.849985228883217 -0.24420286403830202 1.2497309713999123 -0.5073439597420036
P 5.232051642229858 0.6219343573800571 2.6823713922201597 0.12491216199506874 1.2566495528966164 -2.321265724669635
P 8.846373944911564 6.636567243968446 9.48687318752388 -0.05965473554815533 -3.2803725644542276 -0.7321995296019455
P 4.316249734396784 2.0526998823101006 6.46144088186196 2.571990191876538 3.0072190788198463 2.6151369024673414
P 5.821262702230501 4.55489724399429 8.268639257896245 -0.05053786084855167 0.12169519771966783 -0.6470677328286082
P 5.505159911772752 4.442692711814555 4.648440106738841 -0.2686980209661889 -0.4804782456994112 -0.48737188749545096
P 6.283546863798746 3.1358640118169205 0.18679723411499663 -0.3290109589236334 0.026246335291038668 0.4791191605683554
P 0.9245748374578424 3.8828798534524447 13.533517496029795 -0.3873734580229264 0.7070091463792468 0.22772954897362718
P 8.925420581416057 1.8519005797603667 6.678592992236711 0.940409006264774 0.0984529393622756 1.6700196920936208
Ni 8.310775749627473 6.453142567078459 5.3925431161132495 -0.8954679227777094 -0.4626365895323001 0.5306713216140345
Ni 8.78371547969085 7.899219539034737 3.6405889769852062 0.019920907293643108 1.1340686101378856 -0.5583962983331286
Ni 5.516978751937658 1.1871140859178375 4.851099713342877 0.7274774415359277 -0.6584325230221241 -0.03109363608101097
Ni 4.175372882100456 4.017037648584157 13.258219483895715 2.0491761615233934 -1.6293587240391487 -0.620420562554725
Ni 0.8543281184808571 6.465733819632094 1.2842435478746355 -1.5664404872483733 1.6226093211304573 -0.6236310990722228
Ni 9.263113694064812 4.624823830607753 11.701011912165239 -0.37552247222161134 -0.8702510571924498 -0.05878107469395038
Ni 4.909397305727942 1.5308562112494186 11.854991856549901 0.2982191703537574 0.25283585712295165 -0.8296474247384744
Ni 6.852070300424125 7.664322417300584 9.621403229589921 1.839489843204722 -1.2984482340999575 0.6007426245098234
Ni 6.139422157000409 6.267028406087953 3.722789475640791 1.1668859137782226 1.9882376741668084 0.10230985121452059
Ni 3.2237980438784875 8.737798820341524 8.551116052158834 2.0159425962812443 1.5287357736087477 -2.764687688946697
Ni 8.000833645932849 7.372983354148988 -0.2377615618938057 0.9715702623589266 0.3296151681665356 1.8977466699640866
Ni 6.321097273299055 3.8318168802360386 10.370136990827367 -0.7928783355392409 -0.4659610259198427 0.22361501258462135
Ni 3.2671834240743842 1.8742540081667467 8.312047903525537 -0.2581253876566651 1.1422226067035877 -0.7410628935298463
Ni 7.849273306621314 4.442702017987913 3.755124705591169 -1.1356382686178506 0.4445349948355828 0.32235360150811576
Ni 4.198852357483177 4.305966412835981 6.635280200193008 0.3269229660463531 -1.4801205837042057 1.5557236150515013
Ni 8.485471235907475 2.2267346302816713 0.5004525009795393 -1.621122709282602 0.11321749926595984 0.4152100206192204
Ni 0.8106830960482669 0.46179930993628393 5.270680637222382 0.6164119556159643 0.8519278334032295 -0.9666687112922513
Ni 2.021533507733512 8.733741328757352 1.1364289433397743 -0.17257990038467697 -0.18538039458345493 2.1403459369606948
Ni 0.8365058658825814 2.1475856258702386 12.342035092337621 -0.09049126131303771 0.9744843506819282 -0.6799894232572934
Ni 3.884917905417889 5.303309011633543 9.3076809582772 3.440844882942094 1.1087373304619486 0.8306090173207954
Ni 5.031801403908258 7.050691958408042 8.248099602677378 -1.7362376826815906 -0.06891944867953291 0.636484043775491
Ni 0.7137946639814461 7.5826142152156475 6.3085916375403155 1.6792584370830692 -0.23510938637746603 -1.0263936379567098
Ni 2.6624775854323506 6.477347923983118 7.821559522360616 -0.4618606305982239 0.004133305442083204 -0.9658788684011044
Ni 3.2691656389996795 2.783904535410055 4.7985114583130635 -0.11812470675959011 1.3377637438701284 -1.4151398079574466
P 8.34617643308204 2.5365092228558477 2.9201320234966297 -0.6624442152846785 -1.5140650589704505 -1.3757031992283792
P 1.453456767429326 8.768164864009309 9.657347393568607 -0.2787967999630876 -1.2353610758314852 0.2860887056388105
P 6.4765662054210305 8.080326978758535 5.267193614065067 -1.6095270340252021 -1.3359518874723701 -1.561311136441608
P 1.864491832314002 7.048840029909762 12.906986819628125 -0.8829708187519633 1.2985523637779894 0.9008762382774743
P 8.019204032141923 0.08136945737469782 12.798295367891107 1.2074075280413528 0.9084059709956162 0.26105464548831814
P 2.536388242602191 4.007163798651114 8.576627065185649 -1.6100281420313367 -0.6455173576223528 -0.3563258446885025
P 8.149760338184015 2.6749106330388965 10.469199344990662 1.2149480593927722 1.8946382062420917 -0.4072606838651567
P 4.4850171882476175 6.6430257282790315 1.2026907588847813 -0.9309067232012935 -0.048410015872271464 1.1716141724918272
