# total energy = -340857.3021365221 ev
CRYSTAL
PRIMVEC
9.41732949501192 0.00000000000000 0.00000000000000
0.00000000000000 9.41732949501192 0.00000000000000
0.00000000000000 0.00000000000000 13.78321363420304
PRIMCOORD
 96 1
Ni 5.659833970352373 4.919123321961693 7.518591657818405 -1.5190722823770546 -1.1243331280176767 0.24492071604093305
Ni 8.331134871784004 4.580956430601292 11.062834758830078 -0.5895976636365975 0.9724611496043123 0.2090612831401625
Ni 6.916529529058786 2.124436567106018 6.997007203276909 -0.629158199538039 1.496652519920958 -1.7748281413602789
Ni 5.140421152034321 3.4727156569182798 4.448628822649228 0.32156530127886557 -0.6776265794520717 -0.8786593358608029
Ni 5.169200511526299 1.1887495250890678 11.622226025091628 0.43036076021772973 -2.9047359352522553 -1.3724414977579718
Ni 2.073743081456375 0.37987059410067153 4.485512736060967 0.3900286362575863 -0.47895460996603323 -0.4285846421539135
Ni 9.245162055544558 3.8807026305016885 4.631656508381709 0.2297290959021592 -1.7973515192737757 -3.670573978844253
Ni 0.9334513679517029 0.7129841463565578 12.018066526858039 0.6391073403309508 0.6524493088554958 -0.7005525921206257
Ni 5.293113735412236 2.548527174436573 9.122378911219823 -0.15908880787677762 -1.8984758348206272 -0.31694194357424127
Ni 8.682514276680806 1.443177520964306 8.368243859375015 0.14427334013049992 -1.2088362900680794 0.11284391797662502
Ni 9.658695836307539 7.388055225970849 1.5766615770006682 -0.9054880260178728 1.7305851123815033 1.3861817301622
Ni 6.586461541220342 0.11169518036339537 8.031203280643949 -0.17058498144183526 -0.5789345274957965 -1.1946342875360845
Ni 1.0918263680565345 8.406633603802058 8.841504228413525 0.24080360854876592 0.39131033118348735 -0.2529919230848417
Ni 5.6326178875867265 8.037135256607296 12.853067246903647 -2.5297711353063272 -0.17234361600415482 0.9162370370042607
Ni 6.509851564300438 3.8055617570113482 1.6339999304701864 0.7010562712299216 -0.021010797923712198 0.5407281916294042
Ni 5.978977855765851 0.6672846706344656 0.21269604114593718 -2.5638644774456103 2.959601476941884 -0.01508671912979337
Ni 7.367007494143438 3.4312605716814737 9.053352709888559 -1.2923704033369936 0.24096018873128824 0.6195618140988555
Ni 6.926154039988368 6.9915762292523596 3.971646724922489 0.5851493980572567 -1.4040904921218207 1.1348198864816132
Ni 3.605321076095806 5.103571141009419 11.647477652886717 0.031471588245719995 0.07641627127721033 0.8347639200294333
Ni 0.8998013655509404 7.602695003962056 6.4851809857464024 0.20342105413524966 0.8449899686328156 -0.6028763830233745
Ni 5.162372947510695 2.822138270863237 12.95848106837269 0.3209220112679118 2.0116262282940776 0.0929068127330658
Ni 4.064133377944332 6.174622879799166 8.802525900881689 0.15934797507543524 1.626185982738122 -0.35403422044084837
Ni 6.79064808327042 6.176760613635775 9.285599127443314 -1.0313589523817852 -0.7372982842810916 1.513591718878458
Ni 5.950942465318333 4.18254688129908 10.989893773552213 -0.8421900372901753 -0.15201236064597046 -0.04653953832243598
P 2.0123138399753007 9.015991337862213 2.145494657996073 -0.04283894954239719 -0.2512057777186964 0.11334502598275963
P 7.6480111943663065 4.659657054709423 7.215912089878691 2.3098302291391835 -1.096576783840015 -0.2066454746098183
P 7.333095689977663 2.9269625674945168 12.759024851019216 0.5385358119637758 0.3070437106239228 0.31211649716113987
P 3.515997704112365 7.157236475595082 13.10268110384816 2.1217290931904556 0.2061867898058449 -0.6715307509669789
P 6.976555588418033 1.1919325825197904 10.063717292775756 -0.10754538858184705 -0.10157734392387023 -0.31662801187824824
P 1.575406246954765 3.779080225960485 10.222693118513963 0.13953274012172098 -0.3855749713616069 -0.049734905331282095
P 5.987519373782612 5.569305180170314 2.868038335707443 -1.761953856500772 -1.6698818809641756 -0.1952256628086509
P 9.367587341341578 7.636446713523326 3.881325115993318 0.6116551576572692 0.32821674515711213 -0.40573396280798507
Ni 1.9222182469583702 3.072027113834309 1.680242786114624 0.2017027858925623 -1.2399975461622321 1.4869862004757874
Ni 9.31297624654643 5.856015782177259 9.407140125983691 -0.9795108573622421 1.3622820407264666 -0.8256221056291653
Ni 8.729205397217854 2.3700876117225773 11.03251189900409 1.0467218079911005 -0.4240587292591019 -0.8541189275172775
Ni 3.7462796666965605 7.565477717079761 10.625590025407117 -1.0562078931046648 0.6280333419049765 2.077579909477067
Ni 6.154658140884575 6.69966726126388 6.062174313061635 -0.6725548213561191 0.9140932511883806 0.9310867004225836
Ni 0.847271500614342 4.451110289019036 12.49664768716388 0.9242503942270405 1.151722575774223 -1.9066737972503875
Ni 7.215002375831921 4.301610180401521 5.119085249918804 -1.6541091915109511 0.9014886750504927 0.4853438013218287
Ni 3.6434989306051233 9.285336383945333 0.08786274415058619 -0.765537995853075 -0.2840228242487173 -0.06994866127499566
Ni 8.947009397980429 9.486829569707876 5.096770887249877 0.8965313310452173 -1.033258226287027 0.7457045060669157
Ni -0.005722911244526867 1.4098119219197798 3.008476147977076 0.7044714675590577 0.06266601157065337 -0.42500798054624866
Ni 9.17328899545203 8.424319348934889 13.06556364066044 -0.33283907442047195 -1.6233222880370815 0.8041423384888343
Ni 0.3929484398226963 2.8214413884671616 0.13268734994571368 -0.6588716674420717 -1.3439878704029693 -1.9326771632926842
Ni 6.947427787728019 5.578148052736729 12.869345101249813 -0.35708791966550757 -0.3490653064713472 -0.6879117634281636
Ni 1.3332207796592286 1.3082083520379297 9.533546117035051 0.7479051132626604 1.0613125613210819 0.4060702631014813
Ni 3.020740336415034 2.528072734378794 5.057970547248932 -0.33339777513741936 -0.08204287343536838 1.5522973629787717
Ni 2.799320081056608 2.7749197798642937 7.802208667026556 -0.4395069454933721 -1.9496562143491842 -0.46264301729020324
Ni 2.3518462441388217 7.140793817979574 3.5279096844204147 -0.7348693631246247 1.453725638650445 0.11018411175627477
Ni 7.69642568623419 8.74160802040206 3.0362629209211285 0.353205811002282 2.646511817234197 -1.824009488180936
Ni 5.472805802973232 8.765518620451186 9.889249017986423 1.7185448933875176 -0.37514349161563776 1.09705526613833
Ni 1.6233404550091368 6.771455565389317 13.724400966574912 -0.9758406075995065 -0.32362629757295236 -1.8005240034644863
Ni 7.436140111300047 1.6648332095646499 4.451082037030007 -0.432390646163565 1.404217504617988 0.2665424080757668
Ni 7.778761399597524 0.5918010063438934 12.126719909735863 -1.174034609007862 0.03837397179250811 -0.022783830663734957
Ni 2.702444010672458 2.0761445005239314 13.314653894074928 0.09968346933526703 4.268031247734585e-05 -0.6689437069660931
Ni 4.351183003819638 3.1577719005406064 1.231795197308268 -1.4964398896895195 -0.5444071831428882 1.5430817579177747
P 1.8750468426078106 6.503447780120285 8.074978795913092 0.39033639730599223 -1.157785494138851 0.7604497826968902
P 1.9167561957458878 5.723626961582296 5.103234942339961 0.445347206324233 -0.954722851784285 1.0688654339676753
P 9.317769667351866 2.0791015420424137 5.918815245126292 -0.6661391476377625 0.004910035707107673 0.3444288361406004
P 9.087610130053468 3.432946273693602 2.0600257990493023 0.016251171751539756 -0.593423722250907 2.2516554205706636
P 2.997140508245239 0.2823456697017974 11.219880973717528 -0.05140843637896308 -0.014988245878716123 -0.26533090426616884
P 4.103488398663235 8.972972975899074 5.109312886913298 0.6956386997587761 -0.1749741116484664 -1.0057093701344808
P 8.685443066210256 8.719919910156634 7.4346239212221 0.1523743719710795 1.8003373413749768 -0.6018273729335699
P 2.5497043406461595 4.281108653695359 -0.027348867114086683 1.6777080618768139 0.31972850518044293 0.41176474238309735
Ni 7.362609601184422 7.594257076571738 11.700377618879608 2.4311436180394006 -0.4236941468308316 -1.9995710969017562
Ni 8.069455532057711 1.4696967213338763 0.8931725071915155 -0.5124792240860399 0.06005968429605785 0.6196597731293005
Ni 7.283843055768554 6.3720383618117005 1.2928420952044681 -1.2030340815640055 2.141694737679105 0.5529527587200541
Ni 1.8972529059854548 6.078434274481415 10.257564548573791 0.6390052675354478 -0.35212054835790324 0.6105899496175484
Ni 1.6458290382770817 5.482590408507316 1.7855878610770246 -0.4490225982932912 -0.7491546693990453 -0.35870102978889834
Ni 3.370603551233888 2.4286822369709666 10.941073394775266 -0.9883402827284139 0.1320570005699661 0.2962779874669865
Ni 0.9266529976580976 0.6197959022738013 0.5382964477857572 0.8689408230214583 -1.0463243154423658 1.3570866125684564
Ni 0.018289395965107175 3.7040523604262647 8.575074787598307 2.776413719134373 -0.18953349751988005 0.037545048133309535
Ni 3.7175568111826442 4.040665392390011 9.405389444396794 -0.7553782817112539 1.7439803027414866 0.24339836585913566
Ni 6.4464729355762875 9.111596068740008 5.331760572939452 -0.9168042223616404 -0.044641035748142474 0.09174930208985489
Ni 2.656393268553425 4.3427356590996435 3.5062564182947926 0.8626832721475207 0.2409085095577464 1.1201496860639482
Ni 0.9506135095545099 4.08444655805696 6.337976822104066 2.1122756610870397 0.35188426397738104 2.3988359070456298
Ni 8.861161020647687 5.62101573742504 3.126322728085287 -0.18371174863178036 -0.5953103977506586 -1.4588297926462293
Ni 8.781198474362881 6.262458313693689 5.411110992795274 -0.012445167741888244 -1.5057475402436906 -0.5148412965603133
Ni 8.034865680155214 8.254609650831188 9.416746743986888 0.20201208960286499 0.30924714603314485 1.0786034871910457
Ni 4.411604591025306 5.70874758069312 4.790066352606344 -0.2925329186022575 0.5018906499369163 -0.7046411603677025
Ni 3.95732202475127 6.095894003702006 2.1391276014016603 1.075966820899147 -0.3396555831216731 -0.3814658342892398
Ni 3.2747257177954676 7.435066535716905 6.361807374850939 0.5555323465217723 -0.5623000042629089 -0.08525958060045316
Ni 8.518935260196633 4.706517687180651 0.5085235600128895 0.8459273928454206 0.09954694375740275 -0.7801107514609275
Ni 3.2838040236038006 4.8331525193431535 6.953176125762672 -0.5413791949498418 0.9119911172437132 -0.952421714454934
Ni 5.037988857140921 8.097425001197491 3.2881369369880478 -0.8536813257592265 0.14776052734815195 0.3310788971962556
Ni 3.615359949531162 0.3474712130809739 8.807101781371594 0.45512562586723554 0.20892989976862084 1.4267370258767427
Ni 7.988683095420708 6.720705575761613 7.4805503545894005 0.47708053287177193 0.88727124589953 0.5550934592121407
Ni 4.8881403073253695 5.130269270642845 0.0010396731963070037 -0.8771554976217668 0.8067993164957072 0.29453040864826047
P 3.4429945644586337 2.086428224530881 3.0019706566364155 -0.0886207837632022 0.7016720504370496 0.5415612290536609
P 6.226437027680336 1.5666292956960863 2.6966994395696746 -0.14966622901129709 0.5337849275423516 -1.3240245399071648
P 7.094272209376706 8.597400451062846 0.7373590207587446 2.767559611177853 -2.564216204358074 0.5889037228933663
P 2.251730612345889 0.6936202330753399 7.3216291493633205 -1.60863923210361 -0.0003080181587220502 -0.5951856992473362
P 4.828481523823514 3.0009168574455938 6.659745317298439 -0.6263125025591278 -0.0229964608951733 -0.2719826052547316
P 4.7685308031016795 8.1466776354066 7.83266996159879 0.8277080416239165 -0.1703319848907647 0.060633811631973
P 5.5724976549307135 6.367066011742405 11.134218117779419 -0.20580420965544555 -0.38864178321238874 -0.08183332852772357
P -0.11183173164370742 6.397399230631036 11.919737362504774 0.10406951421810463 0.7106698830602858 -0.26286135967975377
