# total energy = -340868.4857992324 ev
CRYSTAL
PRIMVEC
9.24661732462495 0.00000000000000 0.00000000000000

0.00000000000000 9.24661732462495 0.00000000000000

0.00000000000000 0.00000000000000 13.53335911699336

PRIMCOORD
 96 1
Ni 5.378285594995034 5.98329175245516 12.797279243450308 -0.09488579083630755 -1.4216932928052484 -1.226926571910887
Ni 1.7263804007708305 4.781915777914974 11.251661885210483 1.0820094275488008 -0.8833811668165045 1.2192050348969132
Ni 8.779098901616766 4.512007024495119 2.559442348629082 -1.5671004894298752 1.6604629016431212 0.33422952701009534
Ni 5.399978158733402 6.148630512986179 1.7553981345831697 0.0822506185708003 -0.631491475656906 -0.5602253811220674
Ni 5.196728268054341 2.831258679158581 9.851771212612896 -0.41485058039727263 0.14832437027142198 -0.6663242670653751
Ni 3.8840137769013254 3.818483001447865 7.200667148579532 0.5851607109111664 -1.0103077881384406 -0.9462163569751704
Ni 3.6792474410163414 8.001994706518737 10.186721595441131 0.8685171052204784 -0.5554477572277661 -1.5047910898676924
Ni 1.4657182644602547 1.9608006377252722 7.614137954576342 0.4610682166039156 0.7411179151374978 -1.2822628825893465
Ni 5.978788649922941 7.55859167627748 5.30568578076153 -0.1640690347001884 -2.414893988949757 1.300459350992715
Ni 1.7105132058113077 7.198620872213249 11.00938757168342 -0.38941697081551646 -0.456516078456859 0.5699834889500958
Ni 5.202821788729355 5.93944429412296 6.794233018202884 -0.0773377546502152 -0.7916223516449528 -0.4489020135550269
Ni 6.304731903025027 0.20213105000883944 6.844185093150631 -0.518099655596611 -0.01833299398123294 -0.5720840802328664
Ni 6.203601651700842 8.113777060752811 3.046534720049971 -0.6069916907433288 0.35418900085115773 -0.7161782144730247
Ni 5.92096955313862 2.2705900507374475 5.207271260882341 1.057979640293107 0.13335695032831227 2.1757109467235494
Ni 8.212521684862802 1.6895788646759 6.576995769822616 -0.5863133364583709 1.5722797196379694 0.2835659392169568
Ni 7.426910602024238 8.375400845242753 0.9507972741872793 0.6901406527586824 0.2894933604449853 -0.6639843060782887
Ni 8.485759220441997 8.631652345192203 3.1274102565962805 1.5266724633218158 0.5665783199232887 -0.7042421251570711
Ni 6.127548225977023 7.918932345026084 11.295875509580213 0.2471290365461615 0.3089069890849067 0.1047750249255615
Ni 4.11608537311001 5.57443408373417 3.931833581943673 0.8630069740355266 -0.1521350022667638 0.6109360201030575
Ni 2.1750170162959392 4.4928387872275835 3.236651640448725 -0.3244752758368089 2.6464902199676423 -0.16340646141552503
Ni 2.7706933370928035 0.7494965703948532 0.4228089646154707 -0.7887987661532286 0.6122359698614037 0.9722240938928417
Ni 5.449946877591946 0.424870035569129 1.1913674361811026 -0.08127797024488582 0.5003852690359833 -1.458966832444726
Ni 7.3545095900585835 4.674451593870933 0.4484646284468763 -1.1820181414339705 -0.17939332376208458 0.31205710467811415
Ni 9.209491941585267 3.2273375230345476 4.460825149471838 0.7263957784359748 -1.2677325501836554 1.205353987946434
P 6.108749853393858 2.444315492986582 7.7155576250160465 -0.9324779243431554 -0.82376422648482 -0.9608284504613903
P 5.390833254412326 7.894280863812746 0.05380329097376184 0.1535426812475678 0.5140959337538565 -0.11459252523661556
P 8.975561775337617 8.10253317434793 12.64267395605974 0.08133736272791153 -0.20817888053520925 0.5907256065934536
P 3.640420895774479 6.074075039234061 11.409338898804753 -0.6333858644661414 0.5634135490420619 -0.8716520513050343
P 2.853811178288112 1.862472111385199 12.283620416412749 -3.6834580338957728 0.7674465257296976 -3.052633502398904
P 2.2260490961220505 4.394611973675713 8.322975300218273 -0.39273626499673653 -0.7558472509278724 1.092621912957325
P 6.34598106194952 1.2458706960700368 11.132527545712822 -0.6262322841404957 -0.6437528095227624 -0.1941332010754205
P 5.471278823263052 0.13302738170435358 4.762849253435641 -1.2309606327709446 2.190245907114931 -1.078922046872729
Ni 6.602842838628183 3.299988193662153 11.823500427099626 0.8278399392160903 -0.26731013947972676 1.2057239696913429
Ni 7.026661533831986 5.997938393956258 3.8234715513783213 -0.39522920662191935 -0.2420829894818218 0.4866170116072974
Ni 1.9776479740983788 2.389177915163951 3.3073364802788974 -0.995686181570524 -3.184312293693845 0.06781798808523805
Ni 4.022056523725752 1.045551983014616 10.686332961766272 0.4212323155539004 -1.012422006267966 -0.41722859371114596
Ni 0.7271068117264449 0.573692488619553 5.330303049491563 1.507975915353577 0.5079070313343252 -0.015589112687508639
Ni 4.687618776634547 1.9022048251037713 12.942370686497137 4.041973687146742 0.4677397150868203 0.9758120683544164
Ni 6.244573412112058 1.312945656580747 3.084252595900431 1.2211711574843485 -0.37266931904353234 0.4959043504464944
Ni 4.197668275865179 1.1282444798228983 7.79176361992217 0.9562883964991917 1.5444243879885982 0.35583810641880653
Ni 6.118884145745628 0.17828864779256345 9.215202652311957 -0.46298728800349936 -0.3602316075008119 0.40802687260721987
Ni 8.527054612452037 8.803768876064321 7.546390765001788 1.1375012899685184 1.8960374005824634 0.7855180385194278
Ni 7.794158493753473 0.7589475377422472 12.818121118414624 -0.3252509776605689 0.6827816412904499 -0.5856263376936753
Ni 6.48219297858631 5.246049723715235 10.631833400524183 -0.18095218360877222 0.5060676641327413 -0.45471630624395887
Ni 1.0076223596323535 0.28899654511853934 11.642071628136751 2.4160252743407233 0.5956775512820902 0.8112817777470931
Ni 3.6624925708143277 0.8654269570641497 2.535406692115222 -0.13650372348741008 -0.5021667864164383 2.4626010652177333
Ni 3.3419955751896078 0.3185552060317716 5.129102209163917 -0.546062202247808 1.416899728071347 0.8470813039442056
Ni 3.8350991723932393 7.882121562314045 3.6315284241004853 -0.15002669767450938 -0.0055175873841195305 -0.11860318905790543
Ni 0.45683189226906284 5.229322593364549 0.046026885984858185 -2.2979815573307136 1.2135277820064776 -1.1888125386479849
Ni 3.4813698348777704 8.0421157781559 1.4235333478843022 0.3487668013943219 0.2251815857407928 -1.693459925394432
Ni 6.218322266138815 4.596964942495175 8.365740904348689 1.4156332026540974 -1.3337638786821158 0.11658513018661212
Ni 6.180975179634436 3.4916150866348517 2.4347591142041414 0.7987286236724308 1.8521784944159843 -0.8386146612340912
Ni 0.9498679891677968 6.855414184968139 2.1426150206216037 0.4110792862802985 0.042228569651907924 -0.000599324146895742
Ni 2.5424036072818135 2.6257156274364175 9.702823005569787 0.07592621901466924 0.666082069147582 0.0922396114627121
Ni 0.1188809821888676 2.3017326571614993 10.584872606211288 1.908638377175926 0.5045769385198279 0.6839910882175189
Ni 8.342714053761451 0.1595864400273357 10.465278709843293 -2.0269183785664575 -1.8710838159609195 -0.842043227299666
P 7.549853623109212 6.50154614819603 1.845828200588497 2.1006388481790594 -1.1627958028692489 -0.42278474764268476
P 3.264851048646893 6.083238436789357 1.9649764100118225 -1.6104184354912199 -0.9363569476825873 1.6666461476356975
P 0.6452224692535137 0.717409884363944 9.09884229794708 0.6888363321249621 -0.5300845958726291 -0.1181776714847126
P 4.470461973823129 8.032462309893813 7.362959148773042 1.484190382898205 0.4150143596686466 0.790563057142503
P 2.5635783604620626 2.823278848593273 5.418689613115739 0.6075434494817408 -1.6859898422696318 -0.3809305306110601
P 1.661709560708533 8.914783761078326 2.8770294338495117 0.33098762303402995 0.3128029817052032 0.484438773009056
P 8.168221142292246 1.2764769987017504 4.41188835308269 -0.8784832152942549 -0.0353737515136036 -0.37100735796007717
P 8.719606167135664 5.227833888009955 4.807454934370803 2.479134544096382 1.0994283943561969 0.3400631029727369
Ni 0.7296819945913792 0.10738466313690098 0.9467860916852742 -2.0330386325315826 -0.24736069294099333 0.1958938925202691
Ni 4.2390838738976395 4.987597528893777 9.40335651589841 -1.6271403762315915 -0.12100639918275935 1.5172660824062514
Ni 1.6823295168622252 4.667377931782335 5.803103849508351 0.23284604426458608 -0.6387898090905322 0.7040212673955166
Ni 9.134418657275031 2.835595342582833 -0.01837950082811391 -0.6944858171012556 -0.9546086948039236 -0.14223188422043892
Ni 0.10901669105668875 5.304830468678921 9.995238025033625 -2.4256735960637643 0.9272408443139322 -1.3551549427633822
Ni 8.758506685314401 1.9043038071875773 2.36774240738122 -0.24865472916206854 0.3433942242284989 -0.42850519506622975
Ni 7.512830168203658 6.880555736888269 7.536104828129425 -0.5601338498495256 -1.7014905090083923 -0.8303768467053312
Ni 2.9053703152894523 6.458050061313982 8.09223151822648 0.3495245054959529 0.6596867071441993 -0.24449391291615957
Ni 8.343962347071203 7.97053771511297 5.313670234635392 0.19312635707746095 -0.982621892187398 0.745345065844968
Ni 2.5398515409596527 8.905167279284676 7.655063481902011 -1.3535022376513077 -0.2396484118984002 0.7391232533049722
Ni 7.4679101022867815 2.3073176138955036 9.415983696222842 -0.2695937933075808 -0.3421328410175721 -0.9319032827866081
Ni 0.6476857680514256 5.688204460646738 7.718710721450311 -1.4250712081385457 -0.3524576199823478 -1.0712917840209808
Ni 5.611328086000192 6.861840583859088 8.968894964401827 -0.3814524645528011 1.1700601977411462 0.38684535343359827
Ni 2.594979872165174 5.233465077829506 0.139344670513413 2.928540493871021 -0.6535883075559453 -0.40637262483324854
Ni 1.4542986923302954 6.551246715158405 4.694262471027564 -1.994783702815442 1.2285052292519165 -1.3412123645403613
Ni 1.758244243329406 7.492589323351447 13.30494256395421 -0.7308157618805413 -0.4617834975033854 0.37473468621299333
Ni 0.7370302812081232 7.591056548948159 8.997599237894162 -0.30735995631276103 1.273436542546968 0.20491023708626643
Ni 3.770761210546876 3.8423577668240236 11.769109975939426 1.414888611178589 -0.16984938882739134 0.22271126982342937
Ni 7.947430418956882 6.223454138634464 12.167923969156316 0.46505754026896684 0.5162600312847109 -0.4956922344356883
Ni 7.3358406701149494 4.6494764810587705 6.3142318774431 0.40189813400166263 -0.5625347459815343 -0.20574507428273597
Ni 3.6460798254453577 8.607666620410733 12.45230090436706 1.0526996228410903 -0.8166461273828001 -0.6702305440983166
Ni 3.529498476931568 2.829843946740861 1.4161036910369964 -0.7059531943109068 1.3601364551383737 -0.5471451508993416
Ni 3.42173840114003 7.055621938618248 5.686108252548065 -0.22937016990084366 0.3100395600274532 1.6580815458951381
Ni 4.34552168344255 2.9899583686051368 3.652098448521787 -1.6714602811948893 0.10592070849423048 1.2919536275145493
P 8.825073081884101 3.993392010686987 11.67275190370534 -0.9681182992545844 1.9876787163395446 1.3007933372933662
P 7.0070494589432055 2.1107252875351223 0.8680862841447785 0.41918700298909745 0.07538423046827016 0.425964430922247
P 4.757902313282177 4.188588097863867 0.34389925886659445 1.0542338000974294 -0.3001863213824572 0.03362180181950339
P 5.804748822692092 4.431284057131114 4.699675440683335 -0.8553666838814495 -0.7069055309218472 0.17666744019048927
P 8.469855039014037 3.9202050362670433 8.366673888015015 -0.007515591650754798 0.828524881098257 -0.9004180676941331
P 7.804875322983127 7.1538302589359 9.646334496987489 -0.33498234601571986 0.07238323885841728 1.0254749827971823
P 1.1010594255216182 3.861960595095695 1.4400709225842476 2.2357829723147815 -2.1083968948579237 0.0070785041133361966
P 1.1925454552008248 7.935308103926618 6.418519848510104 -1.22724847402668 -1.299571549071123 -0.6528424305288563
