# total energy = -381167.9611995339 ev
CRYSTAL
PRIMVEC
9.16499621267967 0.00000000000000 0.00000000000000
0.00000000000000 9.16499621267967 0.00000000000000
0.00000000000000 0.00000000000000 13.41389836926980
PRIMCOORD
 96 1
Ni 8.014239353628701 9.280383590744805 0.9486137757398851 -2.0734774572729195 -0.40841536629489017 0.22621002700530718
Ni 5.840696329077535 5.719654223108716 8.744761961211957 -0.025735199982575035 1.0350752248911077 1.7304514150171166
Ni 3.67742726536464 2.039569108820705 9.744499919242692 -0.36669407529670395 -0.3092396898339771 -1.1749553210499184
Ni 8.233356084869902 6.206251371000176 3.4019659699472373 1.1943460668717043 -0.3363648281855433 -1.186087426407338
Ni 4.547194578043288 3.7654753846985116 2.1565657854282287 -0.17793268005615806 -0.9408203827705797 0.23033690468948717
Ni 4.21920685590305 6.372275278747974 5.437176206533614 0.4498386664366834 0.715550865301671 0.30776310528845063
Ni 5.616914614726006 5.810039416495897 11.51113727162134 0.4501991350998957 -0.3170735840560991 -0.42305471347461976
Ni 1.369149630391151 5.871976461406723 12.842385976365225 -2.1200133960509295 0.4624041618065198 0.6093259953034603
Ni 6.538656621350984 3.061099595023824 12.347439516855866 1.6141401073171813 -0.6119055831051784 -0.5188455326236999
Ni 7.722334221872292 1.5727775179065009 4.697198072280562 -2.476945506864863 -0.02853744531806053 2.8378024066545
Ni 4.35493128592442 7.6749145310808435 12.288257469829057 -0.8191012737915119 -0.1346846680008003 -0.9697573775199039
Ni 3.574440202082167 5.938706799375904 3.0899317568446243 -1.9032238910285741 -1.551631704370315 0.17024431027296485
Ni 6.368893395117891 0.9717462263694981 7.235792063958557 -1.940729858393832 1.1753970365730273 -0.01913260706439286
Ni 5.827645374364155 0.4207970570454593 12.737529253840105 1.86844586411744 -0.9766751876856599 -1.800853876000079
Ni 4.86719042342084 4.205578506423559 13.11643219635584 -0.585919700564378 -0.8970200977561777 0.9755690991056747
Ni 0.37282013447973084 7.784582876656893 8.86700284869518 -0.45448362140786247 -1.150649397314702 -1.556106709422533
Ni 1.479633660636787 3.316243926671129 13.149229135570607 -0.28586579099472703 0.05162029527945303 -1.4315352185963348
Ni 2.2953916501932845 3.8542108787539453 3.100327612133519 -0.0671484728220392 -0.6543449832163117 0.357750492950171
Ni 0.6681153983628805 4.719276548337114 11.019558031748003 -1.6573207564697137 -0.9746622710206891 -0.227555228179292
Ni 2.07898775785318 7.041613287615605 11.102321614222511 -0.4442945966900026 1.2222065407273983 0.19072237562165864
Ni 7.814121659691458 2.517596985183367 10.277098932999928 1.6552409911225494 -1.522519617495707 -0.289740700569101
Ni 4.243292466146561 2.004192223151012 11.98821565436862 -0.858417040671999 1.1322953202875468 0.9928957633095803
Ni 4.8524806043794255 5.910927695628535 1.2062189088903799 -0.196101637655701 1.557392518113492 -0.6275949688159772
Ni 4.4156402213327235 0.8928658528219979 3.706729591494988 -0.4820818427411052 0.4843778378641336 -0.12361066957482583
P 5.830321553280102 2.9495249302199773 8.46895881143303 -0.44449565695721505 0.2550904574850833 0.02211071585611031
Ni 7.780724413219862 4.018026022396459 7.799001248816365 0.6946578239027456 -1.1543276174972377 1.4651325949358056
P 2.0797301225524665 5.153642382386194 5.01796469384589 0.6122652804374423 -0.9486614760815535 -0.2565937815034871
Ni 3.1554257368146237 2.130898296825497 1.006364250346588 0.6170148793072857 -0.13182251596165684 0.273255044209252
P 8.749006270992691 2.115354463121922 6.466545514061419 0.5509454984820382 0.2742819428118695 1.6791861890842372
P 0.9344721864682951 2.986129925392194 1.66418185888085 0.20909625014315605 -0.3878054033540224 1.9727727457619892
P 3.157304561053558 8.684484697128795 2.594087127699091 -0.7413050914476393 -0.11417626363480336 -1.2762655273553312
Ni 0.7213182018117331 0.5519408219223448 5.170253021657634 -2.011401513877781 1.1616105243118962 1.0774179515233768
Ni 3.3367643533588085 5.061983254515053 11.890562618925461 -1.107684463717402 1.2170015994876913 -1.5344068558515962
Ni 8.251851047378047 1.2903948172927893 12.331664725245846 -2.776379266352012 -0.6771349845276338 0.742755707851237
Ni 1.5581593488279617 0.8882274482009016 7.6842050878174675 -0.17239709494990954 0.3620676322682861 -0.8500696971485683
Ni 8.37874958597457 8.915955843365523 10.51421571694975 1.3369749294202458 0.4230158898168844 0.8613529833718713
Ni 8.67950810414469 4.694549388353478 5.796615446433617 -0.45756611698792815 0.6374232677603087 -0.9208465107518142
Ni 0.9431697679451189 8.400232337272435 3.021467401577851 -0.004436181394482683 0.388056343022564 -0.19530716677886362
Ni 8.052347408192066 0.9395312644189872 8.536081411243316 3.0740531057252602 0.5794325501781376 -0.37648560746582904
Ni 2.8205184424773333 4.992466757674477 0.7317415520894902 0.3588612095158465 -1.6565075165397989 2.3472045560225836
Ni 3.615096125613452 2.553872040489234 7.402044180113913 1.5238936150250981 0.15205118430370587 0.5045723105341374
Ni 4.760601516597386 8.53798223147334 1.0230857860731049 -0.2865569035244807 0.2310082197248989 1.812380645692756
Ni 2.21835985639697 3.2956501800131495 10.942145890605758 1.630898557722443 -0.8239642583107679 -1.0513449085854085
Ni 1.3244427785007975 5.860217771169879 2.496742036131194 0.18390766669267036 0.23189062232985228 1.0244514266286746
Ni 8.228205356956334 2.682392783428641 0.7286896083257576 -0.4428424376245083 -0.765761681828107 0.2663148654459929
Ni 5.8358480460414555 4.804043599000066 6.81919715771091 -0.9834305041316225 -2.2271098700208163 -3.5122091936176933
Ni 2.981400787307851 7.826136969824352 8.24363187870743 -1.7265307398064715 -1.406768553174616 -1.9473275662160077
Ni 8.788324105066003 1.5469138983832171 2.91030607810657 1.4461305999120062 -0.921088194448975 -2.362774128326066
Ni 2.7925102138227778 0.17004917411726095 13.017611540385658 0.055778540422200706 0.8086376552560266 -1.671795810157437
Ni 0.5945314761699181 2.946995391244631 4.66444145904946 1.067741347665561 0.34878428489581864 0.17798487345033218
Ni 0.9523347642326042 1.4239288132014511 11.54155956029802 2.5225321943557266 -0.26838151816703454 -0.38176691046942635
Ni 4.470263599206136 4.244593895619384 9.960503301245033 0.15447547747448237 -0.4609136933039223 -0.20327758657884992
Ni 6.505497664782861 7.186713508839072 13.197344449580276 1.4134739902192497 0.18270490463382083 -0.7475729267342223
Ni 4.477705576191575 0.27445956132318045 8.524666408367253 0.622900134443469 0.05771972330897156 0.4650112604120637
Ni 1.422379928828866 5.907646626957616 7.01575058459195 -1.564950532966408 1.104967064786239 -0.5142458290681595
Ni 7.985094665434499 3.828869664019048 2.958489213088767 1.240729282121934 0.0560194527884132 1.9372452422793414
P 7.891987468149934 8.539338650923888 3.107007977927467 -0.7326890676438542 0.029391308677923573 -0.030128701064580373
Ni 6.609731167560432 8.125969823369434 8.738068764423206 0.2643052912151319 -0.8194931099132918 -0.5781426277221204
P 6.522709527810759 3.677867185186439 4.649324714172882 0.538504187394892 -1.0933639333296719 1.1080829847074014
Ni 3.474193472689652 5.027257083581772 7.194195811808176 1.2089699874324662 -0.05859852636949908 0.7523850034108849
P 8.76464175465914 5.615805650175219 9.041947047329584 0.6026467835110718 0.17925371286042677 -0.3353055336830935
P 5.429389625687767 1.9039546587547846 0.6404957655509147 -0.4556966678793572 1.9391200907045505 1.802982749417624
P 6.750395530580757 7.697102987092845 10.976003219890988 -0.9866009314398041 -0.042665657189326515 0.2499271681165889
Ni 6.946508121140369 6.634320852599755 5.064524707985573 -1.4198567538171416 1.0786333119877165 -1.2401034756124771
Ni 7.417231495461905 6.466711400494223 7.029137894669081 2.0292336569631955 0.3511394153915566 3.7763856725644445
Ni 1.6346504078433144 3.726909080320773 7.627424269817981 -1.6693460630653636 -2.125309354342546 0.7328068241686412
Ni 0.562017735340435 8.113881193266243 12.829414757119547 0.07550841475096028 1.482020628940396 -1.7810191006623393
Ni 1.9642603343264382 9.093271026539503 9.887532517303704 0.9103906055258127 1.4568343594827555 1.248788919201617
Ni 8.707149732947745 6.570092558617057 11.161865678602675 -1.1626669906008686 1.433673605095576 0.2862807670449586
Ni 6.074458724386137 8.820951491849451 4.8193592242960825 1.8362746787015345 1.286198727308643 -0.09483925386908829
Ni 5.782058682830204 5.296680479444979 3.6599147904585125 0.30840613818908824 0.8919624807276122 -1.9220664776563734
Ni 4.76641212424365 7.654522414341189 3.5462459240029753 0.5834480990954339 0.6363984260402201 -0.5166112439765426
Ni 7.866261323570963 8.832004477372159 6.23070174809593 1.924446547852776 -1.516717151881317 0.9716805626845457
Ni 9.200189873229307 7.293907305417502 1.3611082626485114 -1.509433216625394 -0.6385517249377971 -0.9384423694567063
Ni 6.265347267061882 0.7516552560229384 10.158774248430348 -0.7953725627160043 0.8243596939769737 0.8876306861214777
Ni 6.636694586638214 4.339488267180007 1.3174416378367872 -0.5966304021136628 0.8684649118263044 -1.304266383443631
Ni 4.265105157310776 9.161064504078032 6.21644284687186 -0.4774134907311584 -0.7023536498851065 0.08886401012225986
Ni 2.474961422453985 8.674494851175435 4.717292326640873 3.483796961023587 -2.1108391857508293 0.7812798320683642
Ni 4.147096665113114 3.9396469741458837 4.677681212686362 -0.8669549029396811 0.17479824819223444 0.5272851787506209
Ni 8.931930431894612 4.982137806858481 0.9567568749413159 -0.11037874426558408 -0.11974578730278086 -0.38835227699642794
Ni 6.312546997942432 1.9997288699590066 2.9251423740967515 -0.5895853223414232 0.41570521508808406 -1.6433190428739828
Ni 2.653834654996837 7.363808732102153 0.6963903284094016 -0.2967464424629728 -0.18391640844341875 1.6628249741173944
Ni 1.8709056821421124 5.6668638444928 9.271324908414256 0.5902388967650223 -0.6290648684932844 -0.26704942961917233
Ni 4.031819341809124 6.741010574382372 9.997002898959943 0.7072408027740787 -0.02369065874872049 -0.3100907249803627
Ni 6.571861402900542 7.051529813598664 2.0082889764915177 1.250680736907691 1.1579294759158831 1.2439498459417608
Ni 0.8267853130895997 6.896586386362437 4.874892686300843 -0.5706373204840108 -0.3383867437115785 -0.3507509217038862
Ni 7.272360399145624 4.572829072659385 10.355181035370787 0.13236373317710753 1.4118199995555942 0.10977787745679157
Ni 1.0150325038352916 0.793861896926066 1.0123297464301122 0.7856584207520341 0.6100623592488525 -0.48749941421225074
P 1.0700774715379286 2.1210367608201626 9.455282880897403 -0.17876083238440826 -0.1059343353409853 -0.1642976057712267
Ni 2.874628580558647 1.8736276860394954 5.363386071924183 -0.20311894951379858 0.554544014466574 0.5533859896027308
P 1.1053627072447474 8.021800475565877 6.6690681030244985 -0.24620498206999536 1.2154609944734487 0.8168597860555028
Ni 2.0693553467550325 1.3944358551483231 3.348108785763458 -0.4835887663039349 0.6511627288335882 -2.3088346979951333
P 7.545972198312213 5.154192282163445 12.593839525545281 -0.04907336048788322 -0.6330223104791357 0.23845773402440867
P 4.98331092638328 7.287986717815786 7.394035806357908 -0.14247048259380626 -0.22037927925614303 -0.07678393902927422
P 4.2529890322187205 0.22146388679042509 10.790958278848143 -1.0635167680612523 -1.2407279965703537 0.5157344977985441
Ni 5.29766113404774 2.1048880373616137 5.606915603776358 0.481551681269248 0.4047116921910578 -0.7245677240883005
