# total energy = -340894.86307254835 ev
CRYSTAL
PRIMVEC
9.04204513199986 0.00000000000000 0.00000000000000
0.00000000000000 9.04204513199986 0.00000000000000
0.00000000000000 0.00000000000000 13.23394703461547
PRIMCOORD
 96 1
Ni 6.389326103726723 2.1248082711129963 11.56301524555362 -0.15254612166225343 -0.6221665987115543 -0.82638752304028
Ni 5.033986831828358 0.48557229119289885 6.114612496747332 -1.108140320307898 -0.3070105433931422 -0.5505744882958646
Ni 2.843885952772509 1.552021837744222 4.79029196069552 0.6218956044383548 -0.8170629032052443 -0.08609570334850333
Ni 3.309759244427352 4.265060355322017 4.757035318677267 0.002192636775944611 0.9321817332589751 -0.11614238622223867
Ni 5.180250953983682 4.652141265642693 2.5751012147902284 -0.14556223414525254 -0.08027832533577788 0.1776521727012618
Ni 7.3239028471646614 6.0899168630659135 2.8822477334757837 -0.6476138351400653 0.044996876425664446 -1.0718733675560639
Ni 5.015224588166619 4.450476532925694 11.450977072655366 -0.5093753883497356 0.5030363335055853 0.5989965883529942
Ni 5.555125103367804 7.729773127282491 12.446050523294863 -0.14872803346774385 1.048761978349581 -0.09325725409394907
Ni 1.9050684901647597 6.454193735548081 0.5356254362598505 -0.002599642406376168 0.39382744117838625 -1.2820775060514178
Ni 2.930662459963696 1.662009274805137 0.4179124758328681 -0.26730242617024286 -0.5892896454778755 0.43999185554959064
Ni 0.6070584970560469 0.16527502205836328 4.643381332312817 0.5574174793596272 -1.0804832207122617 0.7404337445862796
Ni 8.623416532379855 2.4605936593647333 1.4036979377064194 0.4495633012881096 -0.03463867311979196 0.0653067916276101
Ni 7.043255850165592 0.4214379692322476 4.627964645352208 -0.6478593754919681 0.7835668283303279 0.5660525293268058
Ni 0.6155589236904571 7.437633690912786 2.4429598629362403 0.6867380548350366 0.03734295942483246 0.3659826510519762
Ni 7.495620326383984 3.703639772691945 3.946217047045702 0.8884542104640377 -0.27297967906067827 -0.7541315537883464
Ni 7.631567475036635 4.032010683930368 12.56718137678408 1.3528815733481734 -0.9192441992617006 0.9845684743908075
Ni 7.5817458063252205 8.751180630182446 7.085997597533806 1.1184471015505448 1.3137365277175956 0.5292592717578563
Ni 6.931803601792292 0.539464688625525 0.18184728238763362 -0.4193073306170456 -0.027345224782172262 0.9028511026156579
Ni 1.8355532471423728 6.433433199910802 9.0372510458554 0.5065700576904566 1.0508389154832676 0.5944166822917957
Ni 0.22137910373179012 4.78956226765287 1.3865469864883049 -0.43818154181372926 0.35372234562738436 -0.19677115291889982
Ni 6.355463644684209 2.1576308949646177 7.160742759464121 0.30278724934041407 -0.3491054156806633 0.41014700427401624
Ni 3.5765628703198558 4.4725933753337 0.5116269442585866 -0.6481583947896257 -0.2896854218511334 0.02663354342712833
Ni 5.83928041388049 5.408255164188222 4.8679088761617235 0.4153856269651362 1.1151555752834665 -0.6186220758934056
Ni 5.192123159250122 3.0897572441701078 9.237705048728396 0.5099212335508766 -1.2600017571983009 0.2892755880072244
P 0.290439531883726 5.591962395260781 12.455605252392386 -0.15075869074452747 -0.35245067800381236 0.12446581848626952
P 3.991194892176589 6.202924343202984 12.501037912393723 -0.23137640169759505 -0.3412728070101219 0.8466377886488838
P 2.419895414197751 8.521820113207179 1.4455707445368524 -0.5584153244965222 -0.09060413274181815 -0.830108423535293
P 6.37900913022405 7.654615648093876 5.71746236496077 -0.6217953314150646 -0.8279805785590127 -0.26960870570591633
P 4.700461954861168 1.0181433246050695 12.697919403232623 1.7844443242938042 -0.2692124987087621 -0.4735722626081973
P 3.9785812392088173 6.172868585163648 8.069505368237047 -0.06713304620307148 0.6349853477427774 -0.5332269981563527
P 4.880353442885411 1.1627979627257958 3.807234483840161 0.29344231779040436 -1.310798271024878 -0.1049305766668193
P 0.21269964460364377 5.6147754751444285 3.5516872999401876 0.7770709361933391 -0.41160636242836207 0.7454869907394709
Ni 1.6235715409227012 1.130038633190142 2.6651446128898426 -0.2571815356861571 1.2485906871478818 -0.48859084750421666
Ni 1.7802701831674936 6.4510018936143005 4.8827043746213405 0.6222576157634638 0.06558601343092577 -0.5259708308145716
Ni 5.863594473257076 5.38022482425984 9.261605886642169 0.26167942355651064 1.561119332145776 -1.0159798988225535
Ni 8.717046909785788 2.4522026414764952 10.14805544062759 -0.29761804643464873 -0.31240420360488774 0.8242031137944514
Ni 2.22801417432027 5.086087095914595 7.024221440945194 0.31755412323694343 0.7062730395441708 -1.6020672353130474
Ni 0.6313861195003407 -0.2591323547972651 9.060291081072016 -0.3224137653220899 0.6320224084597116 -0.21296293218741388
Ni 1.3957120034403718 0.8537806449011495 11.388552601430346 -1.1279131320594509 0.9133910829150335 1.0138865066286347
Ni 4.0698606848788215 6.8158845831207255 1.578690445674793 0.7583013688953198 0.8213916124875853 -0.01070118846758802
Ni 5.509923919722004 7.859164793209956 7.841960493925527 0.07569507684046964 -0.6286681472754979 1.3337705635503352
Ni 5.176525631386748 2.9531500262223687 4.88157954420615 0.8707573074049068 -0.49106013498031564 0.24269285515167882
Ni 0.5941880500063506 7.494770374140994 6.822218535740026 1.1612904219683162 -0.2324578076872319 1.382148954853723
Ni 5.045036210987224 4.519910397541837 6.891644262515545 -0.46152921540073416 0.06196924261394488 1.2095916801768651
Ni 8.034137408679026 6.942807770725466 9.040850684024914 -0.06478845723029487 0.7484676706343497 0.8617887853577093
Ni 4.617365560041223 0.28749996300930125 10.458325081703876 -0.7383120702575866 -0.8245517553831219 0.12730148816285172
Ni 8.432891599273102 7.255771037048418 4.9242462425997156 -1.599077556557104 -0.38650031138935365 -1.0290398173303053
Ni 7.208915159142329 6.098732857075647 6.995172966734252 -0.31387358906156265 -0.5017692938677036 -0.48721916396767057
Ni 2.321617425590789 5.277254014226159 2.607418388318625 0.02036442258896493 -0.2998096547693288 0.2725783298572015
Ni 2.3555793471298223 5.197439881791377 11.385535270967733 -0.06556210217152579 0.10604617832850124 0.2976231886409713
Ni 1.0174742132648438 3.5029063706241788 3.8270456047379304 -0.12495175698375253 -0.7205807144160945 -0.38352014571510723
Ni 3.7393648930329246 2.7094307415676586 2.7035760173406818 -0.07381765731209868 0.3219298837071359 -0.29362615166643624
Ni 1.01065651123065 3.415560214589286 8.166496673820845 0.2566819703419192 -1.2310408511895765 0.3964409675418334
Ni 3.407087818294804 2.7884491740302804 7.287617120025114 1.455841656552183 -0.10551241731221828 0.22802548294749117
Ni 4.043828636925979 6.826319103210194 5.899032056562662 0.14664543990710227 0.8676136195696025 0.4316745939331469
Ni 0.8143582323031651 7.323432660817475 11.238797345647168 -0.73036093373131 -0.3356012105466413 0.1820569866371768
P 0.2334574676273812 5.464361054270676 7.925546063387448 -0.008722981695294655 1.1974879549347957 -0.25573220483414016
P 8.606715875009622 1.6244395772559672 8.148697407966322 -0.609817333117582 -1.088629246858164 -0.6149546543441474
P 1.744499852600823 3.2276574745726077 10.599782452663739 1.0744974354424723 -0.18467822631010775 -2.258219704051743
P 3.9307578624729427 6.233251362596464 3.7813091320199494 -0.6005302513887013 -1.7247687628100423 -0.2191037549778291
P 6.887361949938099 3.9710672996989835 10.512505016171897 0.7754745382404967 0.10262378291051358 -1.224877145581026
P 6.239363785109879 7.673016209950088 10.22941757119003 0.08826725707852541 0.1947196697065098 -0.5908420775666599
P 2.380824737155642 8.48319249637684 5.7129892652309096 0.04836605000821348 0.17333786159662407 0.9843789840878209
P 7.077534243284462 4.061858474931525 1.641697224606712 -0.4641288578071104 0.4938207284445882 -0.5854695004008369
Ni 5.394592633984421 3.068707363088407 0.4221459613665676 0.10662159121599703 -0.7247402451104228 -0.23987029810121913
Ni 1.6398200960360243 1.1859998505503855 7.029118612592035 -0.8544472573909736 -0.8851737399405529 0.033643656196374314
Ni 6.654728212622806 0.7624252460519841 9.309922959042588 0.6137097261934528 0.18519064717015202 -0.7796955183003798
Ni 2.5000621863929227 1.4800923686699392 9.422636572712667 0.6065936839739617 -0.010373887035156328 -1.4234038477384516
Ni 6.468552503227523 2.0606911290381076 2.343904258447394 -0.484402777564798 -0.5793826707768086 1.3675756850252383
Ni 4.184450522915074 6.669656629145955 10.334204023887459 -0.43651572407553213 1.4408726939471763 -0.10901246004567679
Ni 8.486619431484213 7.3846292223127294 0.1627893638498755 -1.013751266602351 -0.069149562412468 0.5289823639473858
Ni 7.697013797746837 4.014622831129633 8.313657766853877 -0.5926097109900439 -0.8285544487846117 0.0064231299175244215
Ni 3.0000059041284572 8.396840965307149 12.513477958094843 0.9855838030291992 -0.2191700894393903 0.26093303230878934
Ni 0.19211000361947664 4.95834108220228 10.221622424076399 -0.5898336909068035 -0.45732906127645756 0.13034078920980777
Ni 8.648074189471693 2.078006645477737 5.918604467468782 -0.21635678836031125 1.147473570689882 -0.09061441715446329
Ni 3.780334399554053 2.430438438828878 11.276804678181026 -0.7136847586272096 0.530342477519706 0.5385388972875692
Ni 1.3856391651564308 3.1738392219101152 12.649006460057596 -1.58503290553858 0.3483014317221292 0.7975680277054265
Ni 3.1272726894484486 8.374199684281127 7.893890767563167 -0.30197015275575734 0.027429299855546308 0.3939392841659022
Ni 5.388787641005704 7.779676174400149 3.7429708606340335 1.0150615007733421 0.8285009698388569 -0.6368866785305484
Ni 2.960944269131486 8.25130020676288 3.5028005786960623 0.3370770237612195 0.19104839150250968 0.7671914722960982
Ni 3.29240755980717 4.4520046385540475 9.036178659302012 -0.16789715019702697 -1.0248172946085254 1.9487362736380762
Ni 7.219530520134562 6.070214246709804 11.428082614365474 0.34138336444605727 0.4168478133329595 -0.4949851810663346
Ni 0.5450002286591235 0.4998749981924841 0.5497156551986884 0.49316458291782805 -0.9744378137147088 -0.7268536919089998
Ni 4.692631543771498 0.3970443398584449 1.7138753499222952 -0.03133352000595894 -0.8124315750808201 -0.23963992725796796
Ni 6.058486714165574 5.675700775285536 0.33037462844104576 -0.04481561365279379 -0.1596919886784153 0.8373188252408031
Ni 7.890992792096378 8.697687891144929 11.2260399241617 0.25995935554161037 0.47629377530441847 0.12531582519139062
Ni -0.04572290965027358 4.926657756038071 5.7250188020827535 0.11954884080062636 -1.0865849627346256 0.2193798914573512
Ni 7.912368186803053 8.975604190512264 2.4644121150265903 -0.18799829182227623 -0.1690217507197734 -0.6641709681677981
P 8.59888546391995 1.6472797832750292 3.635352439399324 -0.4309716543288513 1.5460927768299568 -1.0723809033201015
P 1.9146982682369296 3.21716870221231 1.5887614755497064 -0.39041275906988243 0.49708063014278264 0.7104613665939054
P 4.52278576789578 1.1902134435847809 8.291054462417435 0.4617976385707724 -0.8899354229952545 -0.07121184425813543
P 8.455659468931058 1.7183683421514606 12.270754202609847 0.15760219602892211 -0.7399454920959514 0.7931508724743372
P 6.413983760818559 7.576356747422861 1.4770542415035082 -0.17504404565445336 0.7860978222822977 -0.4238119033556185
P 1.8678966426016703 3.1194603624490544 5.903584726289739 -1.8023464013852057 0.6546506873821887 -0.0173523752355185
P 6.954987405526604 3.818211526637921 6.0004440180145195 0.19119494438270299 1.0704356066682728 0.6811523332171431
P 2.438928919213636 8.305706192359354 10.34802026885861 0.7546938540497196 0.376787454976964 -1.740826073383221
