# total energy = -340857.6340118659 ev
CRYSTAL
PRIMVEC
9.38395243175921 0.00000000000000 0.00000000000000
0.00000000000000 9.38395243175921 0.00000000000000
0.00000000000000 0.00000000000000 13.73436292832366
PRIMCOORD
 96 1
Ni 5.808150389408699 4.844033740662463 8.727171405026397 0.7105490412117054 -0.6099777699548463 -0.521920572004598
Ni 7.217526193373984 5.861817212918105 0.7273867443304123 0.5202886928281297 -0.013047062991945272 1.3186879581856
Ni 2.7567049149695286 0.3627498157560663 1.0584647824983353 -0.676981489668905 -1.3076000758025543 -0.6408343503243867
Ni 4.0847218520303645 1.0835180584915873 7.1224620640573155 -3.1636959029950744 -0.874856674285261 0.5449455721448615
Ni 4.9294183231265425 0.449873244591241 4.665109921139153 0.05081913953439635 -0.45715011249643206 -0.526303531563642
Ni 1.683865794256172 6.260635187939907 3.4157089217098497 -0.6715186667821209 -0.5188858989433321 -3.5385362615479963
Ni 4.922643109527349 4.418293206338601 10.850269980300228 0.1318176308656504 -1.864400747513789 1.6963549875540398
Ni 6.645949655525089 2.0213877925052124 3.734964118307656 -1.4335777029476602 -0.6690779185511122 0.8335737563760741
Ni 4.818650149546371 0.8008124179152498 13.344897058756782 -0.8806156882562254 1.1322127878760695 -0.7039289647920264
Ni 7.724400379745812 7.3142278223763295 12.7137070867921 1.0388917704237204 0.5950987959604848 -0.9572931836146223
Ni 7.686873954284348 0.8952224857528818 5.552665717819262 -0.9372514344723987 -1.0737124776473315 1.000301054634716
Ni 8.689558647203281 7.9996880059867435 8.659501847815168 0.31901579538413444 0.1509283835531723 -1.544661700810385
Ni 3.0156175443536832 8.022322099063276 13.006660941733646 2.9159130349149973 1.269779148300039 -2.5388360737220728
Ni 0.09556710916281275 4.5444792136354994 13.137604612873742 -0.1668687089325126 0.37560860417751435 0.9131041478022339
Ni 2.9420285899978955 2.824588426294416 9.49916570526419 0.213411075468426 1.1432528477403148 1.5246893714535161
Ni 3.8480773415809573 6.145822530895395 6.585022468079817 0.6861958091783215 -0.5819321766715397 0.9350122607292348
Ni 1.1189987823399976 6.984766639198906 6.93187023817772 -0.18153068182006155 0.6807286154161631 1.9305747722377007
Ni 0.13690717286071982 7.5389547133368495 4.715363801177606 0.31346838320334397 2.4696345750257467 -2.4833149007263167
Ni 6.754493832397494 6.538888143124531 2.834278295494593 -0.1763943890347607 0.5305306822711121 1.4542791971610696
Ni 6.845734001130129 1.0311086845975457 0.7468471847210055 0.4521657719079632 -1.2935351130690562 0.5440387440598758
Ni 1.4183093266057722 1.5311232017989984 8.206007336010728 -0.5927146119990243 0.08499527119547297 -1.4644859624907425
Ni 1.2273646641176865 6.440319107603848 12.241972986798253 -1.1764064516741481 1.884663097307251 0.01987231344389481
Ni 3.4424466171505466 8.120891134583959 2.7966317554430056 0.8098815549654568 -0.42349462922551584 -0.2903857903522677
Ni 6.335425288196937 3.879419742441494 2.325474768518895 -0.727179964900167 1.093078540878769 0.02838472179028015
P 4.81810588030987 0.5674710586942582 1.7860026084616383 0.6112016150596185 -1.0620676943195515 0.7515848761070928
P 7.162461160963915 3.3682570898441377 10.351754080289624 -2.6208915455629316 0.06092948849552087 -1.9845417133724597
P 7.08263187829308 8.452538778659735 4.196671465211838 0.6607781404361652 -0.05972261267161327 0.563587612726081
P 0.04439078660801502 7.6458660824997535 10.626825875626425 -2.142636532767084 0.03923606268248726 2.037012529577666
P 3.235342788709813 6.14151529676516 11.637757185873573 -0.04887050044845777 -0.4268409199899294 0.10065740321276213
P 1.1301938374976686 8.749569022503621 2.50830700419742 0.7101325224995769 -1.250780238600033 -0.44967668693752233
P 0.7230391592050569 5.321536156167979 1.4927193767924873 0.915797892584313 1.1870564751888266 -1.5885072372404256
P 4.072888688112659 8.43396793695225 6.041416677010864 0.6508313136360985 -1.065471834905094 -0.24156516930513883
Ni 3.494311721808088 0.514324106145235 11.388423695051824 1.2837929460806279 -0.8974867529799512 -1.8173565016407927
Ni 2.061644948101531 1.4881728518772388 12.710823398233883 0.47881705594690444 3.3607331650911667 1.098832926864043
Ni 6.119434856877482 0.8486302239227465 9.765434414898216 -1.7063110703254871 -1.341300039158161 -0.003330607035129748
Ni 1.5398315095830037 6.7046556614482995 9.672713458484205 1.8694894748906061 -2.691447244294307 -1.5035644165494428
Ni 3.8374359396121402 3.534597029261467 7.456372179045511 -1.3829480537162506 1.4511951589191072 -1.410838095258299
Ni 2.4099772594617503 0.5027067731316587 3.979146757682593 1.4236352470229674 0.2392010399483364 -0.6827896117102499
Ni 1.218984794666052 2.4636816187805683 3.1011231798031225 -0.5632387140270945 -0.15307988267853637 -1.6262541169718958
Ni 8.692664735432274 5.62094053995729 7.865793081831482 -0.37040829092349753 -0.1553339688200357 -0.22811547155813616
Ni 8.643614816480769 8.09068419195819 1.2722452930385517 -2.3982728354533087 -0.07590205064495316 0.9872161964263
Ni 4.454487110565873 6.369085525288777 9.808930910846946 -1.7626362272797773 0.3755402128334242 -0.4167364845660758
Ni 5.007605414135523 3.7820800046791136 0.0694525081583851 1.2151030969133978 -0.29644948004784427 -0.22960722561231425
Ni 8.4125068379199 5.145849800206611 10.664334471578416 0.2327257166366379 0.4742980850306283 1.2476635473479223
Ni 7.630298105545373 3.0874141638099615 0.3485002841073462 0.39826387968318505 1.5278834529107814 -0.6688791722767448
Ni 1.9592566439729922 5.493975664615054 5.469036872840514 0.8659925390264118 0.6847143395367885 3.913042119579635
Ni 3.186827755042455 4.429328734306263 2.3605519824161068 -0.4482348122846732 1.321935261478304 -1.1366775085156424
Ni 5.879993928626745 9.192078679683107 7.212888644120907 1.3654442405045324 -1.2297452723066047 0.5853262899547531
Ni 5.2603152510140445 6.434669968287069 12.33308741056935 0.09469707186426916 -0.8420360282108144 0.5278929875379489
Ni 6.40579554689549 4.906840533764132 6.313466839689855 0.3422094598917784 -1.4747482636486988 0.19477751952763875
Ni 8.699749619459133 4.356743862852295 2.690945930457463 -0.49091512476201904 -1.052807094953232 -1.3934543525642131
Ni 5.890898081261459 8.599791758990138 11.874881216288243 -0.2638052116502618 0.9828386361838943 -1.4577758974604185
Ni 3.6466789561711237 3.456137803634236 4.458572883420567 -0.8413564856452864 -0.5028021060075921 0.77341354194641
Ni 5.641894905562552 8.155405311339962 0.4677721953102195 -0.14750393125265565 -1.1650316341783034 1.3584881209016733
Ni 5.572735176717595 2.4720896400892634 8.316554986710596 2.19099178414202 0.24918360508234505 2.32530724172886
Ni 2.9087906307619606 4.664199677760868 13.493517280945083 -1.3388536345001976 -1.4186467926694408 -1.1168756432983669
P 4.149611882554501 2.5960141148689795 12.089961404229413 -0.16234176759643654 -0.0762154681203139 -0.1600830534692469
P 0.6168212641210736 1.8281065258811167 10.240945555714328 0.6476274619868201 -0.551674663338579 -0.7398570461472032
P 0.612940061427685 9.098351763576806 6.978264498613197 -1.0570334743297536 -1.528010465406949 2.4157123710859945
P 6.836143601824898 4.914835661169276 12.732551001513071 0.32490310740284695 -1.0257220658109818 -1.5723177719647567
P 3.434526561364231 0.7639419307232931 9.193370849922177 -0.3070892191498776 0.4843040472034047 -0.6224846441726054
P 2.051425823988619 2.554358750371996 0.8599163034182457 -1.0352624012012492 0.6632152891227482 -0.6004189226218176
P 6.746742687753541 6.619055248080089 7.8414830148646235 0.09480325842483028 0.6009030613470877 -0.42009203130187006
P 7.455803511532892 2.9769462767050987 6.684391016341015 1.8649828452695043 -0.5416049378074027 0.4942830127929875
Ni 4.297324676550223 5.851569936948133 4.298141080404974 -0.9148273011409277 -0.49455940638282564 -1.8856817683797524
Ni 0.331637321728189 0.8907444636898133 0.9159159774827189 -0.4878066610400244 0.9414752427457592 -0.02263702067322553
Ni 0.23611525553667279 3.950944227279522 9.006404983231956 1.6737385357061043 -1.4422844866930387 1.6896624060252128
Ni 7.924072117922609 1.2855639366138094 8.34118035447653 0.8758192953088465 0.6658000191307888 -1.0343123785831543
Ni 0.6719754440785007 0.8432485272480404 5.344053888235329 0.7105752664639504 1.7628583705929124 1.2189780064877718
Ni 5.984596845510699 6.853241163012893 5.308015757617123 -0.026060701642793827 2.4362986798777784 0.16611383304435906
Ni 8.663724626374222 2.7692418753137433 11.55278268212734 2.4899666017148796 0.3674888032838574 1.5103621561975666
Ni 3.1272115057409606 6.546095018531983 0.8979062961259696 -1.2655250010093753 0.03038838248387024 0.44782086467570614
Ni 2.337045181770704 7.667543012436233 5.026845331645811 2.278825553227553 2.0637769421557035 0.4937345964886852
Ni 6.863235072269322 6.8059741950085435 10.029532616352888 -0.28584805038291417 1.129458365059384 0.26049054545473205
Ni 6.790256074816508 1.5648491265573128 11.85232970199242 -1.26717770612145 -0.11752049751668793 1.4828809200581623
Ni 8.848119290119596 5.4250786864359934 4.598992469647185 -0.1302708552038208 -0.4075738442302013 1.8402935700529404
Ni 1.5913212561464072 4.653642731363232 11.11401159156547 0.5544550542971934 -2.78381361114287 -1.318572258543342
Ni 0.8690177988058609 9.21971441936403 12.105219710756128 -0.872437523320807 -1.7610048623239412 -1.0516457276552793
Ni 1.6538089948680585 9.008481651887775 9.694619356858109 -0.8577320987898326 1.0450745021956647 -0.15093866796581748
Ni 8.803038783013603 2.823931549629674 4.62735358884503 -0.2925072075706446 0.5930431989830367 -0.1344553255988136
Ni 3.431298481754643 2.1669985811737607 2.310092593821113 2.546469164787298 -0.22035305400389793 1.4744258473122738
Ni 3.4017390318412626 7.883646051183929 8.026128230137836 -0.764302066563445 1.22950847370545 1.0004062127540125
Ni 8.120009043062733 7.3542879149732245 6.267333453129803 -1.679509890972243 0.8259974866907128 1.4362112839157652
Ni 0.18164516570581263 3.515369310889239 6.773128484980983 0.20531055784847868 0.14303458262739235 -0.7557490347871113
Ni 5.5528787335376855 2.3410145936162152 6.141046099147487 0.48606833819267903 1.4276999040106444 -3.6164630559324618
Ni 8.14510173165587 0.11989875922008411 10.442662057108945 1.352397177512587 -0.2743361930885727 1.413916991293939
Ni 1.1459213416420577 7.751829672474957 0.2686344040223329 -0.7934781739067689 0.33811009301142414 2.152438092238538
Ni 8.967051502247275 0.5707835938750274 3.4347583449873613 -0.799354687292204 -2.309619141569642 -0.2663513751108832
P 2.7046990510266853 2.0307342090492524 5.650179058700181 -0.6404445710851357 -1.3588141367825244 1.173389262114379
P 5.628682300648888 3.9179596347571306 4.431309686648077 1.8524667150803642 0.9907026123130036 -0.33961624524330547
P 8.358042378460452 0.18274496492163747 12.95843962577495 -1.794513278494032 -0.2183987584910045 0.3831501639701982
P 8.109536552236278 2.023677476879455 2.3221378350620068 0.4720943925110902 2.7598604427613824 -2.386157026026381
P 4.777473366619413 8.428881834776677 9.660764871952553 1.8286973805749087 0.6767421199645893 1.1262439718871442
P 2.6362525025605907 5.111936196401228 8.444998772943736 -0.1580706510249084 0.09046272206794743 -0.13790831714442056
P 4.741232542630373 6.181584773314409 2.0160811674493337 1.874472272817178 -0.16808406939685247 1.3354615780995127
P 1.5295748496606787 4.070007814740149 4.35159582659119 -2.7027829810221005 -2.5024989298539353 -2.3418090960386246
