# total energy = -340862.50266722485 ev
CRYSTAL
PRIMVEC
9.38244757298047 0.00000000000000 0.00000000000000

0.00000000000000 9.38244757298047 0.00000000000000

0.00000000000000 0.00000000000000 13.73216041539275

PRIMCOORD
 96 1
Ni 5.615713756234664 1.3244731834764045 2.3150363238677305 0.3042602343415147 1.0484087087752203 -0.21598963482887965
Ni 8.338359247306109 2.2924696614450517 8.272720583726024 0.14698328286249523 0.0012896653457010049 0.20961869830552932
Ni 0.7102728458009125 6.632452048308506 4.456937408108015 -0.5339646476533255 -0.8028927823524495 0.0492286551188249
Ni 3.1635360755983433 7.661199873020395 7.417110813375793 0.24747587836261897 -0.5648065727348467 0.2367114407572633
Ni 5.152990216669691 8.431864717830145 0.1315353444629388 0.9114272743204433 0.5105750650847917 0.5699590634700636
Ni 0.6977960672836672 0.6280553977119004 7.169684417200445 -0.9526384584514302 -0.31550881067214054 0.2193163852092675
Ni 6.728678428570852 1.229203812846153 10.558410488699003 0.9746774405293407 0.9189552072663723 0.272003431190338
Ni 0.1844176325940482 4.228547059408708 11.732043942241546 1.4491781284890783 -0.4156154835877552 -1.1413710573365698
Ni 1.152671189620729 0.9484997523265694 2.158860796112575 0.4026149575630292 0.28093595779327746 0.0772549651284218
Ni 3.9595522932112193 0.6601142821423225 5.889187702808248 -1.611216248802167 -0.5445411376175913 0.17576883963561987
Ni 1.0121408928608409 7.754949287176144 8.725016471280117 -0.37109477546756087 0.13233699370423013 -0.3292205038312782
Ni 1.012244099781949 3.600007527412336 5.595333204050005 -0.8463899343041358 0.8501175196673681 0.03453068678701795
Ni 0.07843726004223951 1.3800360368221152 4.782911777204609 -0.4264699098037559 -0.08932089515402036 -0.29682383266812756
Ni 6.985945135551499 0.9164596327908943 4.091194597574216 0.8080972093715245 -0.8646748486562528 1.4568158475399944
Ni 3.6196825195545106 3.7117712405251546 13.149010230170392 0.11245491006832245 -1.1962234864000754 -0.8712494165499769
Ni 5.448443484460376 3.651695429992803 1.2942495057522339 -0.28079814666383257 0.2689918980575238 0.36036376220330196
Ni 1.031102819002631 3.5028241375178966 8.20834385931767 0.44608408449025755 -0.3620128677709507 -0.1693755345147664
Ni 2.2429209568657376 2.555150040560193 11.408569057125247 0.0053676920698165626 -0.3527216722770119 -0.05303671601100544
Ni 7.02014415622781 3.0842919250819856 3.406578054116067 1.5870458222035506 0.39290570069506525 -1.1821731789545964
Ni 2.2661331316677114 5.387082278637858 12.122531081233408 -0.06257396607747934 0.33825536034003684 -0.3302440599997861
Ni 6.158028596868813 4.254911736528169 10.026426660867786 1.5147232613797397 0.07797153157947218 1.1537807438548324
Ni 2.5699180127260406 7.663902017863956 1.2741579329466772 -0.03388251168005778 0.029483354171097608 -0.9663794621866065
Ni 2.1149443746915577 0.1418100625816298 13.280564339528077 1.0122224886626503 0.17589893745558094 -0.5345647431311696
Ni 5.835563263089898 3.28815374161282 12.529772456500083 1.4318031275457406 -0.8490384276705764 0.5106974495952689
P 7.349730767563191 9.044838769633925 13.27007288687506 0.09567717638935136 -1.6774702348343948 -1.221371960641245
P 2.6981854507687983 0.08787506385521664 10.837338451930789 -0.2279295807995752 1.1851572012835847 0.7388034080717083
P 4.900958915323442 2.313927318588186 10.894642687509016 -0.9866988904702491 0.8009305164197561 -1.6145190879231548
P 1.7153647059500625 4.791184281053802 9.812260102386666 -0.21555897504936425 -0.2793447020467576 1.0933065977291752
P 4.729794927889163 6.455799329160745 10.543113346501292 2.0604360507079287 -1.6576655414036419 1.6093439714801185
P 6.465106716955231 6.024216132428331 1.605948481170088 -0.20689281473393398 0.8878317463886903 0.30442118539941115
P 8.644705536497396 3.0393406197156727 13.130375751441937 -0.09470658494596594 0.3544250281213638 0.6932023224031416
P 5.340019922612515 6.772325573752251 4.148375923091851 -0.4021274764036494 -2.712161594023523 1.2056314099775365
Ni 6.368439361666332 7.4601621731489764 11.849727979647026 -0.8210182883085666 -0.009189894029384173 -0.8467390901134386
Ni 4.577677308623035 0.364599090198973 12.103910676176014 -0.1838261627224576 0.5116222754023835 -2.007949550773439
Ni 7.988074957064843 9.298502616823157 8.873982526473494 1.237551655724901 0.14914609484176894 -0.7977572608980971
Ni 8.644865038102743 4.648768112371845 9.552831679531169 0.17664018649697966 0.10742403251263435 -0.8212257763336824
Ni 2.9436865687431095 5.234082709318623 4.245022636996528 -0.004969171079817248 -1.4597942134420279 0.007372895425303431
Ni 7.418654225968729 6.828986173440659 9.075254787529252 1.38848955235977 1.589129958426089 0.6055644713784991
Ni 5.588551571088457 4.467011341852914 4.339334997994684 -0.8188912146632348 2.0047611257431277 0.2169892797379876
Ni 1.7874219017783401 8.491105490546259 5.748598296629908 -0.6953700194784218 0.22088732924081314 -0.969853022557504
Ni 8.259781250553266 8.627573187593432 11.08830766023436 -1.4213369379070941 0.2278064249581496 -0.2727284822818206
Ni 3.179476853685875 5.025454609522064 1.1808157170069378 1.3502801311695842 2.6519178187411163 -0.8634039523636291
Ni 2.341183328208127 2.1944793810764933 4.19403560323486 -0.31348663803578913 -1.5571312940323052 0.8347842317444075
Ni 0.7199630374482361 3.4673866337882866 2.915708110675411 -0.8706971435909328 0.027920380559351914 -0.1998305085705139
Ni 7.534527451031129 1.5171886525275526 0.4183060954542108 -1.3234313864078562 1.2229853278749518 -0.382925706664218
Ni 6.487455706598845 8.571878979984492 7.088554394762019 -0.15175679299173866 0.9805567821282533 0.15517507464466823
Ni 4.935204848236622 3.871854557611361 8.253591650020985 -0.42292307299276194 0.4089316438096764 -2.8674837357690164
Ni 9.278161470917468 5.323882113130139 7.006093003041296 0.19969835386802381 0.5687164493122142 -0.1200509772480255
Ni 4.768366169041513 7.957272382337729 2.3421300171481105 0.3747182311527611 -2.7926942014619516 -1.1872174262467232
Ni 9.255446565826288 6.358456437660956 2.0012976043908837 -0.40781501370672996 -0.5616993945644326 0.12994278244044072
Ni 5.340517192323309 6.366384605691541 8.353616044980113 -1.6881272003276087 0.13161759903970235 -0.1765733378147862
Ni 3.037989547293893 7.496612981194922 3.6957638470612713 -0.14248359521992882 -1.262273583951613 1.2078793254714486
Ni 9.337786923975893 0.7140417749108369 12.53545728136367 -0.6157820353414492 1.253077776384958 0.36409777532443743
Ni 7.441650604481113 5.108733212409016 12.039479533572894 -0.04455079002718133 0.3724250642432102 -0.14745070941721702
Ni 3.851663530863646 7.318571659835886 12.502842956048738 -2.8540762041138588 0.9778787210754578 -1.2499896243779376
Ni 7.5214201720503855 6.963699352828993 3.7892252200826535 -0.3255384269940006 -0.9035517282271084 -0.9732656477834787
P 8.90042413966142 7.586055852006245 7.186547489864789 0.13852692456502594 0.024559691617235122 1.1561443589910023
P 2.1568088548719966 6.141693755991595 6.211852882716219 -0.3251198513993433 -0.13205211547395967 -1.5825371356999196
P 1.936349488937487 5.982464241616374 2.462876485376292 -1.574062008349373 0.06276602748362739 0.8845769868968185
P 2.3259368512262326 2.297658154842583 0.3924649588981897 -2.2330971979525027 -2.62857091648506 -3.608691382406843
P 7.37730578039383 1.2110018649416143 6.234702895049576 0.4130513224050047 0.7848752627291063 0.8859437853373581
P 8.209322448578725 1.441519214460488 2.3735903014361046 1.6462719548547196 -0.429993349575982 1.4916851486133536
P 2.535925405891946 0.039459758918618026 3.8233763902773603 -0.7762538396086824 2.134761500894381 0.02818263308180308
P 9.165590867330529 1.9012309884185754 10.643728835644948 -1.2459203394045706 0.5678268476184091 -0.2788942447729003
Ni 1.0421084297717156 8.063866366947764 11.104126466506036 1.2669208529156375 -0.79734331328913 1.1481955364575709
Ni 6.776388173464966 8.611369700979443 1.7586224795654628 2.46032795291284 0.31841904234039997 0.05216125538458759
Ni 2.8810118202883057 3.0967424327465847 2.044018702016521 0.6339646197877469 -0.06330158827212323 2.6436774331091955
Ni 0.8581777461963508 4.263928268454077 0.5581852503663797 0.23299799646141806 -0.1873568015835354 -0.47173032430345213
Ni 8.874528584910632 8.702567089449607 2.8920474548889854 0.46154592757128254 0.4506719609712561 1.4293595511012545
Ni 3.4501886077527097 3.522527277002191 5.968339905340346 -1.7762355632307665 1.4076237020860596 0.6732677882627437
Ni 3.688652890196915 1.340254459958587 9.06229199823806 0.7047512035830057 0.6598497150846249 0.5237411701531044
Ni 3.6885590657231804 0.3852095123442826 1.7058368306423002 -2.362148064706293 1.3958020268607831 -0.7449645425770977
Ni 5.156039512066069 5.554624641385976 12.720031600828856 0.27092048253880435 -0.8254902080369914 0.3871178903686946
Ni 3.841643077068776 4.3757107464616425 10.243875199440147 -0.8862857420578091 -0.2716398772033322 1.243452080369736
Ni 7.754864845149783 4.593758823421169 0.7231352429052075 0.2632899625767401 -0.8188603614252994 0.12479723368375926
Ni 3.3615807747576247 7.717578999287599 9.77717444043356 -1.2891912342780636 0.8882932594061412 -0.9398814158960781
Ni 5.972640819216347 1.9375316773065445 8.169605610602074 0.31274667454597105 -2.241555613132501 -0.33323091054225196
Ni 2.915670580885917 5.1256591474707625 7.917798549748051 -0.5535891067524724 0.3402862747271366 0.9403503851126966
Ni 8.342374934781954 8.623698236828188 5.511305881862649 0.5490487956799577 1.0967022536742854 -1.4203321507916635
Ni 5.291127989349343 8.778658737648477 4.296724613248054 0.1662974098100749 1.9254636762633808 1.59984091708569
Ni 7.489576145664816 3.5722542480816015 5.832528979609316 0.5606472991508344 0.22428889872319438 0.7648407126757344
Ni 5.7487380950957725 8.766442791168215 9.60564641404119 -0.6365907445566844 -0.998841439370054 -0.09456568849272746
Ni 1.3743127439242964 1.322981374344022 9.41121208063122 -0.6664224832061361 -0.9514377532751099 -0.7554572145783054
Ni 7.208768878224125 6.58927402549578 6.0943048907976545 -0.6748022226293992 -1.5702824867022827 0.14400903072551974
Ni 7.753729569017593 6.977622904731228 13.6928037445106 -0.4059887591312686 -0.7714258220924198 0.6883059135427888
Ni 0.1619466711345789 8.390619479176356 0.6954945529429543 0.010379286351795029 0.684319418091215 -0.530080739217887
Ni 5.244722404640142 2.511502895378794 5.775210670360028 3.6980824686771663 -1.2156551127621258 -0.6337404195920827
Ni 4.462320118166177 5.741307196775981 6.083099433899515 0.49085110429330303 0.9711203193057019 -0.108401051713923
P 4.575979085648437 9.183830345024564 7.784377333363044 0.18329394436807142 0.4053904634256373 0.40000760184716916
P 4.90505904482565 1.528325617559866 0.1492766142014401 0.47775699011350625 0.8716883038596084 0.8964331149044561
P 1.3664221056832049 7.123707610336212 13.2070425436648 1.0067246987728726 -0.2266031486786678 -0.6204794408171186
P 4.195530227101455 2.960490531989001 3.6910538584797874 2.751783836400835 0.356410948203141 0.5597754380688424
P 8.669737906089823 6.479274212489176 10.789962722163171 0.11498590402029228 0.13274631332750686 0.8802017406472582
P 8.764144091561715 4.449325428553916 4.204910797985454 -0.6960709022001883 0.8737819531638437 0.8229990661840213
P 2.1842337485446603 2.096132567707743 6.901069640121582 -0.040580235415207534 -0.5481684499575333 0.23215287485230343
P 7.1458220387954885 5.141036978715886 7.8116080103750765 -0.5516939466122885 -2.330010817852116 -0.16003343117823407
