# total energy = -381169.83325430687 ev
CRYSTAL
PRIMVEC
9.24812926364349 0.00000000000000 0.00000000000000
0.00000000000000 9.24812926364349 0.00000000000000
0.00000000000000 0.00000000000000 13.53557199257217
PRIMCOORD
 96 1
Ni 1.3820126486751922 4.057228163540463 2.1353041968031654 -0.7258419628150339 -0.20615876478138692 0.28738788406620824
Ni 6.339666392981884 6.488283825506696 8.001755853031325 0.03627646583353107 -0.14963846109715517 0.11617092546732896
Ni 1.2629707325918456 1.504060206673322 11.218051649460326 -0.3674337816762059 1.1343378046388721 1.9206695973088472
Ni 5.495238233120306 5.271202308856861 3.1438940443599153 3.1015608242272266 2.7324612248128233 -0.9771035334723303
Ni 2.625118400242564 3.5425605383109477 8.399065646462669 -0.13324510734079634 0.3414198741109475 0.6695042074552535
Ni 5.669066065213422 8.084538629867625 1.3651033696690713 1.0448641859570715 -0.5284313765399221 -0.2878069738814979
Ni 8.797180951927174 3.3204112323570896 3.890177360355511 2.0955112971445073 -0.355781027928626 0.8486643321606094
Ni 8.721179828063521 2.9922321277786526 11.695559367681259 -0.3490879321791665 1.065097996505443 0.29823922495841537
Ni 7.0956916880329635 2.837011531170286 13.375594821994197 -1.895442704421258 0.4396301013347977 -0.13861254230029676
Ni 3.7091655816796156 1.2381117619243476 7.906547290112862 -0.42312413325997456 0.3974735225714058 0.07804840756399462
Ni 5.451198642972009 3.276991266849685 1.7103683925169286 -0.7203056063778369 0.05659615122748963 -0.401930787011811
Ni 2.18015392304911 6.081282917729193 2.689531618508607 2.6822015573263225 0.6762271280013838 -2.204557695751913
Ni 8.218997176941567 0.8662056539567498 12.244250859386119 -0.35419619994000934 -1.0721608168894954 -0.7768763036840298
Ni 5.333617931265695 7.249774764778197 11.917759538344447 0.9160922838962804 0.36752942671380573 0.06955142583657699
Ni 3.8302975749098573 8.507279853149623 13.167593303736448 -0.22810698691770392 -0.0897942352460131 0.865037374201994
Ni 7.456414958451775 0.6389726515088717 8.173685044247193 1.0853086671253631 1.2958719887323489 -0.5647901176746144
Ni 5.766633825831765 7.117165843497967 5.732652500749675 -0.13413008104891094 0.7319239073430556 -0.6475228180881557
Ni 4.334144889246154 2.578554070885848 5.458489867850824 -0.5992377578295228 -0.4109322191794729 0.37313134628161543
Ni 3.6589574895092856 7.882624230096982 6.825731404937427 -0.480585717811553 -1.186101310364409 -0.02043178549179062
Ni 3.166439133159479 4.759928746958808 6.24732937410816 -1.7682967679996644 0.4804170534441726 0.3336379161726835
Ni 6.515334602739743 1.9478686677457058 11.030759466401882 -0.16446267059418126 0.693788791034231 -1.7183528319813697
Ni 8.469769442053128 9.042237873336164 1.4953558676881102 -0.8335012512669259 -2.0539404156812564 -0.2649485812260856
Ni 1.9626564259664383 1.8345328472359625 1.759204987161221 1.2184954104243981 -0.39684205963499397 -0.478372255100002
Ni 2.2346069064160106 5.796264831047042 0.1041644510116189 -2.3498923872673916 0.8336719725168351 -1.1185481459047832
P 8.62336236796303 4.314353893253429 0.12692687084194373 -0.47985089652805746 1.4053765579230957 -0.23914576123036876
Ni 1.1206697721525622 3.1510317502978524 13.430332647733328 1.512356560919776 0.6148988614055475 -0.5561946626961195
P 1.4923798197860265 4.839166715961459 9.873075907678437 0.37958378677517857 1.0382757341062763 -0.22256574538450055
Ni 8.663785939684617 7.716999488398983 8.227421297619031 -1.5173902666889414 0.705607895156346 -0.085471182390627
P 2.0170076799146845 4.640433672556002 4.4119873155874485 -1.3441249102014659 0.253006578372861 0.11390115559654576
P 7.299936616303684 8.325683592722912 6.585028502646836 -0.382440025277051 1.124806210999353 -0.07350861071211211
P 5.362583071195235 6.295044170708566 10.015916958849486 -0.6172185106776595 0.42401913427041815 -0.6434252509800145
Ni 3.8396381851681065 4.065070576905805 3.4415404511486405 -1.3641273214653216 -1.4147842243902409 -0.20926285762800734
Ni 1.5949045775315192 8.940231010812912 7.500818000068538 -0.3459231612979397 1.660099090545799 2.518052047097186
Ni 2.8676228380562305 0.43568490458639775 5.281552814798477 0.5262734496566549 0.3426995121543195 -0.4364524749377644
Ni 8.716315312226056 2.471266526721545 9.566359860810243 1.2134190243427554 -0.8519982816298488 -1.0939552870567675
Ni 8.840711894982203 6.823805944486172 6.058711009355621 -0.5759980705752918 0.5999874915113539 -0.16593488426433356
Ni 3.576121998337864 3.9898093033596376 0.5663646661637843 -1.3704650907578915 -2.109846739930573 1.251152791448103
Ni 4.833654831096195 4.2479893197750185 10.05213818076776 -0.3488002257354187 -1.297673817827778 0.3609571728129267
Ni 0.5852696914013215 6.351171065418776 3.981650603983571 -1.1950199530102774 0.2979101237537708 2.6611167116315655
Ni 1.4683069400808564 6.573486837694069 7.345442959706397 1.0072558886859944 -0.878283440578623 0.12883232298508138
Ni 7.175706499868973 4.019671511799128 9.135347110978763 -1.646460673826758 -0.10657813957257127 0.06399064391934786
Ni 7.502757332713246 6.418173759796017 10.167284784929548 0.672626812244635 -0.10449117513655554 0.2599398151575846
Ni 4.4291231737532994 1.114473525743625 1.0171924571233077 -2.6291589277780463 0.668195773056475 0.010162542355298626
Ni 5.623223089916254 8.69486890114796 3.7728241526218245 -0.8247816120057408 -0.3835106326334105 0.3459792113468557
Ni 2.1634795465187904 2.443799583684912 4.14078870802302 -0.5731346329845678 -0.5466054763457876 -2.0757932498902893
Ni 0.9200464111859314 0.24544164357408227 3.1214784293659115 0.6628699899681874 0.4965334993900609 1.4779922245072934
Ni 3.4746330310368507 5.913392384433895 8.486979285250728 0.22020264446896273 0.168740986254561 0.9864399803819075
Ni 4.6199953075354765 9.298808715311015 11.045242961179548 0.3075509892776445 0.28474093336166445 -0.23121185109527276
Ni 4.825423996314174 2.8007218730976438 12.424653186362988 -0.700351017632781 -0.678900818178805 -0.060868553350598396
Ni 0.15035515595800508 0.2022954226841471 9.874132044006648 -0.6828469473107465 -0.23082592851076375 -2.07603030560176
Ni 0.4431638664832748 4.434274381588789 6.102403794667599 0.42038308017972764 0.7664409672833188 -1.3815378036322852
Ni 8.565977727713094 2.634912168820273 7.1314051876708655 1.2274068539814154 0.13634482931204261 0.23527213720757545
Ni 6.171146986916724 0.6895238492639355 13.14450165051484 -0.5710592385127777 -1.6598607492827475 -0.3490218548279215
Ni 3.2037368372896946 8.243153289807454 9.151751442143201 0.23522997111573032 0.23532073105732376 0.8610717046860267
Ni 7.26127943721509 1.105872765802861 4.990172940198851 -0.2046320437242153 -1.9729169846493377 1.0864713199748965
Ni 5.518950435795703 8.965006748319693 8.615811270660197 -1.91342114327655 -0.807554706604493 0.07660293336671968
P 3.661676439426043 8.208953708881706 2.2012359578458467 3.5124742743536213 -0.8332852786013779 1.7015499014914182
Ni 0.3830205093620172 5.176473723831867 11.871129547272053 0.19350276658027318 1.109026322457277 -0.38771901428780325
P 2.8285864856799248 1.7927035599111507 12.881506133345528 0.7065648597529767 -0.3778506061341557 0.04770964737113719
Ni 5.014132067917708 4.3080651655548055 7.591993453943809 0.16614057251723646 -1.5668153540892886 2.334280134651431
P 4.277555588087515 1.7304174113078772 3.46461915698969 0.34411207623112994 0.1199815574626708 -0.781925436072163
P 1.5777123057789602 8.035357080012806 5.634519679451354 -0.3688082934262294 -1.4982334912548327 -1.5578216352311105
P 7.007316567609372 4.522982434655248 6.634568879905636 2.7868997062673615 1.9730141723488341 1.2265069678749652
Ni 7.655628904563597 3.961879953874576 1.9995287161641004 0.16894847427967677 1.4669969018380542 1.0458980265382245
Ni 1.9080184800201665 8.275188808554557 1.390319318114756 -2.702272359934269 -0.18692922712781354 -1.2193945251998999
Ni 6.470592154789834 2.591492203312868 6.369095788985645 -1.960174340271689 -0.7347544348133153 1.2865219149760165
Ni 7.637197383529251 5.387405049346858 4.623087881862564 -0.6775463610334396 -0.20064940492738348 -0.39266555965980116
Ni 6.6348204290135815 4.640914575262367 11.67918185609083 1.047232686189248 -0.12387137943538022 0.06004760011119981
Ni 7.002008141581418 8.809980362419667 10.410234982559498 -0.013132423616899964 0.10328944151897049 0.636076266814111
Ni 7.42020853353985 7.3204952070008 13.14052218061967 0.7789907789238713 1.0120317128080827 0.0429955297249195
Ni 4.581550835413159 5.191871858564525 12.557030904419001 0.8578637392716904 0.5989251116851104 0.3776163786361626
Ni 4.063951553300609 6.185620308752524 1.226490563062451 1.8631262516767397 0.7621590520785132 0.7971661642813175
Ni 3.257551699757765 1.858198809266516 10.352329672648635 2.3805278527650615 0.3677934790084698 -0.49796946050563917
Ni 2.218607643300396 8.498198190502492 11.528029511415737 -0.6792479171055785 0.2797936166587181 -0.5510367726442639
Ni 3.039064652875457 6.2144467267475365 11.148613922725666 -0.2567878997921642 2.265503639307666 -1.0435362111742674
Ni 5.065237228597987 0.280454135036166 6.240751179972821 2.3131441240037645 0.4195598129474839 -0.7852791830357443
Ni 0.405017184113745 0.7807621904161933 5.774599239312389 -0.5121709488170018 -0.04809634128659459 -1.0225526669440648
Ni 5.290031499436856 4.896218423568525 5.531798861371728 0.24135176774275208 0.17622161090232233 -3.194523429898892
Ni 1.87960822782874 2.6036719891644653 6.294189643591871 0.018145560560775202 -0.5354911116001809 2.0537298423323467
Ni 0.9594008991987556 7.204107503931431 9.678759770668368 1.8703497660083723 -2.0694428821922295 0.7250050687360353
Ni 8.715547717521668 5.279664346863097 8.013247578087661 0.235723108702065 0.15713605502578099 0.5503189206416329
Ni 8.67626166566321 2.108952578120141 1.2750645108440357 1.1130200169977027 -0.40891338897723123 0.6724090398068742
Ni 8.359152571460143 8.271008654260767 4.132356264029484 0.5737105600926958 1.5204015427114395 1.5496871790494344
Ni 3.6444471751576097 6.691677925912308 4.503609454091902 0.014674057072406986 0.3392105251644545 0.12231766179501516
Ni 8.972442244010418 7.945631732759804 11.446585863654084 0.28623680118090056 -0.9605975653975071 1.3647487570994046
Ni 6.534394996543952 3.0776663431902396 3.835926911013022 -1.9231954490544945 0.013446098202576843 0.9632357743513024
Ni 6.335412253656345 1.0732083742858955 2.14546974016541 1.6832773284344753 0.6341942193000497 0.8175251875536437
Ni 2.9008051247954354 4.072968479044959 11.47086867588684 -1.8400344028542828 -2.359137045794111 0.41697868248386893
P 0.4968224355717759 7.573810707578717 13.438900114409808 -0.7094712347664942 -0.23554030326729758 -0.2416826687196096
Ni 8.961002308476305 6.20669679467188 1.8954807915774854 -0.27948816960315737 0.07176848809255383 -1.8554995883694172
P 5.567012962045326 2.3225288685201417 8.848013292802882 -0.24006698749305752 -0.5022578034683478 -0.027892869755526156
Ni 6.588505799139016 5.544447527362031 0.7083770849792487 -0.9984382903943642 -0.19913682493759896 -0.2953107384577107
P 8.29873454490852 1.313807697532038 3.2590674680957123 0.5091905260324392 -0.15292433093727859 -0.8667548711137332
P 1.5728570380704643 1.6617223093293891 8.977332654608993 -0.14382468262885553 -0.10680902463645477 -0.8813636221658434
P 7.272081251850371 7.08393731611392 2.98562249000482 -2.492454144023424 -1.68790531412479 -1.8808174983089156
Ni 0.7630464745640136 0.7601712312676873 13.487155001741975 2.380531195199171 -1.5776515254728443 -0.10632205769770721
