# total energy = -340868.16945056815 ev
CRYSTAL
PRIMVEC
9.22570317901828 0.00000000000000 0.00000000000000
0.00000000000000 9.22570317901828 0.00000000000000
0.00000000000000 0.00000000000000 13.50274915086097
PRIMCOORD
 96 1
Ni 7.431875734026451 1.2975858966970715 3.0961938895989305 -0.9510806270460073 -0.5172684179445672 1.1742163860013648
Ni 6.98993688476709 7.495357796146854 0.38283807347829496 -0.759403343710247 -0.8932030380029327 2.7722667868455355
Ni 3.939310587265979 2.5474841347543578 5.376510892113099 0.08864880878766024 0.716850815060017 1.6709771709108836
Ni 6.857160567656664 7.831911440406743 6.537963238389817 1.1829432243514015 0.17655534009265722 -0.9882580074272528
Ni 0.2796531986366082 5.050675669561025 2.5459296038043084 0.5630101429560562 0.4677237742472202 -2.2349285947342867
Ni 0.6763510456832045 6.036045326426869 5.95918138215189 0.00556849522671299 -0.22329413891009284 0.22673607471210624
Ni 4.893764913487225 6.197181454459853 10.678121992113029 2.292147210037123 -0.9911432993948479 1.1968022417216808
Ni 1.5760545150726335 6.995389275220972 2.8114748574627857 0.18929618469809337 0.44426811432744134 0.49417425512926505
Ni 0.714566675086103 8.110813666821784 10.867863334767508 -0.11202013652374902 0.09439573857376647 1.1846704914551534
Ni 5.960320756468394 8.07395698346602 4.084419824103559 0.48050884182703046 0.13989115190240425 1.0448281905128136
Ni 9.14314215179297 8.468660233531011 13.228913541381289 -0.104650069311923 0.02787384359213264 1.1693117496108958
Ni 8.356946196295732 2.153103784293235 13.162290127400402 0.315823770809398 -0.8669083659724619 0.2976147040005391
Ni 3.210784501019524 4.809497342580706 9.960127045804148 -0.8104132590992108 0.6911914626206999 0.9136726187111942
Ni 6.144908621445145 0.9861722930240298 6.3252812627359765 -0.4896000054950213 0.3358598635246668 0.4809114765820879
Ni 3.656801110990586 1.2063805971588788 0.24538155725238023 1.237604106229391 -1.2432610474048524 0.06749762863134182
Ni 7.556948589158889 7.512342315310298 11.614807614418583 -0.7573292347900376 -1.5897403383165782 -1.815937766916395
Ni 2.2241601485500793 7.482598648942593 7.147545103985244 1.4469070730667146 -0.31613076052685557 0.12794657794601835
Ni 5.847352023629514 2.5817299441702763 13.189539163685655 -0.17524819124545946 0.1295406619060156 2.106345925866166
Ni 4.165432567003092 8.203707270003058 -0.014981619049167604 0.3930003172914006 -1.134857167477452 -0.30950194235642825
Ni 0.29176193378164944 1.5087345605176878 5.198004610532623 1.2341169190117391 -1.5397899745403805 -2.14796308718632
Ni 5.026181428181913 6.759451147526279 2.4081206657250296 -1.2099413502068002 -0.5740460890552437 -0.5508452254587481
Ni 4.917890126747632 1.3160096255234695 3.8087069232044346 1.2404474892154573 0.5033314961485009 -1.6793751651665914
Ni 9.222437068799925 8.330247011907352 6.518006197730195 -0.4293012086049639 0.20899006358259492 0.4289520527956613
Ni 6.678615538123725 0.26816258559039957 13.015110642816879 -0.9361869977636263 0.821596786519856 -0.09827913278857267
P 8.554413142615322 7.009052541316063 1.857465210124579 1.199940016019714 -0.02026569222757155 0.6781917079269223
P 9.068681503141063 5.876163893997487 10.941156009423713 0.6562365438120699 3.291778492298324 -0.3621663626296795
P 2.4003249467173653 2.8024825647802167 7.213141697225832 -0.09122711103779771 -0.4053123018895342 -0.07443703606365246
P 5.9604960448247795 3.214972970166837 6.435545019464741 -1.5261703268744167 1.1024311857382627 0.0839927980728876
P 5.52876082304764 4.330987806757579 10.05765748729696 0.5175422404312442 -2.4083057942092783 -0.4706386339011701
P 7.653606279150963 0.13698877308545482 5.016149398774891 1.1354163824150316 -0.5219696800749785 0.025644182930665515
P 1.9642628702483975 1.8351860600279997 1.4389605689733473 -0.7122061171991542 1.039952864698383 2.189278143885023
P 2.1786774329195624 8.005649878693538 4.857843716412383 -0.22944190367904357 -0.21706409883998104 -0.055535828283775325
Ni 4.134637170497074 1.0879871509750203 7.918836013767946 -2.0985032898932956 0.6463907613662416 -1.6650093833632231
Ni 3.0247112978649815 0.6132583082280364 11.539071051046248 -0.4048564452990382 -0.051158268041369956 -1.6050669413713194
Ni 1.3472755328808368 1.221132496204152 13.003376471212325 -0.06811675027257946 0.634644676573907 0.5678430455683253
Ni 7.559679397237313 7.904739139633376 8.919997306403516 -0.2669897800258305 -0.3028286441013107 0.605204516935919
Ni 8.750431653568992 1.6475998415867628 7.067851636610086 -1.9424100743097321 0.11494862302445363 3.667887176040709
Ni 2.5349925329361587 3.5125664707943383 3.017013371308774 -1.5206833356179166 -0.7523868031830978 0.7348765622134763
Ni 6.007833126751794 6.2218233070864475 8.082380972845783 -1.231739162808182 -1.2283396502083297 0.5460953694785885
Ni 4.215103751780922 3.774714820620127 8.228345432348464 2.6653258646169062 -0.17720762896467543 -2.1588933609455783
Ni 5.856955980418838 9.12746768245093 2.0172433146807243 0.09152407345292625 0.39697601410969696 -1.7193648181856518
Ni 5.661057403603748 4.8432172869274694 1.0510511265737348 0.6271663659189909 -0.13239124398093327 -0.42408701139387606
Ni 4.791101290863212 4.105059566782787 3.379184024998938 0.7849973901292674 -0.6635006815736508 -0.26301228343532124
Ni 7.123598869362411 2.1142451233934914 11.147369844726933 -0.5087668082314593 0.64712738242195 -1.442245148814671
Ni 7.201177805617383 5.996919120141064 3.4132656169020326 -0.2974128724023781 -0.8367768366944041 -0.7469334933780105
Ni 0.1389344738413323 0.10601716565275542 8.923642381646035 -1.581893845688966 0.7858674514390466 -1.5094010778358777
Ni 7.606426034174398 5.092126752994679 9.601574712817895 -0.09067123853432771 0.23621418940587063 -0.22379833224002102
Ni 3.7585237119119 3.0917821584398 12.019836271244968 0.4584150952517847 0.15445567998014045 -0.6708303824658447
Ni 4.998273676704771 1.9652038919510981 9.78151282349895 1.7197070320164187 -0.02055159889910654 1.9723125182961194
Ni 3.157644451925857 5.703329574601523 4.115043622534379 -0.400777133023342 1.0393496838967453 -0.2781925907201854
Ni 6.835221845999592 3.068487258446483 8.411767168470105 -1.4051716410011412 -0.2142921925217987 -0.29559176003323934
Ni 2.771954713660261 2.488725632553392 9.416209121080971 -1.6781904008298714 -1.695007986607842 1.1138785083432559
Ni 8.79092326389401 3.9542931288854435 11.419639713278531 2.0170710534587326 -2.5829793438981903 0.4278066263373083
Ni 2.1965107167560305 5.0689794642488435 7.6185615238580455 0.788915494236751 0.009684060056983322 0.09538869861465507
Ni 5.438145968499377 8.328881607868139 10.479983414617394 0.6757836127060619 2.898766347932382 -0.32822471557691213
Ni 6.751683105627516 4.482575332219045 12.190821759766214 -2.676223228255701 1.4839191315146896 -0.9585350264415234
P 3.064686268823811 5.290036533056717 1.802778933213534 0.8180810600571136 0.4102135958458935 1.0453367547181158
P 8.14043739905091 0.2957086895112104 11.49093410067194 1.6418918235091529 -0.4470950422532751 -1.1093636511920377
P 1.755180763892535 3.454905827246523 11.589166618160592 -0.45067581762599795 -0.08842358015073158 -0.31913200924702456
P 8.649936071142374 2.52477967975097 9.22194533883175 1.044393159857924 -0.5270969739992148 0.23744034850348789
P 5.3242177625518625 5.812331255164313 4.542284081825678 0.5361264311913347 1.7323776855055522 0.36402141356054724
P 2.1269027878651077 9.196475940648957 9.028450980210028 2.2555526987425414 -0.15968247559671853 1.229060330424438
P 8.337673702796309 6.141209114555117 7.73482014237519 0.3540211078147258 0.8605158321825567 -0.3200270102574682
P 8.043890417494447 0.6615779275211058 1.2817176875927125 0.45102008833929425 -0.9048959009598286 -1.2321255996133234
Ni 2.469748361548935 0.8954790200005417 4.070376459046202 -1.2174667120495677 0.9358185586806141 0.4792613425731746
Ni 7.333806511480326 2.6629991616123094 4.925897114353256 0.7396580427625198 1.0692073906881263 0.7509310445731777
Ni 9.240279578339361 4.12259762812429 7.277076741361946 -1.1921405745799534 -0.6432928391672083 -0.5156200837078668
Ni 3.1034065441790397 5.7727529894330925 12.278616316917267 1.0751438107772195 -0.5509493551367802 0.42103639749301036
Ni 3.609039646727059 8.897839935586111 2.558339096866095 2.2630418080307346 -0.9040029568319141 1.2916728630493366
Ni 0.3546701571774645 9.143363568664194 2.9768695699856362 -1.271627000142055 0.1363790249840877 0.30151969548190005
Ni 0.22186616295813594 2.453538801434773 3.255296672697844 2.4741350339992616 0.9076593226375788 -1.383006931978644
Ni 7.178371867881351 5.47233642369749 5.9654603955916725 -0.04082911820122001 -1.1983634155612135 -0.9983647568439515
Ni 8.755422758874492 7.283129725079022 4.412455376813417 0.00744231521065815 1.1905930275871754 -0.5593416929655335
Ni 3.1696655428927056 7.61792126007209 10.873966137280611 -1.5747045270293782 0.5510059194063285 -1.0915189097011329
Ni 0.6569733791699515 1.409807347595572 10.806411849870285 -0.04701879195169967 1.7131399203218625 -0.8735778075728375
Ni 1.1803364376812016 6.522655029455594 9.227346065349012 -0.475523215686981 -0.3274479853118877 -0.33210219625444737
Ni 1.6400624422621926 5.996337900854102 0.44231341279984726 -0.9888866421501873 1.3972439015136324 0.8717772640289889
Ni 4.170036192783949 9.042249864138743 5.354164394384855 -1.4186750748042147 -0.4792011787592005 0.36666116517623953
Ni 4.823889439210241 8.235083885796037 7.385814566819863 -1.6020893468002344 -2.412697238408754 0.21101583576337204
Ni 1.9863399774499853 3.9655208093970735 5.4225416144998935 -1.0589386617722665 -0.3489331517688571 -0.5774368599043475
Ni 1.0255291418840267 4.018181121936422 9.336016543175262 -0.8048915579500332 -0.10300687728154517 1.7111910241256079
Ni 0.916568054414294 3.843944495689376 0.42933653900555013 0.046252088989004216 -1.4830778665603168 -0.6388923961066674
Ni 4.117883293907822 5.290313304145747 6.29147090650013 1.1746699285990156 0.06926474783409362 -0.042235768740759516
Ni 3.642630431232275 3.2476596357812224 1.0099681486884906 0.8383359536514079 2.23910972269517 -0.17889221575594996
Ni 1.898317545435632 8.83638752811859 1.3647499368718639 -1.0213000254838864 0.27766140080706375 -2.415605156084169
Ni 1.8005896738993108 0.5122211770372187 6.880514512148975 1.0870109945284505 2.0249471137726998 -0.1098069309225141
Ni 8.454637165020182 5.8100248294224 13.146249397650548 1.9595138238695544 1.8572011444415562 -0.14027398916311973
Ni 7.639454050798586 3.6155714444281557 2.7182924897786256 -2.4240008363470316 1.211936783370274 -1.265644557306375
P 3.890534295676011 6.763076848792565 8.789465602825121 -1.1107595030982997 -0.33011576195203796 -0.5779893899737077
P 7.9200907093715465 4.044861854918867 0.4735950038522597 -0.6062650969899495 -1.4575907780328057 1.9954223648407055
P 5.023164623311492 1.103993745623894 11.878462521538987 0.12147382573748111 -0.14460758354146708 -0.9322925478052266
P 6.057356700282142 0.27505141799634414 8.482305048220166 1.2056056989459236 0.3326197593208142 1.144694208172532
P 9.10740177849629 4.622769114515462 4.453125965776007 -1.0177657870783827 -1.314031433250195 2.309455619408584
P 5.630363489830375 2.630783006849274 2.04261492041206 0.1278334494069218 -1.0204564465366683 0.007619721328786877
P 5.4912122119693025 6.457235569711985 12.914474829705156 -1.0229812698410512 -1.0998238300224028 -0.9407908150842249
P 2.0327083605653966 7.91222118474014 12.887064343617968 0.5838970137073944 -0.09269649649447262 -1.1723466797824778
