# total energy = -381177.6095094344 ev
CRYSTAL
PRIMVEC
9.11726515533562 0.00000000000000 0.00000000000000

0.00000000000000 9.11726515533562 0.00000000000000

0.00000000000000 0.00000000000000 13.34403914212821

PRIMCOORD
 96 1
Ni 5.873533596482265 7.307387633608611 12.91416099595887 0.5644679584485053 1.603348158908 1.1060564411956757
Ni 8.709531822952032 2.5699564328223197 5.233518914006496 0.5015011278079815 -0.061887481533416 -0.35180533111032963
Ni 8.528034427950669 3.1464958044155344 12.02128443816659 0.9334094350184892 -1.4223993177333374 0.3957210586566733
Ni 0.9330700206879182 1.0060081409476709 9.244936829898256 1.8075292311377256 0.5736881914951926 0.9845121672315755
Ni 4.298352834087614 3.9378652919688184 4.447754720995174 -0.0154502731167992 -2.5791717972266417 0.3042162684774567
Ni 5.830545691854173 1.5424133118679568 7.7855927431941305 1.3715266992531863 -1.202576939421929 -0.7144350065296728
Ni 8.876003965179885 6.953054245386733 1.46340035791707 0.5496177808095501 0.27974065193359565 -1.035693318091081
Ni 2.2310950433605417 8.81299454654049 11.136147526660377 -0.1465503090901347 0.2803348338741688 -0.22216285351912707
Ni 8.289636181881669 8.581379545655647 9.67987231136618 -0.6490593093373401 0.6182713774222062 -1.0792737737851927
Ni 4.7173093968596325 7.933707272279108 7.912628155524039 0.3958575842345376 -0.24295073679875573 0.3535446823989395
Ni 8.102185212814105 8.052587291037472 11.788590864828405 -0.07494354338642577 0.5364177371795085 2.431209952500961
Ni 2.7631695133904044 3.000382515005185 9.77975286152338 -1.0199429972353595 -0.8051304134337166 0.15842443481990134
Ni 0.6323880902761074 0.22141825167253112 13.264855683706289 -1.2237242629235052 0.1620412056368822 -1.2748545059404175
Ni 5.0113503114217925 0.1190404826229358 0.7166297957231152 -0.7396184477738359 0.7458415458654123 0.1963867729962876
Ni 3.719470325381054 2.3048172484130864 13.108783605700975 0.19791426538440754 0.34310368957127363 -0.22169825517788272
Ni 0.9311918640912297 4.687878865334822 0.4965463116513376 -1.6654510988863318 1.6700338331610074 0.11689391967628254
Ni 5.543005387260162 4.7652570936653875 2.624585261443868 0.5322006137743672 -0.8474091195972696 -0.5386108881760853
Ni 2.4903627090888647 6.369102537322121 7.181548406450963 -0.6445472803995996 1.0329854322416148 0.590230669234906
Ni 6.326196688079321 3.612761855441036 11.987297097578553 -1.0675364307436066 -0.7692421841775396 -0.17995819512661912
Ni 7.217126709787167 8.368938153134085 7.5681113265626205 -0.49440771129630984 0.16917293158565705 -0.2930576807574759
Ni 6.464988813668598 6.8231149841439835 9.399780812303698 1.2553732572873542 -0.14654619532507662 -0.6742396652577098
Ni 5.627859772917352 5.852035085535702 11.2956759598395 0.6081543435928624 -1.5539140726465883 0.2622044428220452
Ni 7.520412531092251 4.191863178508375 0.8954667727880028 0.455674299281854 -0.04729441421058952 0.16350750576976358
Ni 4.457202942748323 3.36965910061528 8.290598053342594 2.167751582667157 -1.5367465597283663 3.6677431942636773
P 1.9144888978430201 2.840848611467041 7.769153402614086 0.12046081109193447 -1.0880864869808164 -0.6459241061424682
Ni 5.38513994322296 8.785952738454187 5.729023122264623 0.20661333582030222 -0.21674528204798155 -0.3210348826966923
P 9.005897640097471 1.0429512988592355 11.214290693527165 -0.2536241573522019 0.0466845485407325 0.404613990270929
Ni 3.546479338654986 0.8344166544040866 8.859880993696466 -0.7570667251572704 -0.8132880095438444 0.14030124285662934
P 2.6175394390267757 7.898131704122413 8.57965638256451 -0.16727622878357642 0.8524999038566157 1.7160534944242318
P 4.888814269385408 2.3067865776600995 2.989318713888284 0.3476450290850529 0.21884767310296502 -0.21297938724764612
P 8.531754272083916 6.4010676685259575 10.419972682462381 1.6026315924569494 2.4758967538853747 0.06930022905771936
Ni 5.194826152935201 4.863021526608554 0.2762613360223424 -0.617631172735046 0.8113298573762092 -0.3355197065764286
Ni 6.427398329939728 0.9653451389028588 12.467709497028434 0.593233717727288 0.3158767355345205 -1.0023720782311318
Ni 1.1638188813946784 6.721266016466272 12.576743781278234 -0.8066550776083592 1.29571849387362 -0.0950994495090104
Ni 7.847895573793509 5.915828588967888 12.778919133373236 0.7897727000307238 -0.6873654040063903 -1.6236236213275845
Ni 3.7987540621034053 5.803558587358063 9.428337909838397 0.15694682183311034 0.591002000183292 -0.36269035345394957
Ni 0.6042567690184242 8.405698965745 7.877613299166842 0.794068242082284 -1.2271397163629576 0.30953536669752496
Ni 3.1398128491467348 3.9513588442168723 1.6909299123408652 1.523405619645086 0.5363195210387474 0.7173835476350355
Ni 2.7524567269772535 8.615168129865976 0.26477540553443785 -0.13829269706703282 0.16374867524629216 0.1556191041606223
Ni 3.9219556644871596 1.7185588722952594 6.69948122339769 -1.7981169366848904 0.6082502457407782 -1.966951768204838
Ni 8.053526369335817 5.3640699437329245 3.124080096606706 -0.7753228431539808 0.10248031535411384 -2.7468447472280046
Ni 1.6464321886233966 6.69666763540867 10.329006994053927 -0.128263852076121 0.41798526937151237 -1.057479817838553
Ni 3.578243890028108 6.83820405777272 12.045316637065676 -1.341911704600231 -0.7669176498094211 1.2316463459840594
Ni 1.3085281119900276 4.542440253536876 11.485094434701072 0.059112489891440134 -0.15481074932671401 -0.5469237789171549
Ni 5.039185321565921 7.951413000972162 10.788802522085884 -0.7028491014642863 2.824908324300651 -0.7176085191616479
Ni 0.8050636196320524 4.503117489451836 6.897773532315363 -0.1300602818549115 0.3027322277327625 -1.359304960376014
Ni 8.486432347607513 6.221594306361804 8.058478867701455 0.28731126519200195 -0.302077367757583 0.18698244896325214
Ni 2.1616944219333867 2.984181135042488 5.224257596186514 -0.8201878219874714 -0.1562438822288148 -0.5063042056235797
Ni 6.967350116957645 2.2599785389834035 9.64745952244925 1.1588062220938817 0.2946399376429313 0.7381740020178255
Ni 5.924097948352338 6.8011514926807655 3.6831553470302265 -0.2522432178442753 0.8510942817583407 -0.27304729907382
Ni 8.19463428024334 1.919640152586365 0.8764627455543242 0.2652547996125948 -0.23742055100914597 0.3097608524447697
Ni 7.185644793630051 6.853439007641976 5.7382434123919595 -0.8148455838389514 -0.04044679516113679 1.0110747482114522
Ni 1.5314087729737667 2.6805944439913323 0.7210626099819016 -1.3684264630613077 -3.189771002815571 -0.305792354715325
Ni 7.354952405283003 8.773407381769509 1.0866357625358078 0.29624559156715435 -0.01247524964887529 0.12916450951351946
Ni 2.2249955930538197 6.566062813818551 1.2947801880475673 0.3505033244694544 -1.1475838710155009 0.2665796890716054
Ni 4.698482244567584 5.8937739248543455 5.427714835745081 -0.18538553678977748 1.8837053613796721 0.8280872793402061
P 6.763679533397318 6.299246052643343 1.2927224213297392 -0.40058455739656174 -0.0479022229979175 1.0787891208392903
Ni 0.8673646267784234 0.3358463099155408 2.20857175182433 -0.3850802911133755 -0.20445592315766725 -1.2416175982641584
P 4.022455276940066 0.41472159316443735 12.127423079042078 0.789357466870176 0.1711601372190149 -0.9283890989857625
Ni 1.8121567151185871 2.0679689373996046 11.676701053170435 -0.6259751738243671 -0.10847355682307125 -0.14520356525425315
P 6.050317365461839 0.03331630988164851 9.35087489094303 0.44927559484436175 0.7194268033173093 -0.4670861406632214
P 3.7585651578402812 7.768274498264956 4.554400281806468 0.6041663054793918 -0.7072688277985367 -0.20027145276267444
P 8.817434654611304 5.779571063057638 4.944193448919129 1.9215340021916714 -0.6915496172910671 2.0866217079643614
Ni 3.057657173939156 1.46185315804106 2.0294147587568023 0.49754497137371084 0.3662657295100337 0.04904816367690262
Ni 7.750669059487258 4.608586011347439 10.295325993570978 -1.5315521600116204 -1.5302254707803968 -0.6323962468593626
Ni 2.993635738881158 8.296711179546865 2.615364971316532 -0.22259325618832634 0.4228258852932654 1.1024928922141335
Ni 5.616827882228065 0.1438449138702712 2.8842869089877365 0.11275598624850904 0.2540812994942786 1.397957125530573
Ni 3.7994925605710352 4.263752813289393 11.459474008233329 0.8756686286635952 -1.2880684335275299 -1.5396521634109355
Ni 1.1400592887200638 4.451076140646503 2.9020619288950384 0.31936572252438544 -1.1864607505863567 0.4344467573616453
Ni 2.1322091868183817 5.558869428416659 5.084692326522484 -0.9216407245183353 -0.9106667420053349 0.824046019391297
Ni 8.09490051805316 7.718229830501734 3.663979915213938 -0.6030437618391744 1.473534702956572 0.056635489105857306
Ni 3.429240427602466 4.411561913995782 6.889860657993683 -2.3061746346644667 0.18940031437612542 -2.8484249193653524
Ni 3.6059603757268137 0.8560154552660059 4.351811005878993 0.37278244758262896 0.8823542682138868 0.1689001375402446
Ni 1.0247532378544273 6.779425050108393 3.458161304011961 1.3233059165735856 0.8593202692125588 -0.5949054490027561
Ni 1.5822375255297818 4.795152605706853 9.053263655394154 0.6021526174834727 1.931101334165132 -0.71143401491982
Ni 4.660818822718454 7.084415799974548 1.6436924504811397 0.6044804942857009 -0.8383534371529046 -0.8130254999110773
Ni 2.9208161430668276 8.646531521577671 6.357754277536206 -0.23939438690606513 -0.5113962754345063 -0.07005793315935033
Ni 3.450346896152632 5.833882610856056 3.337518006196317 0.01153268322994788 1.1343079798422013 -1.0185666857131233
Ni 7.421909599681456 3.1026782286694883 3.001567759459406 -0.14650197235070253 -0.4616109764812631 -0.3788579643527475
Ni 5.543278905211137 5.5644583118815625 7.5389014328515955 1.1999233038491655 -0.3607324583966303 0.5245790926733676
Ni 0.5025755590173094 7.708674936747705 5.820175714606242 -0.9739426192458452 -1.948452680959386 -0.155910410148796
Ni 1.1516017462511696 1.0687075725759607 6.4431155831292015 1.1183427147621965 1.5872358267271698 0.9048619623980997
Ni 0.20398421747744375 3.1449549866250472 9.361336952567788 -1.3659551187026797 -0.7087857786636954 0.07059812193353648
Ni 6.402717893496834 1.8796974144791179 4.997316105357313 -1.654248545302293 1.026511651591813 0.00910504762506174
Ni 1.2464121853238157 0.06142848488276368 4.424243117929444 0.8220071345843972 1.0173518394694157 -1.1355647350674378
Ni 4.774711697504058 1.971380631645627 10.491123818775769 0.27629228837367903 -0.3418497625595145 1.4087272195628835
Ni 5.760014529562992 2.601110127438267 0.901460462820348 0.11687052263751485 -0.6032713044689482 1.1918083880515151
Ni 8.356101043968367 1.4516874075298571 7.605034426491113 -1.03097277268696 -0.13620753240322994 -0.008522692759030483
P 2.986123112494403 4.961807093235356 13.124249222375552 -1.4122280336272903 0.9578107466809891 1.6124565489671716
Ni 7.801096652381845 3.705375033640857 7.144104710689117 -1.6394155940545188 0.2968839964821016 0.8564002673522864
P 7.591107804154017 0.2132665050070005 5.61494516699886 0.8357720495789734 -0.5369880078606817 -0.1801235170598898
Ni 7.945942641952682 0.904924111806183 3.338758865967236 0.31728621428753745 -0.28047598743772345 0.3888654691874206
P 5.494073025830901 3.574824915640932 6.424007619074153 1.0236099045639855 -0.12796277589593444 -1.070876293750117
P 5.496306755763856 4.3671699505526895 9.8208389046657 1.0601802474888515 -0.756898317900206 0.09012770732603188
P 0.8756695434964994 2.2181758788095327 3.419329960512172 0.07481036024267117 0.14365781803368807 -0.12040347549143779
Ni 6.918590983564 4.498522387875472 4.849504269471415 -0.9633131645564571 -0.49823274146935487 1.7251852815221709
