# total energy = -381166.592487198 ev
CRYSTAL
PRIMVEC
9.30518010065034 0.00000000000000 0.00000000000000
0.00000000000000 9.30518010065034 0.00000000000000
0.00000000000000 0.00000000000000 13.61907165931796
PRIMCOORD
 96 1
Ni 6.25590979695726 0.26483752216875056 4.913638499121601 -0.21123797907650718 -1.0585550531806027 0.6884252127294724
Ni 4.523527198402557 8.97481828374647 12.1523381545062 1.0739058246050601 -0.693006918562884 -0.8412590408354739
Ni 0.6006158763272599 8.984095548298765 1.5455876218223628 0.016126987468849645 0.24381025658557365 0.20415304720526772
Ni 5.3814182770373336 7.0199674395385285 5.374371464153228 -1.0262113467425746 -0.3790916776301084 0.6114756946566114
Ni 1.6399821602354523 5.6471276945807585 4.5620208674095135 0.39539401433455773 -0.5249642439269281 0.05951101088143944
Ni 7.494187332596332 6.7367363678807894 4.674038486399927 1.3441675905139432 0.056674826984224984 -0.9340043882900109
Ni 4.201195759995826 7.474050922876003 10.128244673675395 -0.14553909421680097 0.384487394724383 0.685309035697994
Ni 0.6004939784680472 6.4115575443657296 8.440828427400042 1.2165349442639177 -0.020779655749512602 0.3754180854332631
Ni 3.1211342014707744 0.3718480237513504 0.1833343802559121 -0.47921043473058117 0.9184224746913537 -0.14037040553166794
Ni 6.590970721730633 7.228757070455685 10.003344032846814 0.951478119594742 1.6092169589839513 1.0189952886101097
Ni 8.374997069799115 1.960703802486169 10.099018033522631 0.6061344849493561 2.167244304013435 -1.1538223957260452
Ni 3.8968326243478524 3.3792319816984735 7.9616684142310925 0.26707822597457875 0.7547874422047904 1.2013309828299696
Ni 0.11540284350809149 6.944846720651187 6.180756509939593 2.4597270861040474 -1.6997406161968212 -0.27979027422460845
Ni 8.613032881747229 4.059701191508159 4.812026863028712 -0.2768288776034393 1.2272317618561315 1.410981819925015
Ni 2.5672526616404534 2.776395889401126 13.399518886457845 1.8610781108984595 -0.8510665138441988 -0.04524138833630273
Ni 9.001058891607526 5.757170754355528 12.84422854236151 -0.5098968080708445 0.9826458034467979 -0.16259913502288126
Ni 3.4237572684414364 6.78194093277051 2.0213149540551623 -0.8948909672283168 1.7119441002415485 -1.8975486950206677
Ni 1.5818433950170554 9.043295104047715 6.473866891301618 -0.3995743709644925 0.21506275213923606 -0.5973299992838487
Ni 1.7505649204555906 4.551284550618703 12.37085635121014 -0.756822213246632 0.854715937671328 0.8928855067625138
Ni 5.413790998579396 7.505660619650474 7.98332249882452 0.3515405074847171 1.0298795396227811 -0.3992776656596801
Ni 5.54840903897865 1.178370786203086 0.3549088739108303 -1.027831398844501 -0.4000559385866013 -1.3792598062313857
Ni 6.593790191298682 2.999841178964084 1.2850611895905013 0.9081167218899716 -0.5896555134577265 -0.10593510667193369
Ni 0.36629376175409345 1.38509466713969 13.42698870860913 0.012613317888636342 -1.8783631232311522 -0.028161292925564404
Ni 8.864384406407812 3.703126690360758 0.3407231268597027 0.6844703418467825 -0.7968260073330793 0.7610318804526055
P 4.118295910551092 1.72119777208343 11.67584779750581 0.9415258934780365 -0.10470997601558096 -0.002731282888234006
Ni 3.838154158684086 5.292935319537056 0.16310584925266744 1.4802499101932185 -0.7644694453792447 -0.7780096459575246
P 9.314578324466591 5.746265083287033 3.100763301212113 -0.5201961331143234 0.3143325309758522 0.40669504116967375
Ni 6.230394993143425 4.6567959876883895 5.087785875072115 -0.4305919023919294 0.42364221054697365 0.05611381227443239
P 8.690256571335492 3.5564863572818988 7.00293989048713 -0.15438805996699861 0.5733007262487868 -0.1357136234859469
P 8.514035070742343 1.5704631597638385 1.5674324626076874 -0.5532648906438342 0.7006893748088061 1.863109282395875
P 2.080452165097492 7.716218234785218 10.569366971661925 -1.4783910026076086 0.9434033130064075 -0.9504303950565179
Ni 2.7988027630640424 3.3906680480322464 3.2783014847883614 1.1017624418060123 0.3891068957742654 -0.29663948457146333
Ni 0.6319343209648332 7.842675632243287 3.849335263083322 -0.019498989264876095 -0.2886739498674835 0.10680028288570638
Ni 5.299179095379173 3.3066050510759406 12.745067890705004 -0.4495525026548322 0.5227721213716158 -0.5234058983008728
Ni 3.0223131888876478 9.259473047958373 2.411665397902585 0.6692586671033506 -0.9593528943571284 -0.21453696154275312
Ni 1.6047899691253407 4.6229716580518865 7.003852728654211 -0.5733264372803997 -0.3388729393193777 0.10843499027565197
Ni 5.529687016632393 2.5165022094155596 5.589620751090647 -0.6013671454676998 0.4973904480737176 -1.0631899808494527
Ni 5.419113561592347 6.781373316784863 12.815451342407217 0.86892411085091 -0.1103437772625906 -0.8132795249034123
Ni 0.31511247969091366 3.515804109917169 2.6476019612218127 -0.40104915573780614 0.4300586555962787 0.6497594207281585
Ni 3.639786329470613 3.942688551844052 5.753363074661647 -0.599338030852813 0.1201193685921157 -1.5592406270658243
Ni 1.075557851360246 4.8448350669991065 10.25339004074041 0.14473022516226042 -0.6241008396197896 -1.1959391223904372
Ni 7.888317540597358 5.152557372660499 9.27552727517209 0.30326624585936157 -0.40842436515595465 -0.12480494699324311
Ni 2.869996695952319 1.6960179547529273 6.938589917556941 -0.23630546356809629 -0.457841739246818 -0.29376113458240377
Ni 3.8592490019539496 1.151236881053143 4.28530900492463 1.6609694089658944 1.0346705332535213 1.1169941711541023
Ni 4.4487507711786405 5.315211920678676 11.161796150543738 -0.5562969926019388 -0.008218274144734233 -0.7259121539313369
Ni 1.6849354852626728 1.9657379049162509 1.75100412495596 0.2358318663657874 -1.1220654150294223 0.5568644350696346
Ni 1.3322412442138747 3.121069065210126 4.961169359034464 0.7338337227712588 -0.9708043307271796 1.2058198718392588
Ni 7.967355740303674 7.697570653879702 8.00836832156169 -0.7913960945667596 0.46663645472031245 1.4689776797135088
Ni 5.428334995064087 8.197640337234672 0.9034808779803288 -0.1595086690230156 0.5620043273993612 1.0152587043858128
Ni 3.111987209439775 5.672205154930243 8.805942292318397 -0.24209353100478306 -0.2460949388546923 0.24919774614973209
Ni 3.7518951392259337 1.538872073349553 9.38807528942778 0.8574392501397622 -0.949262600000662 0.3900656601431089
Ni 3.2228398198825983 8.568321491402413 8.292502926206419 -1.023998655361972 0.6902643228207402 0.34444374853893583
Ni 6.154622911649602 0.9794260358238734 10.503749633203126 -1.3292017132327303 -0.6615515282670801 0.39995515134267895
Ni 6.554289701805709 5.273878310707467 11.280309715756777 0.6357088561723633 2.5888527719598313 1.5474364353420447
Ni 0.520040460869651 9.073611380789318 8.702804606690327 1.2174001204776905 -0.43141928338923113 -0.0035190688968520043
Ni 0.3599085471745698 1.7044205323765207 7.404185769704947 0.8787812061506477 0.4021105071227849 0.10596595990986912
P 7.095497586349945 8.816444118570876 12.313629493640814 -1.5017440755112523 1.1212007530362817 -2.0805546758346747
Ni 7.903429153067696 7.986701209716133 0.30930046420509255 -1.0484125654299623 0.17520911047740795 0.8679442634361441
P 2.250988200654079 7.782191961641562 0.38492552385345263 -0.6541104986080025 -0.795875727604668 0.27085646207008834
Ni 0.3693644711846426 8.207271198630485 12.599820543086002 1.918298783083825 -0.17900508718473043 -0.6610661039902292
P 0.7902973199243161 2.6912907122744527 11.965539455701823 -0.4664312806880419 0.9629565525479867 -3.1637987471215254
P 1.8602357730266572 0.8479363969717416 3.9440694405697903 -1.4151261811106919 -0.09229514729099587 0.013568225602737922
P 6.915256247956805 4.6947983431864575 13.527537693135447 -0.18123680472872658 0.7025200002596417 -0.0822264502010842
Ni 7.404671500105779 1.5828204389267755 6.542506552254483 1.4740514946919905 -0.19258565408264253 0.6992130473735958
Ni 2.8578720462916958 6.46811442896839 12.12635343909769 -0.9719685262386099 2.90376071582318 0.5715624034014415
Ni 8.149439504355144 9.33988841431839 3.406660861057351 -1.51396812838127 -1.1683506712492073 -2.4123809927199162
Ni 8.108533932668193 3.9695991326717737 11.718420857465349 2.821439391915444 -2.423453191373678 -1.0398477065790865
Ni 5.265847940287576 1.009993552427976 7.246272210943935 -0.7954769495043527 -0.8395168613333865 1.6308941868470685
Ni 7.546882567460574 2.2412549822772476 3.8295198820761875 -0.7274414460916697 0.4427187675624505 -0.5856865015076494
Ni 2.5849231986362495 6.891853720023984 6.579768215417183 0.4124185739170123 -1.2315969808033629 0.6811317643918529
Ni 4.000455109858746 5.470794531826498 3.5376080079100864 0.8761663942356201 -0.7976829560167359 2.419132966731769
Ni 3.0014137543997284 8.087932263943236 4.620950572935779 0.515160627572945 -0.10612331142333982 -0.7289997917177252
Ni 7.3377021189795295 1.8044977442721444 12.329972181437402 0.45825594396610114 -0.5234195251476276 1.114440551494313
Ni 5.218326385554805 7.917042631543131 3.2774844899762337 -0.01747167442220217 -0.3177880936246204 -0.3068382794813361
Ni 0.014148526330757387 1.019847738146011 4.9466923598464385 0.40484796065860595 0.10453256989745224 1.8711444939955257
Ni 6.424882562258295 3.3734906855813565 10.140079932235139 -1.1748501629306218 -1.0765196080788235 -0.4101115230503905
Ni 0.2660444040267573 6.70075323646281 1.1661986801239912 1.6148980685291283 -0.6999090449993559 1.121432923651746
Ni 2.1313980261043297 4.683762399596666 1.2619899260689758 -2.1290909328721654 -0.36794028899897924 1.3776796062284595
Ni 7.416647266884921 4.513756759305355 2.828571895216202 0.36901038213470644 1.5885733145916705 0.21671340036878162
Ni 3.3687636540943293 3.5201775445606787 10.820733384610657 -1.0932497763493108 -1.0141086499417697 -0.6970384083197801
Ni 5.330872538774477 3.5524944350221848 3.2075225629322133 -1.2167059226241432 -1.0624847272523121 0.04467446008923919
Ni 5.769462897257816 5.779810257520758 1.5018290819190285 -0.8761985330251363 -0.9287914766305037 -0.4403536097643836
Ni 8.559909608598728 9.195537155542304 10.563115751675733 -0.954209402482976 -2.4060403952138687 1.6091022877829577
Ni 2.1753184761412747 0.7932396178695877 11.497819230938683 -0.727725810101308 -0.755626393166318 -0.19251546296633942
Ni 5.800523588406826 0.8007349404341554 2.6323489100140667 -0.25907206784065057 0.7042554948935098 -0.004476547714114871
Ni 7.646662013593235 5.491210096949604 6.96803429892387 -0.11635424512272866 0.08018499429102319 -0.9492829117156361
Ni 4.8867362929559635 5.432196644802505 7.080146830751228 0.08526806524088541 -0.6123470415179711 0.013124453197099978
Ni 1.5812013375906677 2.303274007594247 9.670643832262927 -1.2139057341711867 0.2978939258038547 -0.27829209241252717
P 4.254058488101733 8.540517613285806 6.399151878266312 -0.3955333681258994 0.6235843049946873 -0.5412200436641582
Ni 6.411957667109711 3.578976977565648 7.78076640805138 -0.01585933562975978 -0.4172913286282813 -0.6092298360452282
P 5.538350139298579 5.517292516749086 9.195597639212906 -0.3214925390594012 -0.7142591430734408 -0.38167486497625236
Ni 8.991716490794582 6.6434519374527445 10.723589165480213 0.30328321514022605 1.2265064536543329 -0.2707592743705917
P 4.0121703315952955 2.2713386295165363 1.6826091902395295 0.43962110247373315 -0.4851522541363129 0.13502585339030293
P 7.109204116626306 0.42773958797739065 8.726338337662453 0.5769360090085289 -0.3368733923908456 -1.225862906533063
P 8.063301452238194 8.375108731960227 6.050014077048895 -1.530847934855744 2.8864060265948157 -1.9922691639237042
Ni 7.336678549169347 7.106328815977701 2.278783704108604 1.0185887972003103 0.24756818096610908 1.5411498310023846
