# total energy = -340890.6009057375 ev
CRYSTAL
PRIMVEC
9.07516630080826 0.00000000000000 0.00000000000000
0.00000000000000 9.07516630080826 0.00000000000000
0.00000000000000 0.00000000000000 13.28242321310243
PRIMCOORD
 96 1
Ni 6.357998011400379 1.8743485551277113 11.40136651932119 -0.1885369379345656 0.8503409485320839 -0.087942526749255
Ni 4.730838837032286 0.4216449333734102 6.032464534663756 -1.1034388010671707 -0.7592151389588409 -0.6149384563942312
Ni 2.708510619570103 1.6291557109628176 4.796920568251143 0.08600725739975511 0.6757226775611396 0.2026890610652316
Ni 3.368048333304786 4.23855643893751 4.529877446090254 0.20770168378847453 -0.22246367258899755 0.8961281820695275
Ni 5.0256909914077905 4.577341473563302 2.5490563169157667 0.5462969439664334 -0.5313989438086784 0.36265847177474964
Ni 7.276531897302576 6.332769048976128 2.7656660171772725 -0.07248119788886227 -0.8441260779706236 -1.41808963461439
Ni 4.927497691612686 4.447267114416976 11.69237080316868 0.8693213462893288 -0.4558154528454085 -0.3032027396112778
Ni 5.73795542157589 7.773170375240388 12.517913274621666 -1.1826750582916792 0.041294744983728884 -0.4335229599957953
Ni 1.7225210222652243 6.428784308849716 0.5795482901002985 1.0251651648662474 1.0484886700835363 0.06617916693023441
Ni 2.614210566134711 1.7490023576443479 0.4061926476468736 0.24952016248615735 -2.0164210785795595 1.291371272648518
Ni 0.6513818617452315 9.05536432670538 4.657030509191843 0.2885471944816321 -0.06999622668347945 0.14545887579816882
Ni 8.552191729003015 2.484145282154725 1.4516091566937384 1.4730731899391212 0.010793748181394315 -0.9308259905620292
Ni 6.9319750568847605 0.6579105364099819 4.762957665741606 -0.03043671922330242 0.5304826026419961 0.01822552186909119
Ni 0.8604727866943298 7.5326603169067585 2.5523769202794484 0.2135082631679226 -0.5740903120296178 0.6166132729934929
Ni 7.551700015887361 4.116613428831518 3.629355950339011 -0.12237679716772473 -0.9201672252966022 -0.2106664228437533
Ni 7.864729728441202 4.110179135896701 12.54275200489331 -0.3136876983030017 -1.1517197475607455 1.477707860497655
Ni 8.184692868078542 9.036342778057456 6.760381811734498 -0.06476917395658523 0.198536986570071 0.6480069568134259
Ni 6.723255306238954 0.7184192079796551 0.18023280350561813 1.2990773830435238 -0.8923275773765148 0.6036844807469668
Ni 2.0554798001009558 6.355810896312521 9.18763850617244 -0.1241040642714766 -0.09296491966451086 0.9969467934505024
Ni 9.004425418040878 4.94945051898832 1.5760124443944112 0.029944352967916168 -0.10882939750059323 -0.5261466942708035
Ni 6.175723295468337 2.0530113548565683 6.8277231760412995 1.3150560178599673 0.6315752936199639 0.9176907387316517
Ni 3.4495161015359006 4.273713633337347 0.6252689781194981 0.08785999433777772 -0.459711445465705 -0.5659478854281413
Ni 5.721892377154694 5.285177222557647 4.882339663906546 -0.23502376864219524 1.2094006472119818 -1.0364929311742408
Ni 5.435226022817561 3.0819174137816923 9.259535603981751 0.46926052260672085 -0.9499547409716801 -0.10221934838324331
P 0.2112072537395066 5.9237240765487 12.498946176971778 -1.703024172044099 -2.397322555724897 1.3569511154318565
P 3.8089743650834342 6.17779243339378 12.782512454487284 0.8543631823175996 -0.05109913266866039 -0.28591052818973345
P 2.6166790113790985 8.413731916158845 1.5694510991308381 -1.5753812413814288 0.5445478224858105 -1.0500747836237334
P 6.621921998890327 7.815133944394969 5.9789237758096725 -2.214619965083921 0.11477584489201521 0.04440500847793643
P 4.398224915517462 1.0608869451060805 12.444515144299775 1.0421812398082695 0.2641481968119773 -0.587689133759975
P 4.171255005362602 6.207059844839178 8.340086941312515 0.014527761302529819 -0.12031477243237344 -0.6989520804027253
P 4.8794537610105335 0.9614321971897628 3.7655143009994436 0.0030750393808979294 -0.36867562450310704 -0.3271633641919333
P 0.20295611250348908 5.718634392438757 3.673466703849555 0.882286391090429 -0.9807550141819884 -0.8222040810865516
Ni 1.2515743402349853 1.0570481497444049 2.540741649515372 0.9524523105825532 0.5719113021004278 0.21114850468649443
Ni 2.0478294348766233 6.465829137848201 4.9062082588964815 0.20409648293571947 1.1979767216457562 -0.7093521926901267
Ni 6.135892390403576 5.568331487521332 9.354637902121567 -0.5115538840582932 1.0614218332054364 -0.8390792595753357
Ni 8.639966737840192 2.1120090112306884 10.188880735544382 0.5931391011309527 1.8408638407341134 0.48411635667263075
Ni 2.612513510029195 5.279024259779359 7.0534180253254375 0.11088113782329936 0.5771748644922124 0.06973345994039604
Ni 0.7052112108889159 0.1723038306746585 8.966777997997438 -0.08980631943087114 -1.3153398676489736 1.6928819414037748
Ni 1.4255906547979373 1.0678838983539571 11.520005261362913 -0.22513222056009616 0.03430134438503124 -0.6808934231288015
Ni 4.106494618362799 6.66438470219359 1.6358767791539686 0.3323456797238212 2.081370486867751 -0.8752644512466411
Ni 5.4791770534005275 8.241267455039974 8.00903576344138 0.5350275417002012 -1.3750455110397224 0.4939369423074784
Ni 5.358577167912806 2.854121663489924 4.565447560558546 0.44911078713172337 0.19851230397972264 0.45360199013385755
Ni 0.9102301087014095 7.5676541583124814 7.0209824733108634 0.3793778414119595 -0.6207267809412342 -0.34995542238578436
Ni 5.259930109800717 4.55692234929907 7.163423561628242 -0.6055109924327443 0.09553370883295159 0.23814945875537047
Ni 8.255923848678522 7.340239565006978 9.027917393627718 -1.1909216145711878 -0.011984426055385812 0.06892664776838452
Ni 4.469791677272009 0.2576957008310413 10.36028975481795 0.5844287178411484 -0.724316784419759 0.30091342935646886
Ni 8.286661437070945 7.188666136802001 4.757711312080649 -0.08690534373399228 0.6527850949283597 1.082467341021826
Ni 7.242109791376251 5.952274549853265 6.851007330318962 0.5702359712805342 1.8812239897187149 -0.6656462671617439
Ni 2.3425817624223924 5.157525932824011 2.5651411417361776 -1.4742021613372418 0.06932234054490642 0.36412760012110834
Ni 2.1971703721620437 5.155021186914264 11.89939077515907 -0.44206647869043225 -0.23456045585253152 -2.579825371650241
Ni 0.8244253184765722 3.518460140218286 3.8369068195602694 0.9680409090494296 -0.8028583295700883 -0.7747140059253883
Ni 3.7549771253624664 2.4989015026230104 2.620820917296519 -0.11922822423641402 -0.15531365710506154 -0.2595793464943723
Ni 1.0783294148109042 3.501707383155276 8.005462870453457 -0.9995724039988075 0.15193137089638994 1.1926874482223586
Ni 3.5312288992581853 2.937359089157272 7.4005277100345985 1.0433307800316807 -0.3205016359010416 -0.35733371712772655
Ni 4.32172126327414 6.848973585542244 6.051923506329252 0.2142384564657278 0.8398184517342052 0.16918912953557314
Ni 0.5571997854722555 7.256158148870043 11.047775350812245 1.014069312063402 1.0960247679912867 -1.083445131554063
P 0.2875048997069176 5.757639457366609 8.040581041638033 -0.5145325070706429 -1.1729179789049156 -0.7879482452274752
P 8.60704203435991 1.639319897263235 8.02229185891372 -0.4992154170975983 1.6014694538280485 -0.6707056839625223
P 1.7067393080005582 3.30547506139284 10.290464517483985 -1.175142754470376 -0.06775602449905106 0.6037274181697603
P 3.885414491162378 6.2362455797875205 3.624002509715247 0.86262953609145 -0.15881421405915228 3.3900020892586133
P 7.0080068004784195 3.949584992350103 10.584829335427049 -0.8333868371762486 -0.7787976890764587 -0.8664540520438626
P 6.286004716827868 7.828782994569815 10.344338334942734 0.7131674526711589 -0.6203490858868413 -0.5517857349951464
P 2.502740297984686 8.706297128616756 5.818060099822787 0.1433372014694757 -0.8526940221452929 0.500092420385913
P 6.839707840709453 3.8564647105388676 1.3782237316047234 0.08740413774728173 0.40876117967008313 0.467973171253865
Ni 5.268878223811621 2.5252376353406993 0.5437821520390703 -0.8758766309093432 1.3630947664357493 -0.4053503542163213
Ni 1.7017751920127648 1.2305471798259964 7.1144639467424176 0.1435706576365205 -0.08182818632140101 -0.7204403321834882
Ni 7.069345849768172 0.5917516662772373 9.33499288954611 -1.0716332265207995 -0.015007014931793511 -0.9791421611689138
Ni 2.7368523640488567 1.6447649970670302 9.234605214530074 -0.2057324758772457 0.11678721889508918 1.3475876719390856
Ni 6.609979079987337 1.7481492920084198 2.3967205747382594 -1.6137492996366662 0.18220868172369264 1.5618250999635488
Ni 4.209388854321848 6.546298637781954 10.614488794058323 0.04514780018123192 1.3248771177154475 0.1469801975387017
Ni 8.162422409881021 7.536117955282168 0.3031686368091683 -0.9392188426114148 -1.0932695738436526 0.3233599312854431
Ni 7.569968325729095 4.117303141473332 7.9839048128135985 1.2632585735727018 -2.5656670778719874 1.3795631964044175
Ni 2.95760578526105 8.399438529173882 12.469963725749444 0.7594948749827888 -0.4406788543142862 0.43747320289279495
Ni 9.000296217356333 4.903539252475988 10.111444156201344 0.7872375923136958 -0.5844163765459741 0.13390330975008552
Ni 9.058422657761845 2.0955920353222464 5.754875161699549 -0.9253359139817354 1.4674435024571695 -0.04989637060981084
Ni 3.207490490423547 2.8056239745707887 11.805723260817551 0.7785259234723108 0.4818432443677379 -1.4985751908649676
Ni 0.9887575230384745 3.3517402593924195 12.859896397865553 0.010253559407208148 -0.45711694526565144 0.10944800492119862
Ni 2.888834174739118 8.406444557588099 8.25020467885127 1.530069661928823 0.23422081312492563 -0.9140282022784
Ni 5.829233444620176 7.791066603262195 3.8156945257579515 -1.7241619824639791 0.1870284717098392 0.33874669815415853
Ni 3.1967273431447123 8.534431628476304 3.663584755222301 0.6375515658080568 -0.47141690682809134 0.16122770859665136
Ni 3.4793280229616785 4.30020404388281 9.660665216327727 -0.03917872708199059 0.5166338696843619 -0.5562892792924549
Ni 7.200209748386047 6.006571270063443 11.438796135372478 0.01895108718120607 1.9778406472032 0.3333013587688711
Ni 0.7538504724029498 -0.00820576540431923 0.42526047964313013 0.20874015235531793 0.18936689003502868 -0.35316235935885626
Ni 4.625884538314136 0.17829162542556518 1.1617102281064187 -1.1243927776110183 0.008461500503791878 1.3329573236204204
Ni 5.7996937781845865 5.528155726135664 0.41034725879716927 1.2318240092125043 0.522632510469958 -0.03595096417331228
Ni 8.085074767168113 8.926306386189097 11.449223501496746 -0.6559179841303865 -0.9067450383534256 -0.5765837678754329
Ni 0.4446150868957198 4.903793357133498 5.757837295992814 -2.0602550450453743 0.4734380510231781 1.19604453762005
Ni 7.961870308940908 8.754422735715965 2.6405457913357666 -0.4171684298971719 0.40917358461715336 -0.5385345264121951
P 8.516753204446648 1.6749490003127343 3.612938974430569 -0.2186432704016428 -0.11794318687640333 0.08426764900082907
P 1.7756651963502645 3.1676958860241444 1.7723799861353082 -0.43494298027177347 0.3451145493537153 -0.14898977176956277
P 4.667811806803357 1.1477816628083108 8.305990633857785 0.3528021478059601 0.7148240144379754 -0.7230276332946902
P 8.520637375640021 1.537750635589777 12.552487843342496 0.6260404798446637 1.6541176761513832 0.8060565247924119
P 6.1691891757037824 7.772816443753141 1.4865957379663897 1.6652407826477387 -0.3878118311119257 -0.3503860821652998
P 1.982941995548065 3.4787925881476385 6.034138902853423 0.1487804839722341 -2.0467490401391393 -1.5605362059487962
P 7.067576192331938 3.8853055891663018 5.796276978057706 -0.03769160101350283 -0.4899874707414272 0.648382852095606
P 2.4232962918473153 8.33225507276139 10.363437930021178 -0.8799441161104974 0.18836364558149496 -0.30465181335297853
