# total energy = -340861.2132363442 ev
CRYSTAL
PRIMVEC
9.36011247161038 0.00000000000000 0.00000000000000
0.00000000000000 9.36011247161038 0.00000000000000
0.00000000000000 0.00000000000000 13.69947073687027
PRIMCOORD
 96 1
Ni 8.700346148933367 4.725911386124032 2.3318829279574786 -1.2063878285275869 -1.5922955006382642 -0.06059215976076017
Ni 5.544434494495754 3.788645891959568 4.083593329524889 -0.44378448982280344 1.9619895391035562 1.8036854319116034
Ni 6.196478643880428 3.8260208207369932 11.62563118613441 -1.7140902000502738 -1.68395507122779 -0.8349734649370781
Ni 1.8044892673067714 4.087617241841797 8.975797408399389 0.295863011416755 -0.1108788238304542 -0.5121681206035245
Ni 1.8805963411583229 3.514038914631217 3.1018476452669606 0.22575931262113375 -0.15765490364372847 -0.6465823085517575
Ni 3.75943298118713 4.471643933021412 10.9027918266801 0.2811668428571609 1.6860109253155544 -0.2802618145443883
Ni 6.260455012073191 1.6491956426270158 4.260891642424742 0.6608565590825844 -2.080190093406405 -0.2617475577902847
Ni 1.351010542185634 0.0956098040295238 7.1187239656909895 0.7473685240329 -0.45097278004112656 -0.2773101881152321
Ni 0.8155653128561537 5.227107964214694 0.7750079458657746 0.9726226148828412 0.11847334834826048 -2.163796968894783
Ni 4.9740011650485645 8.696583383752168 4.216957146883675 0.7804663350281332 0.3917767292969446 -0.38345766790828795
Ni 1.6413986690052789 2.236823498536548 5.50655692768293 1.0204826717889135 0.47162927994921355 -0.43229782933944255
Ni 7.67716418313154 5.312921474615756 11.855425689379413 0.43799925059959405 3.2799213358494224 2.0280470928542624
Ni 3.3948098029941414 4.989585752179647 1.7198448349433517 0.09992001082610533 0.49270512678290623 -0.8498349554299428
Ni 4.180170033164407 0.7708810723125649 2.4722471733735243 -0.03006442348554822 0.10406437201178208 0.4853222040552738
Ni 6.806355486943463 5.7977378560220965 3.179400856482928 -2.0343663502040705 -1.3001505615030446 0.805939025377941
Ni 2.213797622054588 4.169171901104934 12.795771596531768 0.17400763397013902 0.1427874996135928 -0.45992356147651114
Ni 3.6376766392044733 7.449048884049488 9.977488556151386 0.33018441040644425 0.33652037992680106 1.3412033656792965
Ni 2.567422668188103 1.6769577359788426 8.708945284187015 -1.1344059388726464 -0.8947138182205043 0.3802787559596741
Ni 9.167724640955198 4.777186081802152 8.165911811742118 -1.021337306479725 -0.6893850055395805 -0.20255510659052858
Ni 0.10144115404914211 2.2671221823463465 1.8350444181960845 -1.3368008657362267 1.6754133523053663 -1.2240456508186661
Ni 1.467749863926693 0.6689531924190886 2.1257741891180024 2.276310757225499 -1.2277112725957116 0.47069571239135066
Ni 0.3682680059580597 5.615693030128748 4.264192954065062 -0.9966326046441933 -1.378796493441722 1.6952800093223064
Ni 6.530419373655586 0.843801963906206 9.958022330411737 -1.2464425304566276 -0.4418003695132391 -2.4372047366318155
Ni 9.057331475415264 8.45752611328499 11.473772722702167 0.7850529259575512 -0.13257224964348782 0.02855929969493146
P 7.198806279275017 3.1689970915602856 2.637983875447963 0.06415185208756048 1.3621550282302994 1.1256965840241064
P 3.847998364631157 5.787610214414991 13.242004658651 1.1185450605809897 -1.821298517007676 1.0439599289752473
P 4.157125436457665 5.60806453853005 8.969618798210062 -1.1838084005651741 -0.6874415086599645 -1.2078428158065586
P 2.272270244161419 2.854974680953263 10.499082691164604 -0.03847321637453374 -1.1883613100431794 2.4782806807365185
P 2.9879163572432135 9.07608914064691 0.9896362590035758 1.053667128960682 2.10107182195142 -2.4433057073232307
P 7.1062254076152325 8.209436334360458 8.73343976230313 -0.6368684236981031 -0.2870878363272862 0.6440374306427167
P 4.609115903708627 0.1951293270047853 11.126887893501438 0.7246232599165843 -1.0413492308252774 -0.5296241112964427
P 9.338125487034093 0.1238193107536421 4.220491525322532 0.542049481543989 0.9597563004431343 -0.2753062703113259
Ni 6.013544607309929 5.912792357532768 9.98292771746182 0.16489461592527732 0.18899048053221645 0.12376082199944491
Ni 7.795691286339287 4.843764561239625 5.601110911034746 -0.6798832366967323 -0.1797815603394388 -0.3654422051674739
Ni 0.16572172589461379 4.966400753787039 10.723918206864836 1.2646935062470155 -2.607236416673342 0.7640148743403293
Ni 5.05006143833816 4.990362641508103 6.340745120152299 -0.7724123543754052 -0.10594539108457883 -2.2793500582724553
Ni 6.826985174653317 8.165631008370386 11.117353683019923 -0.144199549469771 -0.4110067811711502 -0.711234497314504
Ni 6.4900211285758544 4.475612620675214 7.775874056384976 2.1226212659874215 0.08029092374126819 2.065181021592082
Ni 5.254074448013283 7.242995369873119 7.742324605541769 2.0218651324132666 -0.1382836982059683 2.8958337476666194
Ni 4.919778033967266 3.108352923378734 2.1039651272468776 -1.8976654231041898 -3.0535387878219926 -0.6859512972676831
Ni 1.5959834036839498 6.272875881216102 9.840946044624602 1.1952765491057737 1.6825777312642893 -0.6235279978354552
Ni 2.657083184781882 7.193461655099731 7.6528803075442235 -0.15857381591357206 0.6824895639713279 -0.09197761605057707
Ni 2.490819508379827 7.417935870461669 1.8882940975887148 -0.8306496407507438 -2.487024745477736 1.5879469938615813
Ni 8.487169589227415 1.497028295485868 10.631707059644496 1.1862203524407764 1.1984814291963166 2.076496960825533
Ni 3.9599827492775668 2.168017312350008 11.733172325428791 -0.14632739444605122 0.8226751071856994 0.87925326069106
Ni 5.770687131211989 2.232714409196881 7.853344898611902 1.8707958524068555 -1.187776898294619 -2.9317006367665575
Ni 5.017797130926243 7.615490402586972 12.399528086659366 -2.504227739619584 0.7303159394259874 -0.21376588770468344
Ni 8.09569224858453 6.942882086279182 1.3710570948935257 -0.6746777812363929 -0.1741318182528291 -1.2281738140544267
Ni 7.720857187772918 3.3855245715022293 0.4454561727907764 -0.8401642651093982 -0.676561628522667 0.1276025643430383
Ni 7.999049088147037 7.5837221811317805 3.655374739713453 0.8087674959656717 0.5921212013893996 0.412839720614831
Ni 2.3835058198165457 0.02115759804870828 4.278317363663142 -1.3242371701386033 -0.7999306144003321 0.041200128387393564
Ni 1.2487138738639507 1.8651895961626699 12.97396005612001 0.2628104518371603 -0.8768395090432448 0.043725980133040826
Ni 2.4560279706223285 6.967087336922415 12.43507779352054 -0.3667586099860522 1.0823207881416328 -0.8548133824811407
Ni 5.808623666732877 4.689444388248537 1.0189614911247062 0.9936298132621275 1.3641581747032572 -1.7591099592940735
Ni 8.912071891218705 1.6219109150071322 5.964270167649774 -3.4251940637787137 -0.862485811424734 -1.859647806209836
Ni 0.3821396925215819 7.834423431413414 5.493433114099453 0.742002117514664 -0.800046571152906 0.767605162794749
P 3.3330237011008825 9.018121964609195 6.1883933787970475 -0.12380530208413516 1.241980380920216 0.2670160052780756
P 6.724941229366192 2.9071479474209236 5.858044124146333 0.23219658360604528 0.41226842149239323 1.710059738734642
P 3.0931053002937285 3.8942934805172436 4.906533474933943 0.9018979946737692 -0.9894353155648058 1.2352430621963824
P 7.618335876753849 4.315929103284061 9.853330409329187 -0.29177161495620074 -0.5137136107137733 -1.0957002947723324
P 2.462168204350851 2.791999844786342 0.8675672892670583 -0.19805439050669763 0.7889476330262671 1.4479182879400483
P 6.425632915437885 6.473940455488046 13.349270610641089 3.8832813433774347 -1.6551353187826205 -2.8277200827178333
P 6.355263590482042 8.722847859121428 1.9953550631174375 0.24168755381561602 -1.211996690073932 1.3415967444629735
P 1.5244721450163994 8.366714302867113 9.141889794744687 0.6805936325001956 -0.23931082605332338 0.5508503676650707
Ni 4.4888384594837545 9.335092810619395 8.899052910894007 0.09183337716322894 1.2301725896520106 -0.3658350697305184
Ni 9.051415884384127 3.125210485794998 4.0353569263289 -0.8376664383882089 -0.3966358571614588 0.7046249624177865
Ni 8.691884607331865 9.237934844000394 2.153789941515626 -0.7716448800817615 0.39889868505370657 -0.873204997614451
Ni 2.6661624938011914 5.797148168941461 4.027904404843153 0.7665283847908024 0.35731340541275236 -0.11592949888048422
Ni 9.001217601630977 3.3901765473605767 12.369265907287893 0.4401489499527452 -0.48147866193946753 -0.7586296987690161
Ni 0.5511664741014721 8.270127303103964 0.08484754680230526 0.6735840339515818 0.367967799802805 0.36201595309474427
Ni 7.954579194177202 2.3651974399796702 8.453682851137227 0.803391833476055 0.7676455291143812 0.32567392413060037
Ni 2.9089170086628306 0.06184600661256198 12.514055613842423 -0.4219193143185959 -0.8057464497511607 0.06873612902413324
Ni 5.459454034097496 6.922907606436702 1.3164707914514548 -1.9401099654216456 1.5137331295523284 1.7670860355210147
Ni 7.897033223197084 6.753536372720822 7.069091033726257 -0.7878212327313078 0.9510140354741298 0.22578245254958534
Ni 4.63225410153928 2.697706072558998 9.465553121114482 -1.7676195394269816 0.6618526044472666 2.185137896464404
Ni 4.298060648729564 7.202971529289029 5.88379940940152 -0.5764135608461557 -1.2949559046759826 -2.9365888180967943
Ni 4.786246670596681 0.8163075697687633 0.13078136235009816 -0.44209784614899994 -0.38550760845878124 1.1077099176386986
Ni 3.8694236618942486 1.6609238634529897 4.711439716356244 1.0081917702367023 1.1563392486106279 -0.061091210884365754
Ni 5.439863318863049 0.3051284318130558 6.611940336514115 -0.7507654655295909 -0.233751586797991 -0.4801231763528377
Ni 8.500825993205943 6.607228455936465 9.55722980591729 -1.0413453741705354 1.7612095221355797 -0.12829753352753387
Ni 9.0139379943704 9.314762646506056 8.946425375716302 -1.0952382675342491 0.08061873939433212 -0.3832815473417399
Ni 6.712408038874589 1.3241002190613922 1.8223717620298543 -0.12330882206369087 0.8342342727782084 -1.888929843003405
Ni 1.4103255744076586 0.6368236706256024 10.731275255204192 0.34884959091611534 0.36090137987432686 -0.4705602152547509
Ni 2.866253616384467 4.875280059660259 7.098558539555731 -0.10708413267471235 0.12594368858337662 -0.7543038177001524
Ni 6.2689727143490375 1.356083723101578 12.230545297607714 2.2122689483532416 -0.660849874214365 -0.7525048168182008
Ni 3.6325004970522277 2.4271988244579235 6.945905402581489 0.30571007941416384 0.5097708240159414 -0.8007209715121113
Ni 7.480508221795775 9.009763384243996 5.45000593664998 -0.27062352012367585 0.22236237112444285 0.4890906699587706
Ni 7.299904853210646 8.756300900807007 13.580298776699232 -1.0062305327452736 -0.4107697254596797 -0.03474408834940468
P 0.4514204364063475 6.530587855678624 12.361073000912016 -1.6938332495734505 -0.8156302845237761 0.012266476072178874
P 4.397998568728705 6.797538261071104 3.1465084855295715 -0.844512771886081 -0.33845410661440417 1.0466696145969263
P 0.5875988395611196 2.101251630664715 7.596876883086149 1.691403042865403 1.2219651141405536 2.1805911576339865
P 0.5239875157516074 6.470926499298131 2.472864004780093 1.34818442498282 2.6864194520624123 -1.163657379538596
P 8.670412509506818 0.9766154066563991 13.574229679824882 0.5355985837123227 1.194231395670711 0.09445153151236636
P 5.476217995389851 2.9089263687752216 13.435317187840687 -0.24509529394558435 -0.031142744151391528 1.1565598492618663
P 0.4282176538001968 5.7208070922801335 6.37814438522194 0.9413680277439337 0.5936980589582161 0.40554370117405003
P 6.4911256218379965 7.049512486637918 5.256185153357462 -0.20599755661317426 -0.9564637457347915 0.17827849343135102
