# total energy = -340858.4081479813 ev
CRYSTAL
PRIMVEC
9.39723393281601 0.00000000000000 0.00000000000000
0.00000000000000 9.39723393281601 0.00000000000000
0.00000000000000 0.00000000000000 13.75380174763929
PRIMCOORD
 96 1
Ni 4.1988625391447725 0.6922876244184287 4.326519259568506 1.287006825032235 -0.9241182395245503 -0.5263212721754548
Ni 4.541372910965909 0.5386945391399341 11.821516002960983 0.09550131293311939 -3.453414492076988 -2.3863159202017483
Ni 8.893936603576071 7.356831096585744 1.9211995774052322 1.8561734745079905 0.4946110855563675 2.217746169417729
Ni 7.998568182068225 5.372577021159149 10.09841199019754 0.6386504552991904 -0.31952178848627555 1.3877506173112164
Ni 7.960340235608381 4.3413903818085995 8.112845121231013 0.16109298279099998 0.36743506722778657 -1.711483358555046
Ni 6.609262365815466 3.9183269231994142 11.461743852660964 0.49772803391879444 -0.6809350750000144 -0.8336532034637578
Ni 0.8742678730857868 4.128373889588408 5.867316939657178 -1.3853052410945175 0.010937215737794067 1.6851074396646784
Ni 8.008425880159763 2.1390077190600043 7.622136615965845 -0.6735048439742143 -0.7545424160735199 -0.599304092291084
Ni 5.528336168792362 8.978145214251258 8.007559455217875 0.21555203307082876 0.5953903590589746 0.3761912161538618
Ni 4.55939680509324 7.729017932251569 0.6037628643309986 -0.23003325740613934 -0.7855422068891439 0.1414078456572468
Ni 6.395277958530043 3.510909858605873 2.484279937848828 2.968350169668791 0.010134260220524483 -1.985116097818691
Ni 2.6273067736191007 7.985571807939915 4.955961944275811 0.6300683700571343 0.921362274045968 0.8855966864105845
Ni 5.405880817190045 5.859926955120299 10.321980636075489 -0.12707163154023277 0.2741598154117085 -0.4148608648099178
Ni 5.889734980235988 3.5619650289884515 6.439639479388692 0.2059026829065228 -0.0770392495731899 -0.9183589684432699
Ni 6.760726977673816 8.550448919456057 13.19261843792383 0.5611880021456529 -0.5371260761004426 -1.3607663754128887
Ni 0.8270101248183561 8.456100693680042 6.4522524463843665 0.016467144417087767 0.4116567560503233 0.9628459951120514
Ni 0.21952971485817507 4.8749841025270975 3.2565699711638234 -0.45084293933148156 -0.15493647627130092 0.6491295004536434
Ni 3.618188677874697 7.346437756176554 2.917635246743859 -0.04182259246274088 0.2422251714866409 -0.9254760391040254
Ni 1.0313463923224813 1.4886815620277951 12.112863136212646 1.5692185642141425 2.0538406568785983 0.06980905037333784
Ni 8.346021498785596 6.923646817343016 4.270679017814896 1.5617279122640522 -0.45982020312942745 0.6473184153868335
Ni 4.9979375075124945 2.142606859545285 10.204398689840449 0.791930626913991 0.5260201959952683 -2.120767243497818
Ni 6.528183033943408 8.098441981226342 10.09853603368163 0.15985705350136986 0.11050627098238387 1.0396911263965645
Ni 2.141206671732473 5.6560069850665595 1.992032165712931 -0.9378044787623914 0.2508108562731229 0.7243340108109396
Ni 8.966069769019965 6.705922311067667 8.102337134571378 0.3790986196086439 0.3331347512840198 -0.8725987314890198
P 4.054135743808476 4.6990490942623 5.559519948913391 2.444375543348642 0.155998341876912 1.8529871063602088
P 2.3230055537905208 1.4296293458149978 4.658508488602907 0.10502185082904494 -0.5521593162844813 -1.4456042950948909
P 3.2571093723749334 5.569467860447902 9.07262594102164 0.133070529436145 1.7603014084990136 -1.8759817674831691
P 0.8757836468724075 4.006031304789808 8.325368258684946 -0.8256511590948876 0.7900125839556718 -0.417016734810656
P 2.5724269291438087 7.164450929445645 12.923677128847242 0.18997804125646636 0.35935974641881985 1.2378565885598294
P 8.75621074730383 1.0014443948703615 5.836920647715434 -2.2430414536494077 -0.7283189636006167 -1.0824933091637552
P 7.242288215710859 2.6985002156986915 9.79911573700724 0.5163700745000139 0.13956667868344996 -1.7687791069527217
P 1.5618108342378503 0.4800915106952739 8.137656637218704 -0.9643508617923521 -1.5909515850158602 2.5442888693065275
Ni 3.02044944030888 0.6572669538009509 13.676381447803434 -1.890195597089706 0.39898147457549993 -2.092179661668113
Ni 9.461604693484192 1.5471793414556534 9.448669401374563 -0.5101014678824827 1.4219858843450026 0.6879611286088603
Ni 1.0889796262551807 5.831171420172629 -0.10731264930993901 -1.8923735785776314 -0.35499401325095636 0.015986348125927304
Ni 3.3669066502600895 2.3592882728862574 11.745320413413207 -2.4750981692434793 1.524954966410077 1.2552495872252962
Ni 0.6821122998297565 9.156128819450235 3.727143023902073 0.005013394054191366 -0.20629863279336083 0.2681570608610543
Ni 5.028196599843049 6.5257021642616495 4.38980117064403 0.5350473391945431 -0.21672471322269124 1.17760972795363
Ni 2.1427760097508592 3.314723811840347 2.640908329594021 0.025210694937672713 -0.5233557617892277 -0.4692296693687854
Ni 6.285330324906599 4.154141104237595 0.23388304952453826 -0.388094395349351 1.0868824393703862 -0.22890017224296064
Ni 5.434138298754634 2.3170195159599114 12.891685186632913 0.2274428709711438 -0.007523562070554785 0.8058379810237024
Ni 7.0547570211305635 8.95008507459317 4.530900633794117 -0.9631684114484768 0.6374345806142183 -3.298653622151603
Ni 6.063424049660101 1.0712658408380702 5.858898897759752 -0.20133486103018228 0.5202460125156524 1.425067865704436
Ni 7.905977238983456 8.119106498007364 6.260688898847847 0.6327196916370522 -0.3327897092397753 2.4249693709078883
Ni 2.1869805968076697 7.884636121380136 1.2499232276892531 -0.8351722112114456 1.0502565606172363 -0.30761578107730897
Ni 8.480730843058423 5.042771709223388 1.145408134834844 -0.8481467690942426 -1.0266885434893094 -0.02344846083092736
Ni 8.223265435706702 1.312859320566714 2.914843328628515 1.2985009417147635 1.0669090815722528 0.080646507308474
Ni 2.266631549165987 7.456394787033642 8.522790981397895 0.6444488071485223 2.0937002120776977 -0.36332695859668396
Ni 8.70865134783646 0.5188485214092202 12.593640644963862 -2.5869966925876993 -0.4988302658440377 0.11031678067939711
Ni 5.265833844207977 4.387004553911864 8.39793369687642 -0.3924565289727886 0.5278284528486006 0.8817749986716491
Ni 8.708021733182376 4.444722362947351 12.222796673985627 -0.2721124459643765 0.18419177359199243 2.0558047225835043
Ni 3.3464206809182855 -0.03880023798870426 7.150793929792231 0.14153434393278203 0.7508037749666941 -0.598612208430382
Ni 2.064177547560561 0.9010838190095357 10.280993661818052 2.3421055442331213 -1.4218745555781191 -0.821428893483424
Ni 8.84787136425794 6.79914286880652 11.759940629515032 0.3745205133196582 0.9293589190981995 -1.0522285967419427
Ni 1.2579606816241362 1.614435342638815 6.489648737666801 -0.2991856480320847 1.0367968355679047 -1.4177217097520098
Ni 3.436380398583006 0.4321496438186306 2.005634661411216 0.8343021499016665 0.041528201150773644 2.346143461747921
P 6.915320868335293 7.38882867714026 2.8166544534625935 -1.2540301129958984 1.386503889388309 0.24238997919927932
P 0.6496504959332756 3.656003146054247 10.926680404600697 0.8820254241195584 -1.3635832760363935 -0.5253211130457146
P 3.9452969837549086 8.314775696922522 9.761361411123003 0.7888437604585511 0.34845029859516763 0.7149667106634267
P 4.663847057035512 8.336558484507064 5.713301918588111 1.3056948883600417 0.38450282134335073 -0.2716383345414354
P 8.518075449555822 5.5951035138260865 6.054601926716026 0.07628128836124282 -0.271731408475874 -0.031730241223745355
P 5.962187651623745 1.5700146192082147 3.229887465957806 0.5218041010313916 -1.2751267857651973 0.5291757109051145
P 4.0063602079673135 4.750959412906394 2.279705920333534 0.2842130858826525 -0.6930585977364258 -0.6185308017311798
P 8.268306376557742 6.930469208967856 13.844301555494093 -1.8557384438531008 -0.9857285561371799 -2.5714641441697395
Ni 0.620502156619327 2.505715967511942 4.262647202220199 -1.5342754724800545 -0.37253330768630033 -0.8790606850642797
Ni 2.4161039474920134 5.114500793620631 4.473066299061457 -0.5130145277642196 0.44976693265848344 -1.6487682389140121
Ni 3.300684344777661 5.108834261733885 -0.05628379118156053 2.0937500914790266 0.22306016852241584 0.6719112742348492
Ni 8.220042184567143 -0.16555294453597827 8.448368649838558 -0.7759586769657668 -0.5703560417981661 -1.5396688755814838
Ni 1.877097420195131 6.130557886805904 6.634490179253543 0.0632481093263685 -0.07295762330464854 0.08943633768596211
Ni 1.7899286809223898 3.320465521596238 -0.26692936135361556 -1.1720291485420589 -0.322807915436715 0.7128524925339014
Ni 6.854032110515455 0.11941722596552523 1.6250119291040448 -1.23652629978418 -1.1301782739445438 -0.10080087076916189
Ni 3.861154153715223 2.493151866131212 5.919182151579786 -1.0158829682333732 -0.03263475531588573 1.1874562817304066
Ni 2.445930767074989 2.5380988346458215 8.171999767290519 1.9655230061781117 0.2887112308633221 1.4343330930564457
Ni 7.559679782004178 2.8435277225115647 4.8899717504643645 0.5225394365355194 -1.0250157837725766 -0.006973345994039604
Ni 5.88939667982484 6.930892084481792 6.767008088640816 0.3701036151988852 -1.698908350103513 0.17361322674519777
Ni 1.1473834333466086 5.97783404563939 9.745888865929754 -1.5335784464130298 -1.6804272605801895 -0.24589156459463457
Ni 3.9232980597965765 2.7784612767672288 0.9934285545728574 0.40626900937584864 0.4565749567192524 0.2437585774120318
Ni 4.3946351076300045 7.295786666840625 11.880560701386866 0.2323454504790837 0.8359905933476828 -0.41152845800257515
Ni 3.7073402334461165 4.173217488532944 10.392743684854231 1.172781453327051 -2.017372129638919 0.3109368750307419
Ni 6.799753688993317 4.9958701161110275 4.429755388924098 0.6224288512340054 0.45025569936944393 0.5132240726718645
Ni 7.684756961792901 2.3352689436946745 0.5674491343642399 0.58604774150181 -0.5213441306758376 -0.290868386415641
Ni 6.588400507127941 6.209588621743781 12.570520631031917 -0.2860573381802428 -0.4623033745625973 0.11599377645951638
Ni 6.885042981537451 1.3607288287443062 11.397321117421177 1.1836811309586905 -1.124289676374251 0.0806976722613836
Ni 2.091260374919772 5.103412057921857 11.595706116859171 -0.21951538859395098 0.14711389490308857 1.1530582638665108
Ni 5.862849494783281 5.841602349516392 1.8808600725458 -0.3632500826121615 -0.09059204855696011 -0.022905958063896035
Ni 1.7662852410765275 7.9456993455925415 11.121791407837462 -0.37873557984227035 0.47932099216651636 -0.627234757263081
Ni 4.8227730724064255 3.4825020213029942 3.867953991979319 -2.3584217648946417 -0.16972366188280447 2.0590713091499184
Ni 0.5019682706162465 8.214319269278539 13.371775757604821 1.1959584056641468 0.6662445628673752 0.31780146336105913
P 5.106184241846551 0.2735158824140149 0.050060943063146436 0.41197762972485175 1.371527984804767 2.0143713951393822
P 1.2770558603867719 6.934547608368931 3.7913590200017144 -0.7545920383645327 -0.7195484164968382 -1.2182385572185859
P 0.34900198082174183 -0.021811919008835636 1.5141283310097542 -0.015378282228283194 0.7678198499087164 0.26487093391061484
P 4.858736285558299 4.535988296088453 12.339484003577851 -1.1074705479343832 0.5117829693499637 0.12265421919882746
P 9.044395711434614 8.442888183177944 10.139289016821353 0.48782954385815985 -0.543706814641754 1.7141256812738996
P 4.79688369371988 1.8376760250626225 8.032536362517684 -0.15894611165132627 0.2472843311771032 -1.1203857133341544
P 6.9048617472906 6.480896154251685 8.730198264856561 -1.7014051483834374 0.28991116470869427 -1.1015976340933737
P 0.13636795601082174 3.0780826742415797 1.467076382159106 0.4501495128088828 0.36728928567854163 0.5265639843138803
