# total energy = -381174.88310442056 ev
CRYSTAL
PRIMVEC
9.18228178157601 0.00000000000000 0.00000000000000

0.00000000000000 9.18228178157601 0.00000000000000

0.00000000000000 0.00000000000000 13.43919754660189

PRIMCOORD
 96 1
Ni 6.65044210118188 6.014743545663249 5.2649533015653684 1.6878091548665577 -0.7701448984974671 0.8412199600674222
Ni 7.3691668492876365 5.977693038354129 7.444052030776805 1.202531430895974 1.0769829208684871 0.18457512507334017
Ni 5.679792267937828 7.7450527395493785 8.438459181879812 -1.7682440603848577 -1.7784911920341628 0.6816855800127938
Ni 9.102708206388838 4.551969316079106 9.154176732676094 -0.9256732427164962 1.1779267449734165 -0.2758446593132991
Ni 2.0706229242183722 0.427448994052166 6.312781132079278 -2.422241430453764 1.9469061624078727 0.5233197663449697
Ni 6.653417160504842 4.569562568124774 0.6427514662160612 -0.6382714746932169 2.0746635071612207 0.492874562481235
Ni 5.274688356794397 2.7463562286509458 12.844392569013447 -0.1471275217498434 0.17342065111841748 -0.46384500801810435
Ni 1.0085818396118258 6.590004321972802 8.77376673214144 -1.3577597273760809 0.6228862504863981 -0.17116579364596973
Ni 3.41306335001416 1.821810632630957 8.649454245622714 0.44209013283951604 0.34398609217622694 -0.21110531015338482
Ni 3.760502531070535 8.903324138059165 9.873496492646444 1.3719653294525018 -0.4908760439939675 1.2587234047065097
Ni 7.709829506330597 8.430381528526693 8.661992651503903 1.6658899861959633 -0.8420846220605626 0.9180411800925351
Ni 2.184510766140308 5.649233633904433 12.86648605739919 -0.7005369083913419 -1.358535429199841 -1.5369725596962434
Ni 7.5292507512522455 6.375552129109234 10.014715396527635 0.6804915597046926 -0.7051880340101081 -0.7062357585483321
Ni 5.497661707224967 2.9785026786606523 7.981794921630514 -0.36785904213908255 1.4808420352512626 -0.08672793761586353
Ni 1.5232946493299695 5.209953269674373 2.3081685559623444 -1.1406832872409258 -0.7332554816702855 0.3085228662726106
Ni 7.481502885575064 2.398356928401049 9.68369413543872 0.6495056528461395 -0.33398038711376676 -1.8926492008365212
Ni 3.6085633131166306 4.013997786407058 6.006084653868329 -0.7731345772534105 -0.906677932560916 -2.078509620380188
Ni 3.4922697133471137 1.478329015056671 0.3624806769728733 0.4973739930134854 -0.034008495734960786 -1.0152479057525354
Ni -0.4214244989231664 1.75630423383461 4.970823694309379 0.7309394319425991 0.4211790937184618 0.4890469612050287
Ni 3.140505677534209 6.779030776363269 8.21813675622251 1.9899204611858696 1.4095522865673402 0.17958718494044557
Ni 2.409623588244492 1.6655924713298282 10.870106473167901 0.17613625027736762 -0.048425956711871436 -0.13912162072623138
Ni 1.9421903478286178 9.049230596830395 8.50177101531138 -3.2842289620858405 -0.5867352544871379 1.5655493428926717
Ni 4.557598054859896 6.215449862580905 1.9516269788971634 -0.8059361971644636 -2.561628903246872 0.09757722162554164
Ni 1.8576949901437303 3.2239542550869422 13.080518619981708 -0.26768269232779707 -0.353481690371488 0.16574128019628875
P 7.831173361123662 0.07243259400409657 2.836141498915953 -1.659545274924858 -0.6212170903140913 0.935550392620892
Ni 2.1419692542783126 2.7926624760759498 2.048980285872004 -0.20249725676939964 -0.5431913084579162 0.06892921887154581
P 8.388905161360572 5.3696974272101246 2.4047698340527695 -0.12220170504244114 0.3158826490717915 0.6156953891649138
Ni 0.5428785410985635 8.712332675350444 4.654746596949236 -0.18432444251511482 -0.8521679744384938 -1.3661649207206408
P 6.596275820483862 4.635564810141615 8.809608851157652 0.3996139659531763 -0.3791790951375922 1.524111644573175
P 0.11905012078418832 2.1002449655019455 0.5783010298337287 0.9668093506351738 0.2476124039404832 0.03173384076817116
P 1.7505653076714875 2.73054433928631 6.4303198492691465 0.036445130200911426 0.4984687687395609 -0.32055640039837696
Ni 0.26564984183592366 6.156224144577479 4.391553933739315 0.12123497025379763 0.03553007458580977 0.6473286997994787
Ni 5.27610242820099 2.479684398843893 10.485396410037744 -1.5444022765014112 -0.898700313672078 -0.8242463083275612
Ni 6.302185697039875 5.182424788655106 3.1677394073057377 0.5912264574892722 -1.3557591520062846 -1.4907572374824456
Ni 3.108156498537919 6.394577817125219 10.86686788235553 0.9934547211368437 2.0770554044321647 0.08748075662148805
Ni 4.801378455987485 3.0483063853679457 1.7361693261698175 0.28621031881833936 0.7775072523998094 -0.008155539227598858
Ni 3.4772842293499675 3.848624890090516 11.532605354754223 0.31414509755539444 0.10983881260171408 0.17455373628159618
Ni 4.354504344658381 1.8354371389126756 3.8881077838646134 0.21057669134342444 -0.5620675765371287 -0.8002712855692024
Ni 0.4515001449306735 7.583802687788424 2.279637369763857 0.028824894651492294 -0.006168847814873247 -0.7508423415141133
Ni 8.712984617362574 0.8953523672993232 7.630507446246194 0.6430462703740409 1.0791344199938513 -1.008102810067322
Ni 4.621350637820793 6.113434711105236 12.866996592270661 0.04291556841660351 -0.2416101636104613 0.37392787404098177
Ni 5.5675847835964545 6.962226481772006 10.779983294930412 -1.7068481737758798 0.7356301525500492 0.25496087388575445
Ni 3.5017825573551056 4.139473668037572 3.4247781052124187 0.84195529557155 1.2648649988278733 0.8861690139742867
Ni 0.5120655578576185 4.691934838486271 6.7252969811409065 0.2158222560130799 0.17276090604723152 -0.5389687857361363
Ni 0.25320968637064595 5.798454896427483 11.317349712227818 0.2834193863367635 0.09696735595568462 -0.11119275552644721
Ni 5.683639644037585 0.8339229016492584 1.330274820558154 0.8165137155699937 0.3620925719689506 0.6649813798842353
Ni 5.39592202420513 7.322383123205861 3.763848554580682 -1.942998085602718 1.3847974482201635 -0.30916461362166753
Ni 6.15789531987618 0.12703319663413845 4.816702766185301 0.37188487546902405 0.5301738131523257 0.5633700973986362
Ni 6.484858012382533 8.509780719778727 12.929381933462457 -2.55800621889262 2.245437978906043 -0.9800561883427509
Ni 1.5451484801591409 8.113592804322323 10.897724022321222 -1.549552453243783 0.6607765977742684 -1.2323125188131487
Ni 6.997348709890316 6.479523106621295 12.539644571013403 1.129014592653746 -2.4533481791608978 -0.5795035126253891
Ni 2.4916030006994663 7.09452479882524 3.659520386304229 0.8394942356255671 0.684645433972066 -0.5552878346111341
Ni 3.7348564178327726 8.839801112144793 5.219677306165169 0.8164329829307295 -0.47229802388146397 -2.415267570239092
Ni 4.94613712952609 5.280509923494269 7.299244691144336 0.9309339768948032 1.0478674915597697 0.042604207823771785
Ni 4.537883695704337 4.939883995578752 9.66486586648275 0.6943953142699782 -0.38997438598088324 -0.3458750816688237
Ni 7.926191613821251 3.3821098778607417 7.386895080876663 -0.6825245309743213 -0.5897452449580552 -0.6550522936959815
P 0.6589508478752308 7.881685093641002 13.159326472281895 0.7710684387530011 -1.2553544882342766 0.5776001249550892
Ni 6.8134092396508406 1.8288258959727584 3.3390091650334117 -0.8815384571808108 1.1704592329517778 -0.08592832453270362
P 5.003342745520097 0.7395474086819391 11.981393971851343 -1.175276708945079 -0.10495371659527086 0.47606700400559304
Ni 1.2492861763159813 4.038771582868026 4.400289038473681 0.8499815083101362 -1.7941702933323167 0.5967260471512625
P 3.3341875488282025 4.663010650624133 1.056914616643552 -0.0018164843834484845 -1.0873724916329273 -0.2686219163126148
P 3.7746616097001913 8.821335543322329 7.554307361994532 2.078992730664194 0.47431094054643475 -0.1891437182806291
P 3.692581192144746 -0.11900604583125556 2.9549299246671024 0.5603526507285511 0.1583393313052628 1.0624492460286863
Ni 3.057754953402911 8.485126292981953 12.488696680107664 2.35532307136466 -0.3364435039422786 0.36601478984149227
Ni 6.799718457396095 3.9792428495631875 11.276507840738292 0.3018763074903705 1.802044810984387 0.3832787191282625
Ni 7.662797858638575 7.344558333900166 3.4820020857701475 -0.30392239138612176 -0.8150286463840352 1.43584104506054
Ni 5.690801823889163 3.5497599800788104 4.886223658611276 0.38930641337958116 -0.2637270501141587 0.6616343177888735
Ni 2.1051850331431616 1.045072227727425 4.023346267569738 0.9643233509885263 1.192961784929668 -0.15059902523821161
Ni 7.798943551791565 1.670385622461268 11.877737946607116 0.15197610809139633 -0.9929713537425221 0.38024738850110645
Ni 6.49210283277086 7.316754384425071 1.4445125074189942 1.380733562563435 -0.48780768948128883 -0.14092087871849923
Ni 8.354352234717645 8.316750790496865 11.6352540836783 0.5055724696638777 0.14745328052037832 -1.2440856001886769
Ni 8.962044830560236 5.8845571534380445 0.3736160301857034 0.47544042616518767 1.3890744783289626 0.5039056234844161
Ni 4.113790825672365 1.8273659131568598 6.331998729786157 0.20222137740019366 -0.8116859551640473 -0.3180025236282717
Ni 6.232905380398658 0.22519821732549086 10.317084265297497 0.45830556625711394 -0.5294271647942882 0.24149009309282926
Ni 9.492367519442073 1.227827183606833 2.6658937291594076 1.421913122125538 -1.0010165926445018 -0.35775846336997097
Ni 1.1003220176850392 2.666589746124471 8.563900170839252 0.23926994551305888 -1.0482194755825496 -0.450349801745147
Ni 5.176649133364539 7.5087926272659455 6.208036088206336 0.3002233452679797 -0.4233647885158709 0.9966351757473547
Ni 2.3144033253459613 6.091085037055572 5.769286459867843 0.2771664634485162 0.510985670259649 0.7386967072905148
Ni 5.786361831216551 0.8240455210513847 7.896388681585015 0.4694073325972303 -1.3098737023280795 -0.06453674623080498
Ni 8.258415753833956 0.08937206758126241 0.7952149924642288 0.6714495041070823 0.010975268064581099 -1.3090699754798616
Ni 2.117223004662928 0.09019204535144938 1.5156320351169683 -0.539618246394677 -0.28302446489119 0.3174595066406081
Ni 1.2794224253837707 0.7212884412013482 12.720509813285817 -1.5492845442943768 1.0714457931003418 0.055513202575956
Ni 7.189533869240967 2.466709834574305 0.6332009748524391 0.06783778557957994 -1.311820027421173 0.7552805797911251
Ni 0.28343867648523163 3.110452069003168 10.84039260906572 1.4796876099318452 -0.7008834930974833 0.8033686935476035
Ni 4.389828582977634 8.234734648914447 1.1246945484286817 -0.5726854612622911 0.736969183076447 -1.1449312638840023
Ni 2.6488863066964705 4.618127656887584 7.875450324257385 -0.9551933636628 -1.0107613307360914 2.1015500471394195
Ni 7.9550607079922235 8.031888860323178 5.9463612561880375 -0.690185904174321 -0.3697323479023955 1.1599300512856798
Ni 8.68621826573777 3.8759880900362846 12.867520900564925 -0.26498149134655014 -0.07357006007766685 -0.22674944444854497
P 4.588661714395647 5.663227431460591 4.885014352090184 -1.2704941720891925 -0.5559424374759975 0.037238058415852
Ni 2.492447770630678 6.859990955531674 1.1420215143003816 -0.3494293746789853 2.3669701686852846 0.5349192982571109
P 9.140676941884056 0.6983869120118374 9.979477471657875 -0.02716267645772096 0.2975085174399779 0.18202613339924134
Ni 8.128963944157631 4.079981663860177 4.705479622459426 -0.776474954480553 0.3038223754731477 0.3300501988214251
P 2.14812138312518 4.7763016442251045 10.164642776525795 -2.250859149921614 -1.6847269163968082 -1.432559546095791
P 0.8780814133469753 7.721582827112671 6.563058915851708 -0.2702553381509797 -0.882268650478616 0.9513076554551487
P 6.998294484922 1.692836301611404 6.207014100235207 -0.7050088281197665 0.23762392526920365 0.27747062495249636
Ni 8.537428570462188 3.1498073290593975 2.5069208832999803 0.295015318704479 3.0767543067065075 -0.2520997502878755
