# total energy = -340871.24743101536 ev
CRYSTAL
PRIMVEC
9.22967395836829 0.00000000000000 0.00000000000000

0.00000000000000 9.22967395836829 0.00000000000000

0.00000000000000 0.00000000000000 13.50856078781216

PRIMCOORD
 96 1
Ni 7.687247727706534 0.6219028120255023 2.0860189064551062 0.9056656892463176 0.9651090801146152 -1.3090638048322745
Ni 2.526973961407971 1.5073072764748536 12.839576590700423 -1.2850113918687611 -0.53644087710796 1.571402973459971
Ni 8.432783867737108 1.124008148524353 12.730886104761185 -0.419668056390574 -1.0907002704545796 2.2971140671240953
Ni 5.005159866509595 6.767750693755786 0.7644172839552594 1.2378506750225584 1.4397905166265912 0.5887152610316441
Ni 5.168801984994565 3.9224360493999773 8.803610014361007 -0.5113649079759387 -0.0671207049078973 -2.7162085103993863
Ni 7.469122844110633 0.8887936007103597 10.634803161870883 0.2782219012962241 -0.019354750377527954 0.034852074682178685
Ni 5.76359909067113 8.256284813490739 4.851450723090247 0.7448179896969044 -1.1857205299862226 0.5401234681658698
Ni 4.409338267028639 8.220879784358852 11.8941930903247 -0.5339168251345255 -1.9152746515455206 0.019089412531283254
Ni 7.559684404549129 3.173927954369283 9.593496583480356 -0.45293607441508443 -0.3168609538246608 -0.09229180485688622
Ni 1.9635208283413876 4.372474949418432 0.7042988799527942 0.27005170678060586 0.5517955051871594 -1.3061461169648474
Ni 3.997214867446522 5.5687975930544455 10.307963795183568 -1.491268115680593 1.256646724683139 0.26484316599647295
Ni 2.3172665404211106 3.244525730133048 8.427950287508647 -0.13215187427661756 0.5195736690389762 -1.34450517635902
Ni 0.08129312189463792 4.301784876915534 6.695856148807185 -2.223415966108997 0.44407399603876424 2.3938358827278776
Ni 6.0527093963351595 4.118751213538462 6.573616501563041 0.5779580225151402 -0.6168341307550473 -0.6311487476055065
Ni 5.275552393477204 3.818722203634855 10.92438694980667 -0.44485432584821455 -2.914318436734368 3.905519071729713
Ni 1.6975123964826533 7.0261815633316 10.6960780440147 1.0272909529599985 0.7572287046564314 0.39956228677963446
Ni 3.1008381666488947 6.226836424385778 12.85912319411427 1.0118692190882894 -0.31326038095759595 -0.35641454774756676
Ni 4.530680789968398 0.36997240178691054 0.52363539683669 2.406050679626514 0.7453144697173486 -0.8490032035572668
Ni 1.0306223078683496 6.867255808216387 0.4627961553015865 -0.48476658866212 -2.5097355568116906 -0.038874565578010466
Ni 3.0813266359959206 8.071700564896213 1.1912066353858042 -1.5610126313645827 -0.665872524239937 0.6345639439346425
Ni 0.783776524988662 2.3133162399861664 5.836441523130639 0.9050221421250477 -0.44065108640014433 -0.39489907697601023
Ni 8.42437563480198 7.299333762799323 6.003798585365763 0.1778033535671454 0.03138828450329433 0.8696062245195991
Ni 0.2708318594458886 2.4891692170585946 11.373249066401163 0.8925345511809983 1.068157095046741 -1.4912136082935736
Ni 6.179248225688175 2.3674113587927326 13.333192473133709 -1.3987004314545006 -0.5767894561283357 0.23492298139827283
P 5.749477689583594 1.9401328346447761 9.653987866308922 -0.5637308231721646 0.1850248110162491 -0.19676883892605468
P 6.771248740168972 8.638208720028139 7.066435863137599 -1.3652321244937262 0.6331719486831225 -1.3552996958713628
P 0.8579766424808352 4.594587052144932 4.648376668744963 -0.2619280492322069 -1.0239834858533203 -1.233250714356702
P 3.438284274597515 5.822105993608312 1.901829687904075 -1.9397320132569367 -3.1444103152925846 -3.0617804590054947
P 6.624801504184705 2.7747076389181298 2.082776522009321 -0.5748842686858229 0.09871056389903644 0.1802556717623799
P 7.572725933788795 5.109464411405176 8.440770304574391 0.7158198026923415 -0.6821411794929736 -1.0509345605208675
P 7.855283170974295 2.2426907752006615 5.944860656656823 -0.09805878924765048 0.6163322514179643 -0.23051945301393847
P 1.192649233418472 7.490803348133261 7.078337527648956 -0.6746826663323993 -1.0020553183216614 -2.612551401128352
Ni 3.9417722162485966 3.1019088088228517 6.609954650727576 -0.3335682392770126 -0.9488741063129916 -0.24052644362797934
Ni 9.08950285569882 8.004351634349973 12.142183352769653 0.18246064983349866 0.474121450243448 -1.021327279177396
Ni 1.4475912862550135 6.100362202750157 8.659892915920333 0.1946307095371293 -0.18915503113453874 -0.8763635978480907
Ni 4.503997802684695 1.1936183491793813 11.534946492592576 1.1089036808364838 1.3684007520296948 -1.3210636575066281
Ni 2.917804503271824 1.1685597845044406 1.904666889665061 -1.2704293802895281 -0.20610914249037407 1.5367702138774502
Ni 6.4383897801553225 6.307863731671709 6.884489455347529 -0.7421995782374508 0.39223567121123415 -1.1709387436913576
Ni 8.433383796541479 3.2964887942656134 3.45836712206573 0.5030823562521723 -1.7390273296115857 0.054072613474687524
Ni 3.583263992429547 1.3105029396189571 8.562793054481569 0.6201595955838545 0.773209910576036 1.2393082334046914
Ni 4.875879824004292 1.088833861240302 5.537617908640123 0.1867338232875558 0.8515776491526625 -0.1114920319344209
Ni 5.78129237556316 8.965197607432852 9.291998209489732 0.22177795937588254 1.6811307144051175 0.23011244738350692
Ni 4.066345125058053 6.907174147891937 3.3905677834325147 1.024107155915378 1.8287521450722442 2.0711863472458973
Ni 7.908150743150375 5.853329980457419 13.145734104082544 0.26735847621915887 0.11474396321281528 -0.350186564559984
Ni 6.240680935255911 2.804362581201955 4.5196540985440325 -0.18562644915598997 0.3884695193005826 -0.5060830907517091
Ni 8.292649728709621 3.1042439163229476 0.6499102575157812 1.5031782368546178 -0.3014194224586099 0.5058005265142838
Ni 8.7445622525325 5.967556424809928 10.409493900100774 0.613992290430878 0.9928793082493482 0.7080576422484194
Ni 0.7337747665626985 9.019966492435099 1.2572597197145996 -0.45100003373463615 -0.40200843432728184 0.20218461062498724
Ni 1.6216444769143246 8.75313661959807 8.624675249168888 0.44644455315346987 1.0820652204874008 0.8688840016415939
Ni 5.714515684799552 4.692624648453299 2.8721905318243013 -0.14560002936172345 -0.19305153797546754 -0.0517719903659689
Ni 0.7971493995218191 9.139666133418269 5.626882699893785 0.5392706332472713 -0.08073778147069967 0.504933036307666
Ni 3.4928039584040986 8.585461133612933 5.143168411634818 -2.116957382833425 -0.6213695567315557 -1.3031636372977558
Ni 3.3172186418751592 4.514879588228619 4.146304559072201 0.6017186152698476 -0.0009446233014564375 0.055674667854484765
Ni 6.563811818964814 5.571086552184974 10.29641378124831 -0.6182436095080643 -0.11481801098386034 -1.4944552551593229
Ni 6.8252331028885775 7.652876422052951 11.220372439568807 0.19332921711688641 1.0285333100075318 0.7114399284570909
Ni 3.983554950054658 6.610227849075413 6.352292612988749 -0.43035201846698146 -1.0775413644751184 0.15053063389412139
P 5.221041939344533 5.60400879903415 4.898150104189988 1.4462676397105028 -0.4819807983868667 0.2818394434441533
P 0.8036286306090412 1.8323671620316615 9.163774964647518 0.5789964910819834 1.2939935407627132 1.6331377314656068
P 6.207638702645861 8.31751447023238 2.3955674020330178 -0.814753024125145 -0.8728663833281097 -0.6846768014306338
P 6.299197067867007 0.3156751531216405 12.522584363111338 0.45588127308633747 -0.9641906820654039 0.2739145321701218
P 2.03252187051813 8.06457525663505 12.572484595124253 0.6838777025681061 1.891193442226601 0.23535389828810435
P 0.22598671983535398 4.480046798879365 12.696196375357587 1.1322197298546048 -0.08777386238187464 -0.3258024792886647
P 3.389459299595513 5.199444502387125 8.184256438270394 1.1348579388084006 0.2895290987789272 -0.3202121296850808
P 8.72748735579267 8.329143859363292 9.907340569297574 1.7235536594560188 0.1989506770687219 2.944440452930729
Ni 1.7006689449610435 0.4638677204429348 10.895261790805476 0.053301796746934006 -0.6766084226002025 -0.38510754480688514
Ni 2.213460397916854 4.639203295842413 6.380363743229029 1.466608922371016 0.4213143337447454 0.4017762637118177
Ni 7.833353465756004 4.866050221286498 5.066196623066444 -0.8301621595913637 0.864389199095034 -0.5115502845138674
Ni 8.267637312404247 5.024809842271269 1.9985917432776084 -2.301727911747023 -1.1793220826590465 -0.5909896588881177
Ni 1.7276195927882354 3.329918673180028 2.702495593186908 -0.7248919401969387 -1.431484310753741 1.2117187538221972
Ni 4.877993419330466 7.048600441267301 8.629822638310404 -0.34139879106502496 -2.192287105914676 0.24044596809903107
Ni 7.682679039119391 7.3964391620424355 8.474474304804033 -0.10373604213808585 -1.3727826831474745 0.5091771562960005
Ni 0.7032808469201437 1.0036716600411575 3.4481812539348775 -0.431944816875398 0.627474641188029 -0.3501950492004162
Ni 9.083438959937702 7.733663757817133 3.892505139866141 0.7846703458071519 0.941390910562069 -1.7508222653639844
Ni 4.148701505387517 8.798491237208625 7.355762143171202 1.0671114273910458 -0.8889607177868109 -0.5353175621367942
Ni 7.361080281280115 7.891297358584467 0.3048099809907602 -0.7464457551083146 1.9324334227129945 0.9844370910192659
Ni 6.2229599613421405 1.782508463551356 7.364340202106336 0.34301318673999637 -0.6667536412933097 0.9931083935410185
Ni 7.497384105633531 3.8396643337444094 12.017026205601475 0.2999698344962769 -0.27544973786772564 -1.2348054604383314
Ni 4.04036359299177 3.2019861630660857 1.6746837210251955 0.9111297976846824 0.6261464092949086 -0.3947633227290943
Ni 8.610288956440039 0.5690795422842058 8.305954303655819 -1.210401320562354 -0.16264207244567472 -1.2411020920803204
Ni 5.917457754807874 4.758376845412518 0.3050314931646823 0.11038208669969377 -1.7906334838236515 0.2702334837741088
Ni 0.4439713123877711 4.197914126693883 9.311450670229659 -0.5199945586264787 -1.2944936203275836 0.05097057751059608
Ni 7.434677701065742 0.583545210208712 4.364210699396354 1.5096679583440196 0.4093198803870305 1.735365307378966
Ni 1.7572745350720604 6.530095820159083 5.063400031870678 -0.000336300293496195 1.7468473398766367 -0.11484989266306027
Ni 5.479103621963811 0.9986322580844291 3.0001701132752014 -1.4217195180574933 0.797055349735066 -0.42195685242475073
Ni 6.946566396154423 6.597057104400959 3.5168998680898693 -0.06072045780850833 0.23633888790919297 0.10889830306531567
Ni 2.8648538640305223 2.694649447393108 10.574798282857552 0.02354307742726268 -0.4154920706360134 0.7156395683607353
Ni 1.072608094500506 5.675917188493621 2.6617668881417593 2.156491693482622 0.3310426446416815 0.9679054119128299
Ni 2.0463386923665228 4.626457116167978 11.477089358698901 -1.1993072675317218 0.07982503984844318 0.29939545005004564
P 8.676844135029723 6.979950126699269 1.88719973178391 -0.34940803452274666 2.3794652158285023 -0.08653047689307679
P 0.9257178341683956 1.870439566924527 1.04724310465164 -0.08611035863652267 1.0593063295243303 0.41425202758132523
P 5.482998544355275 5.959055895135667 12.061482775940256 -0.9393448266663178 0.8346248233484078 1.1490398867357372
P 3.9070501829863034 3.0691988444736844 12.628410881235244 0.41586539481503215 1.165698835448657 0.5610278224187047
P 3.8243799937437823 2.226871114113056 4.038208464132985 -0.28729121058734397 1.2082768180201837 -1.2185889985794691
P 2.0779410958460796 8.602305288504928 3.4479385135109544 -0.007088788525981339 -0.7272573551053217 -0.4183912465606794
P 3.579212165581555 8.493136705456973 9.726461111811895 -0.15872422544850728 -0.22960131207504328 0.02895884912619529
P 2.727045602829219 0.9895779479753621 6.403287484327797 -0.4087151569234961 0.984107475593989 0.5195106770115246
