# total energy = -340859.40537227347 ev
CRYSTAL
PRIMVEC
9.38159831142704 0.00000000000000 0.00000000000000
0.00000000000000 9.38159831142704 0.00000000000000
0.00000000000000 0.00000000000000 13.73091743526538
PRIMCOORD
 96 1
Ni 9.108865607315519 7.599629166772428 10.41973378617591 0.9518925814243412 -0.6855718024410774 0.8569432843399498
Ni 7.016609756324679 2.980186579468395 5.976697139533445 -0.43125190457343154 1.2645680364127445 1.2383181015772804
Ni 2.689366421700758 3.2349251111585993 1.9424167196704232 -1.178333236383216 0.19673824279843538 1.0659122648766224
Ni 3.9301765790073695 6.687887942459063 7.7337466160906185 1.0292028252707308 0.9692678394779953 2.0123301963396374
Ni 0.24238296706618478 4.191060057416429 6.674818438223891 -0.6702716817488973 0.2071841207221077 -1.5861467074280489
Ni 2.593711648043582 2.721170039070102 10.341714540521945 -0.2579089007704849 2.4424392455578774 -0.7462647494457599
Ni 2.8200708456505215 8.003112935451112 1.871853968141874 0.9403406149206837 -0.12054925704068273 0.14650480056417994
Ni 6.08616162551147 7.554269140229426 7.542392975265457 -1.6197361133477202 0.25698638895621545 -0.12521992304347468
Ni 3.647039950037813 4.269846717790396 8.142420284807272 -0.2620517192942648 -1.4088184937251091 -0.8848209845868246
Ni 1.5476822293276244 1.2332110628909272 11.489083981309776 -1.6756684057389655 -1.2696403087293295 2.5190730321625323
Ni 6.097869859870449 0.7752117661380485 10.888397145425465 -0.20407282878663566 0.6998198277196592 0.7802061393882113
Ni 5.97451122718918 1.8286892355411806 3.682439533937443 -0.6770637649700662 -0.9998616531044523 2.42904765474232
Ni 6.938808163745337 6.81945547342888 0.6467683073169023 -1.8912500064961495 0.03469857982344992 -0.39921827317665437
Ni 1.1737129680955352 0.9847582018902392 5.6037382764107 0.029380510044646174 -1.0232026418232378 -1.129890567500796
Ni 7.572600782807508 9.129017279914146 6.848912753127405 1.6645172742181529 0.027663784463855583 0.016211062542223695
Ni 4.475528873308241 2.8285611918803912 6.079349647171681 1.346754377404513 1.1581796442534764 0.1124795926586708
Ni 4.064511681400182 5.878997177502664 2.8181194732573585 -0.48037668712454046 -0.8487286097396415 -0.021042936713228277
Ni 2.8016360054939553 7.9658492280201285 6.152494214481955 0.5356718601524194 0.18410152787103132 -0.9358116167020786
Ni 4.839797562162778 7.646968710502726 4.740351684735999 -0.5881701871614515 0.19021226875445948 0.4533124839178967
Ni 4.171959123798734 1.093406488838431 1.4544066289344195 3.5534260341756347 1.2637339705472235 -1.760340232156749
Ni 8.175846918638237 1.0986977101352775 1.2868137614754351 -2.2066356613268643 -1.117773729632604 1.6635960479554641
Ni 6.471407567592512 5.4208562186193205 12.113538157678894 -0.003576918717980937 0.6114304432409728 1.159263107125642
Ni 2.798783999688563 4.4958681778677505 4.657320789406902 -0.8139994337885723 0.3647485215345589 -0.9961502656911361
Ni 8.231939493343639 1.4163492383089094 4.948307001459918 0.17511038011601454 -0.7127169953973016 -0.31017300028152384
P 7.148242958480804 6.333441786756651 2.930040061603316 -1.8576387461996073 0.9190693642467332 1.7142300680622478
P 8.461666684648394 1.5939053628906794 12.013879317976516 -0.9828406930664233 0.1725261643286061 2.2700858593617097
P 8.663202173830767 8.087425357073027 0.5028921197132867 -0.6809201626016789 0.3494581710343917 -0.6665440963856649
P 4.537559999575527 1.464683231431877 13.099830250849337 0.7672714336044141 0.8776568627382175 -1.9815764600965484
P 3.094332482870403 5.59225801488419 9.56076874165937 0.04792716269858198 1.8564820068873449 1.429814636360802
P 6.602599834640566 4.55355562424064 0.4800413613573839 1.3477560791961498 0.5035729227353456 -0.5559743191551973
P 5.672489441356942 3.170811270125533 8.183255566613628 1.9203068146527895 1.4273522908632386 -1.5424839764327758
P 4.6090665398673085 3.5272087982211087 3.272008691907137 -3.091397510540979 -0.025280371833343557 0.16772231518205952
Ni 3.632714249824542 0.39844022157020026 10.70754807993023 0.6441161063994519 1.1695333787033986 -0.518859416580771
Ni 5.251940545836124 7.812122362470256 2.4644388559553407 1.2228068933155585 0.5910248830014273 -1.115170230571486
Ni 2.4145512701962786 2.5295321358242067 13.446756117559636 2.652640298729438 1.357225966359798 -1.1667018227918744
Ni 0.5754728529811122 8.323682140616445 6.668845174749242 0.02843665807413812 -0.041812822270727995 0.14339299440807562
Ni 4.886048840519966 3.020912096577635 10.175542985166635 0.45555268610232513 0.8382886453532402 1.3000104363807545
Ni 0.4954919151761368 1.6181192674423834 0.10715004574055645 -0.18735834424543216 -0.7721087070920574 -0.7528344322434777
Ni 2.1684156639124716 2.8927219409036775 6.411075448731004 -0.03991149148295707 0.08964562548329078 1.697560577826367
Ni 1.2722197475581045 0.959137057631927 9.256093839900274 0.23263649935694128 -0.5173476079219349 -1.1610083719515232
Ni 7.844404441339846 6.803591191136384 8.674259325285488 0.746364765358734 -2.238176412247623 -1.3493779310702891
Ni 8.757036917467397 5.751379299309394 1.7648756056455237 -0.559676707707449 0.6544200594286214 -0.22299229139895788
Ni 6.694905377796015 2.53386643412056 13.428424474981554 -0.4455438957160714 -0.7929822081069569 -1.0521203532988526
Ni 9.070382292138808 3.2932505061984845 1.9711422347215128 -0.29037396327772574 0.5758566599014212 -0.3269736167786304
Ni 6.98187908036559 1.4722072730632083 8.590377519013796 -1.0069584120502337 0.40566762834642395 0.10690466967405458
Ni 3.723265434145754 0.7279782344656487 5.647608505184307 1.3723885330328494 -1.1530770329195885 1.4487564675706275
Ni 7.902213848487309 8.34104747859599 12.28468102183775 -0.5800527002606398 0.9940000521173525 0.331669479592403
Ni 9.318675665972746 3.033642925123416 10.813097625044472 1.3284468373445768 0.7063388597850997 -0.9434519068561559
Ni 8.989400337822532 1.4983631684100314 7.385022297035275 0.6676602122679792 0.483007182768852 -0.18904704480176474
Ni 3.8162370707623308 7.44153985813207 10.860784287902398 -0.23327284738935955 -1.422244794433344 -1.2776467239735738
Ni 6.548871422642267 3.7557914345644896 2.699539826619731 3.0959149387953584 0.4253681920991449 -3.5051137202234925
Ni 5.71332753764271 5.837549277344032 9.911208954996972 -1.2976085118074812 -1.1338320686470473 -1.0000979374849746
Ni 2.8144512684221334 2.2777769523120117 4.288082668068429 -0.302571276674866 0.22022012797045945 -1.9935146062950313
Ni 1.485782445432955 8.14875286348701 13.394028722072637 -0.5963776626729084 -0.23939284424416835 -0.44073310459098936
Ni 5.855721432755366 4.931718459798422 4.3927128165743525 -1.144138592779378 0.9108924848628958 1.8701595043744372
Ni 6.6215412810915115 7.877315087278388 10.33049696374067 -0.9288668099531293 0.9513215394122196 -0.2518786354160049
P 5.90626948301673 -0.06120836011882294 5.762837983160402 -1.7131694880082171 0.23252079971468345 -1.6199813965893068
P 3.8922655413113465 6.766834089999779 0.6355873187679983 0.769400821242591 -3.2418461262442553 1.5884555580668835
P 9.078731914398016 8.625056596183642 8.526789985631002 -0.11315990655514704 0.8828003546123699 -0.08369660698870747
P 5.2311884509626765 9.294902696529112 8.94904257935662 0.34983895141257815 -0.6708005576691738 0.43392353786832366
P 2.3791357375799733 4.579880388352256 12.251836047085517 0.9936151579741082 -1.9832294223189393 0.30064397774516605
P 8.844783003973436 5.294101447446104 10.584463389911848 -3.3559041191336396 -0.35779574436580963 2.54930817689799
P 5.501050118699896 7.441811924475348 12.173433094071552 1.9668517522918643 -0.2502416140332142 0.2532174088320865
P 1.9614200846684595 8.474538237164836 11.34831497897835 -0.6489019578238695 -0.2502547266593368 -0.7117908840386064
Ni 1.2298618323891994 6.218930001030924 11.505204381228873 1.788556803800281 0.10672006446707427 1.0643024971873412
Ni 2.0710628210093214 5.815699535499431 6.8451507323117395 -2.388442736736764 -0.9877437867949956 -0.0812201204237569
Ni 6.9302333831330705 3.641748728740967 10.72484868488327 1.4711685167172406 -0.029364569205046206 0.21686920922035555
Ni 0.9131447113807557 5.5356775970805 9.254473637918066 2.377402419762203 -0.5585204826158188 -2.834276909999745
Ni 0.6664781066476558 8.516952441922005 1.86096474729214 -0.576180104679111 1.2068889365337214 2.4428488222914706
Ni 3.364897770460926 0.267104416072072 3.3593645039345437 -0.1608754674635552 -1.4410886666127245 2.2229415975757396
Ni 3.993295970647766 8.49255090540942 13.364878220630153 0.10309352345808051 2.159109590721443 -1.4025390884743008
Ni 3.174798449294256 9.155407715212071 8.055654575296836 1.522259936076417 1.2578386881087111 -0.3432425291419831
Ni 4.18955900172938 1.833286218582767 8.553194493325991 -2.056967118322722 -2.376744988683862 -1.857144837282324
Ni 0.36420770846725087 1.4476462493838742 3.0486206464007486 1.6846376991171115 -0.7191465530727292 0.7963791496036479
Ni 1.8065111377650362 7.7631410390822495 8.969653012099602 -0.6972623514051283 -1.0150823267089488 1.026753849509606
Ni 8.422855013540142 0.40112429677060424 10.270794350107916 -0.15774694913690254 0.9465146049418797 -0.14688095295667605
Ni 0.1659707891571676 6.551685902055484 5.127549937370009 -0.3971349082850645 -0.487557778254012 0.22209189107187557
Ni 4.634227985821463 3.9542779043825447 0.8817557606449591 -0.03507601776752669 0.03232365183337014 0.9348191708818222
Ni 5.660049442350527 5.064646322484626 7.115196279370623 1.3197374824960368 0.30679277095538127 -1.0025934502133185
Ni 8.671185913766257 3.914950245381869 13.309254725826955 0.2908110508151443 -0.76292035572457 0.2237487099490082
Ni 4.5072292930991 3.7491774079434315 12.318115160947151 -0.5463604502145172 -0.20037918198513233 -0.05458014923872535
Ni 6.351022901491207 9.482731670969123 13.77458105065224 -1.208651684861099 -0.43816868629792277 -0.2529042484670419
Ni 8.47172375775162 4.154049653132635 8.743518034685914 -1.4912814854170315 -0.7047676586432379 -0.572849240533665
Ni 7.014151777637137 6.816406454064562 5.1592269031657585 0.4340752329548395 1.0433868300805964 0.28994176083631357
Ni 8.057301045753569 8.486621735445578 3.6393385962034492 -0.29390614480070026 0.22925215626574064 -0.41429753610728004
Ni 8.515685926186057 4.627323129661038 4.062868963582668 -0.1429541070984441 -0.17290797314805703 0.37284363983786756
Ni 1.6064204146814478 6.390650771629293 3.1224238018937145 -0.5261374382994229 -0.9939208621399851 -0.6096877495182532
Ni 8.74767408261943 6.173232236958337 12.987497810349245 0.7296266266684466 0.43667641802311247 -0.8497130851400979
P 2.256677738310934 0.8343421022901134 1.579110582775206 -5.042255458507749 0.11056052125908702 -0.22462802723016798
P 1.546762832719307 8.081824543040726 4.464346946599533 -0.5534726357792662 1.5598972868132166 -0.8329381796746042
P 8.032721258878148 5.630591224492196 6.543853205848502 -0.5935157677440811 -0.4572401011070771 1.4766177127572697
P 6.1103004772788205 0.4512576803984211 2.169251564298197 1.8836729654798399 -1.3619573103971963 0.07648080596655861
P 1.1301166819848152 4.860587183428402 1.414339700007873 2.3734614328365833 -1.3221224377884455 -0.06742692329440644
P 0.961698233897954 2.909777686147768 8.290645781264113 0.5551052862866828 0.4958655267887589 1.2588607016153224
P 0.7008851174742246 3.1937211325491135 4.581897431931727 0.2777591027271926 -1.0844910563200743 -0.011954601258714895
P 3.8457891046011015 5.883490962965766 5.701913885462314 2.237634937921856 1.0335613593497426 0.19897381699717345
