# total energy = -340889.3625589239 ev
CRYSTAL
PRIMVEC
9.10223640896705 0.00000000000000 0.00000000000000

0.00000000000000 9.10223640896705 0.00000000000000

0.00000000000000 0.00000000000000 13.32204305267797

PRIMCOORD
 96 1
Ni 6.091553381460723 2.140163333491652 11.438119661205517 1.6139860982378205 -0.4165930170096761 0.08874085428083427
Ni 4.888720147942716 0.41673224020803845 6.252380796407939 -0.6188413909930632 -0.2351448676010918 -0.12788975656615395
Ni 3.0801694909668242 1.8426385322929635 5.006956378328213 0.10292511620101628 -0.958078655630395 0.11291925129925069
Ni 3.8030873103079146 4.261302992907822 5.201165335047879 -1.6465758592483835 0.8308237044347626 -0.8847261108801732
Ni 4.864954208702965 4.424360455772977 2.8832899380874717 0.2374927990079781 0.0024140087581313264 -1.138270564034375
Ni 7.12784299557247 5.852000723892054 2.6552161108425296 -0.46283867824077707 1.556560766240816 -0.7099594872568225
Ni 5.041118891983762 4.699511959901074 11.171958435969453 0.39889457128864847 -0.663864749781289 1.1245686410672504
Ni 5.4871102710988024 7.984408951971117 12.797487694984618 -0.10946805952585663 -1.1004424374430082 -0.9595768374424765
Ni 1.9200166439272537 6.333982345731714 0.26677653641668675 -0.3607836233495399 0.49503763157082487 0.8540099127432389
Ni 2.849427798233115 1.7951066538134592 0.33860774518896836 0.31497890631059944 -1.856919094424763 1.649417956682869
Ni 0.4692130046180877 0.30338573121648865 4.880677411859896 0.6870481298762877 -0.77247380374096 0.10611662655512046
Ni 8.52464488676919 2.3252755151534052 1.3879699912180392 -0.24724010820272907 0.9743416544564769 0.6676671542465147
Ni 6.946571957671412 0.700130370514312 5.00854198790905 0.4981525230507227 -0.4164063549201667 -0.9176100060923874
Ni 1.0708326012488054 7.425586250444753 2.337605404580509 -0.0037460973059935485 -0.19840637452947768 -0.0671710985298585
Ni 7.85521180851304 3.971578808303721 3.8191099770423977 -0.11846409237687985 -0.8010672991079365 0.4669730121241248
Ni 7.548848735770192 3.970258984025757 12.443321497117552 0.6781068615225999 -0.11854971011215065 0.5621632215747286
Ni 8.0877466418175 8.708664800062971 7.115103505507379 -0.48147943327041604 0.9220089064910314 -0.14661175845568944
Ni 6.745831236111286 0.6234977320411613 0.2720895118032219 1.6391258307282415 0.8227602107003379 0.47351929788307484
Ni 2.171738991562391 6.645852271496411 9.271942136083375 -2.71872664883555 0.5187727704042355 -0.4784367897893503
Ni 8.932598019969667 4.958989412948801 1.180849512165326 0.08824103182628029 -0.4819617722234732 0.15959351542733805
Ni 6.591420897825895 1.997358346615945 7.1005026080985365 -0.5677402014418739 -0.4479062253006609 -0.24457001756973362
Ni 3.2245582669760875 4.219077718249373 0.5262703734899321 0.3612178826734811 -0.3535166573744815 -0.47702602548475265
Ni 5.938945285982484 5.493809517089019 4.762497615340078 0.06794885723614749 1.7103060504174932 0.3820258205577679
Ni 5.167039230337929 3.190898196769805 9.097450443852852 0.8062043632241858 -0.9067298688447739 0.4590524717254675
P 0.2690493648457048 5.697053353659079 12.433276269026786 -1.457309242236645 -2.093899729683013 0.13107663893456778
P 3.909537965003013 5.946227075102286 12.755682943647836 1.382760877406109 0.23191839024399416 -0.4296315953611891
P 2.43146220499291 8.779735061872234 1.255705394093245 0.9261260139831986 -0.5159126752476212 -0.3596726496735483
P 6.648373590979143 7.636093671661814 5.74615718836482 -0.7301634730085232 -0.05105799501807981 -0.18483840603705584
P 4.713911697885483 0.9888669624690402 12.633200519981857 -0.17917889375843335 -0.6867696794039205 0.9616735720705051
P 4.073487447035342 6.238818464172309 8.299846044180878 1.4187660918561242 0.2048899253712923 -1.7360381650762746
P 4.976920818656312 0.9603769625378169 3.8601683449943986 -1.326873836430502 0.34956127227115924 0.0008664617653533465
P 0.19213364682052178 5.659115232344913 3.406299890499013 0.20452148628828004 -0.8274097936572073 0.051166238461169945
Ni 1.3721166260805913 1.1113193487549016 2.5416729935447453 -0.7343080913045159 1.2387006817276796 0.61494385571087
Ni 1.4946054213120519 7.005163053376615 4.717095660178115 2.352383529120362 -0.8719407861900468 0.4082091638213551
Ni 6.464681358195751 5.553383654325396 9.25230588149819 -1.0071903255553816 0.2818091044268502 -0.22349905583204732
Ni 8.602487212459867 2.1194193367366174 10.291571016689016 0.29621525254985115 1.1652581483668125 0.34107097541196096
Ni 2.6185950831354083 5.379594654744934 7.020277316918404 -1.3504901902978614 -0.48659438589947807 0.1104749035238162
Ni 0.6263512831524835 8.863211671894359 8.98310723997553 0.37662316148495784 0.9741796749573158 0.27957970087569917
Ni 1.6175675328362997 1.1445698183231952 11.70947644297856 -0.31519642163804423 -1.2431818574274847 -1.5064484229654571
Ni 3.934851284430722 6.8262494947030925 1.760560936005481 0.47298862219058535 0.5921086029839093 -0.196747498769816
Ni 5.893388592801726 7.62155740013141 7.823343058430228 -0.6172997575375563 0.1812792279308878 1.0403899522358018
Ni 5.490951414859498 2.837030552256653 4.823844868227125 0.172645977735922 -0.7462272113396051 -0.1983924905724067
Ni 0.8212784063240891 7.3169601612501145 7.086474241359238 0.8478870876749528 0.3234319221739591 -0.5186706976087325
Ni 5.250515840360053 4.596756813184276 7.032106583343521 -0.44003427875175183 0.9936141295328438 1.4600418106764597
Ni 8.233810229324318 7.205230209443161 9.475489987349185 0.13500374190311587 -0.29556399211909745 -1.377242261580725
Ni 4.4490275164163045 0.5038151562917443 10.472684585900359 -0.2473378101228579 -1.8629046225842367 0.5527794663669835
Ni 8.417966676164097 7.310652311425086 4.463510994975589 -2.2181416050839347 0.1875923146331092 0.23717218244376576
Ni 7.525719953078423 5.960836164523887 6.993486704523013 -0.2980489633244803 0.7069366412700986 -0.2513086218451478
Ni 2.3409313617609784 5.093584182591932 2.5221687213873567 -1.1318219801955538 0.5493488434188797 0.8323254857912699
Ni 2.31335158546973 5.2747186869469935 11.31958032634791 -0.6857646351781738 -0.7333673246578014 0.9892103440381932
Ni 1.3189959744516397 3.494166509136737 4.12346509643546 -0.6453800607135401 -0.13391719370715646 -1.0322159010654417
Ni 3.407895512539889 2.5097232335579767 2.8173988487896677 0.326834777207921 0.010616342063265588 -0.8742419235193976
Ni 1.1623100770663115 3.1000396730274824 8.444776403255926 -0.8541454098798388 1.487014996831194 -0.41540182491505234
Ni 3.60080831079623 2.9311931878120854 7.2969488945252605 0.5320836285805288 -0.8548658329856309 0.29187265931043926
Ni 4.172073769481055 7.023376628412519 6.088852747920917 0.20510666936778868 -0.1275989647986125 -1.4083212423737166
Ni 0.6683908721883773 7.41727590861178 11.409903638589926 -0.29979731347415467 1.4035760143792473 -0.2266856810901451
P 0.4136647865413221 5.513443041003285 8.131841515832457 -0.2883147667558518 -0.20985009759004505 0.9538453342753379
P 8.666494138822921 1.5502291879509353 8.145470294393807 -0.7377675106080261 -0.2735584343822837 -0.7773100487873388
P 1.7438246539372573 3.0877152449422187 10.603000394211966 0.48155939457873187 0.552604631352016 -0.2588257561577994
P 3.7172714255310546 6.106481049156316 3.9196915097069356 0.7599103652536525 0.4265246743010912 0.4605074590044391
P 6.918855647834168 3.7321444798082486 10.304360569054309 0.6910593079182098 0.805454886652671 -0.16200752418546938
P 6.268273301161906 7.678100492646668 10.242000237255969 -0.6583782727454209 1.5063458359493218 -0.4566526040347232
P 2.4373422497071497 8.667859474282885 5.803334706757141 0.6148813779040506 -0.24083986110334002 0.09386711976380609
P 6.699783022164941 3.9619577444291836 1.5081222423656835 1.1655358275082315 0.2625535986313478 0.21332288662999388
Ni 5.129319562697357 2.757358677049625 0.6878833114384459 -0.26553350719527813 0.1488848707605823 -0.8242373094664965
Ni 1.770576126716128 1.2029788693004027 6.9344696241543025 -1.4479848795119257 0.0300345986888773 0.327820538159958
Ni 6.704734638766406 0.6758574367070939 9.208062641029915 -0.2539913108836336 -0.34123629734523164 -0.22052583213633636
Ni 2.5633080992433155 1.367510894462317 9.11223702688425 0.5117508305604477 0.005389803557003621 1.9419953553698168
Ni 6.376034677898567 2.033785496687752 2.5834768346578856 1.1853443775937262 -0.2558232218860498 0.6577946323278091
Ni 4.218422357228591 6.678693140426716 10.318361629084405 1.1945774661562198 1.7048337144490124 1.518010930992076
Ni 8.398897490906618 7.365684432697986 0.3329334110173631 -1.143534897757108 -0.5272784938824016 0.23843099455153133
Ni 7.714054326425688 3.779949425379746 8.060355281819728 1.3238656457317977 0.15376302478849002 0.8809823275670247
Ni 3.159577401318259 7.962645504739312 12.273651259507977 -0.5485317468342231 1.1543834104358377 0.7761134573760763
Ni 8.927245904966613 4.92490153763173 10.27790309851115 0.39280825588525253 -0.7209085300691583 -0.14514417277122746
Ni 8.883819135103396 2.440810201775455 5.887210904957214 -0.48340313265569007 0.9355017987711436 1.436340867515094
Ni 3.7538897225672563 2.631911654988245 11.627319657234398 -1.2642420205318936 1.337386563036368 -0.7961860597562354
Ni 1.1248270675721335 3.081097919079599 12.80686663937092 -1.4386821140537611 1.9879257993533441 0.12612829379035698
Ni 3.2661463850865537 8.465334714388405 7.878256850629932 -0.07906990684997349 -0.3662279342935628 0.45454609921468164
Ni 5.490241440420317 7.9848549615547055 3.781181868188272 0.16412611319036896 -1.0340213297052967 -0.20941455271452322
Ni 2.8279647248025 8.718249454991911 3.620012209152426 1.5439263653062572 -0.18587173239757665 -0.1817109161516677
Ni 3.230738685491519 4.463063164944722 9.305807006608651 -0.16394947840318863 -0.8580614571047931 0.016725026064164747
Ni 7.2171268324176365 6.412052227332385 11.579306270449347 0.5654557762830712 -0.7676704688150456 0.9926394243244001
Ni 0.4591823401055611 0.24657412272743753 0.42380103699608573 0.744295541534531 -0.60426272184794 -0.1748327009745957
Ni 4.766322375075253 0.3059261653956594 1.5413472256720575 -1.41693803750845 -0.40696320722939594 0.9638798356932046
Ni 5.985748985550008 5.691564705110029 0.37307336331662877 -0.5098836954447218 0.16757139142649205 0.023465687222107973
Ni 7.863094345235225 0.02040903445552358 11.160288458681332 0.2264339700906552 -0.8012858428766458 1.3773296790882086
Ni 0.37422752689211725 5.085119102740163 5.984141530601812 -0.09859563558772698 -1.0564395494994967 -1.1934130135344736
Ni 8.349308507000769 8.910607016827866 2.48354884256685 -1.777277631342036 0.5992087043638004 0.5130790624535679
P 8.514104497018277 1.8715199283893758 3.8717591328258427 -0.35177859163745223 -0.8810458338151085 -2.035256723228824
P 1.4332927569233236 3.244237302072351 1.7656499963765824 1.1724515807914582 -0.3636874272598962 -0.5741831288537401
P 4.661373589386115 1.1162618631199668 8.427017940040011 0.5532291523098923 0.47611122697996716 -1.75031318693805
P 8.447858420500882 1.6648263442238111 12.637756189299932 -0.5321029118542385 0.30669224082177504 -1.8205035319102068
P 6.301805940058591 7.763197300747949 1.5626355361637971 0.9902444417296624 -0.5101755156535278 -0.09371182513286443
P 1.8546352798678363 3.3767749662891378 6.177005176781594 0.14648474595952193 0.05258163075145783 0.20656705596339908
P 6.906412890675708 3.9696582364233732 5.932651999735696 2.415553219800311 -0.31906953144020533 0.4590123625161514
P 2.22056338761066 8.531844755761393 10.430759685043101 1.346583141933971 0.6549358227227753 -1.27659102901555
