# total energy = -340870.8221908284 ev
CRYSTAL
PRIMVEC
9.19514600182245 0.00000000000000 0.00000000000000
0.00000000000000 9.19514600182245 0.00000000000000
0.00000000000000 0.00000000000000 13.45802563326617
PRIMCOORD
 96 1
Ni 7.617038394550882 3.387372308050228 0.9491505719633664 -0.013469238131028414 -0.06580378586868667 0.19349505327078934
Ni 5.8199298341031875 2.9087097796008994 9.805504329212699 0.3364908122404463 -0.5475482998750312 -1.1992609876748184
Ni 2.6907112544649565 4.915936624926332 1.6554444606647345 0.6048314498672164 -1.2536364771019055 -0.44078632642642795
Ni 4.808289048843725 0.013149059007271771 11.673814584427461 1.323739147456262 2.290235851947023 -0.9002622588425592
Ni 4.067261415041609 4.335125217797437 9.449431489354243 -2.1438112698014757 0.5443981842818236 1.0078451855305612
Ni 3.37909667650719 7.52215368133687 11.811006165118718 -2.5523359079807206 0.00873120922541077 -1.4802640512606053
Ni 8.284697957150883 0.9208111315015401 1.1177886330035507 0.5023480491893091 -0.05144263205100818 1.2101861192277545
Ni 7.3811185295511805 6.568506682901786 7.142671838387006 0.20453511313503484 -0.3930805357100327 0.38586396335693546
Ni 1.5880477173782317 0.5096290221687612 1.7677659295399282 0.11943391248931688 -0.7575413508008437 0.2719777201587252
Ni 3.241840729792822 1.9042963792223562 13.287661123383806 0.8920293294098056 -0.24387736237808325 -0.3469562305481444
Ni 5.842090136346212 4.884663932839807 6.072664862883726 1.5652027581865302 1.1955958801184055 -0.5923420591509541
Ni 5.126450301088907 3.238981039337394 0.9440196804066828 0.8031231531957007 1.5910030070790857 0.6121475239126554
Ni 9.082441252461289 8.364015287917825 6.2905098290788155 2.5170878834117034 -1.1245169618937083 -1.9158498073227008
Ni 1.9327185759996126 6.61673522450538 5.466529103718517 -0.7874108846667665 -0.6385964621328034 0.19734862268892464
Ni 1.853465611255784 7.37742208079529 0.5645185276498857 0.022778945567728512 1.0447029777888588 1.752716397062904
Ni 0.5861804529710961 4.970730500887405 0.45346690845924054 -0.040035418655331056 -0.41885250246781414 -1.285879139185695
Ni 6.363243435195962 6.335529264672942 4.078884999301114 0.4933849264587503 -0.345385800737231 -0.3671345052682322
Ni 2.0416994482752666 5.384484492600836 7.787109978877242 -0.9181409388951929 2.033175672330079 2.405428472661483
Ni 7.146817010275452 6.045137353827733 9.748993719463755 2.232992811164154 -0.20692752462661138 1.329993098785774
Ni 4.12851028360625 7.046874966674028 4.520281439397525 0.22899041796392178 0.38472136511206 0.7762242719223277
Ni 4.8161692891019285 3.8118018644541793 12.113205563146611 -1.5531951922026928 -0.290028664123165 0.326728847757676
Ni 4.047445875069112 7.156159278772926 1.98908298292463 0.6301565588955664 -1.7479266889837446 0.021363810387756754
Ni 3.610639651935239 0.5250483627626731 4.1922556343530415 -0.37242069336783606 -0.3303389337064375 0.23785763854656455
Ni 2.502017660137527 2.0905808452561456 5.7672490027294385 0.11894283178551128 0.78512671661828 -0.2132005021195167
P 2.4534580932722103 5.675152257830814 3.599335139247449 1.173332954955147 -0.5767945983346583 1.4313634689051606
P 9.116638001026352 8.010710187053208 2.0778382117090985 0.6683790927118748 0.7998673652625644 0.18540661983570006
P 1.008652362757811 6.623833877340075 12.371156078828493 -1.3928254607309625 -0.8493662433236405 -2.4170876541669664
P 2.272543592595237 8.644825856465427 5.8268142400323795 0.14657242057732175 2.1098835067057795 -0.5756669124881183
P 6.724594288949644 4.215569927439011 11.196929477730654 1.5356003619390652 1.7732001188385524 0.09073937276810179
P 2.575505268239706 3.424070136370523 7.723520945615154 1.2351916401331564 -1.8885991991368638 -0.24969242639796352
P 0.4374002295757399 0.8129612622034349 10.377389088450505 -2.9031115122749553 -1.5567890802015383 -0.1433063482315403
P 6.640532262764694 7.527128255408852 11.663788197055762 -0.23919589774201389 0.5307883068078729 -1.226120531069824
Ni 2.211828042507814 7.815184599129693 3.104860637463222 -0.5111443073247004 -0.12950569490302213 0.6259859724576445
Ni 5.087416905644242 5.984173534794018 11.118563844591161 0.29061256165109306 0.45194851369083455 -0.43748220175385943
Ni 1.1975850308853726 4.056558264912613 4.922003582361995 1.4473948113364106 0.12067832641937926 -1.509561514673142
Ni 3.4962520337181338 2.701294867693886 2.3748432716718115 -1.6611650699164684 -1.8610300312693433 0.47830334953527953
Ni 0.8775507273676161 0.17096167447454624 4.145233495925499 0.35951581238070984 0.7912791093729211 1.028745683128654
Ni 7.120399355360842 1.9977006739047805 7.850873719916352 0.97320445552824 0.1515225654937455 -0.9166229595887698
Ni 8.881904309881154 4.836867563105683 11.714296215392155 -0.5901640776630288 -0.14666652295302482 -0.7350490832355986
Ni 8.357707417652799 8.910905800866423 8.275946017036812 1.0981901510737215 -0.7692059316229656 -0.4614523394162117
Ni 6.958031464486433 8.084418478663201 1.6543548358449012 0.4282984783720624 0.10886796404801251 1.4968803196610478
Ni 8.830696540922066 7.627447300002792 10.712144820968708 0.6410035289123992 0.18877116543255879 0.36739752912163176
Ni 5.019814191083779 3.3887883605587032 7.626380663048356 1.3262652563122255 0.42150922336437086 -2.0860041289850204
Ni 7.290877365147429 0.2979512405024671 9.99098238092835 -1.4182780964761121 0.7674550103701299 3.468627452372001
Ni 5.371399799616677 5.979796645222367 8.554284930296896 -1.948326182683851 0.5703313592078179 -1.1280635415943863
Ni 4.450892107938381 0.8501308015216829 6.47873447095214 1.1552344455822234 -0.23761904017319727 0.009118674471816555
Ni 6.5310548525964585 2.0210011742715124 11.772287243672688 -0.2821844854883979 0.8442129812574751 0.7125228771086245
Ni 1.0752068306561557 2.504169324338717 0.8607999296098909 -0.24550384223791263 1.5411937968664426 -0.4268239507090649
Ni 3.6302896792768755 5.902483856318073 13.2490764510717 0.8556471912363456 -1.8371689083810296 0.24997961862107912
Ni 1.2025596049573544 2.3712626817575235 9.026876823252097 0.1804554464780118 0.5514046975066439 0.7637773044082266
Ni 2.414047696835031 0.804064038780053 7.734395125462706 -2.264930797523332 -1.6342687597462562 -1.3252771813673434
Ni 8.298306773466102 1.6279730420003113 3.635725849686035 0.8169207212004254 -0.2946435371873571 0.42553968468000264
Ni 5.404014983042407 8.037679550737353 0.1137421189567485 -0.618942949567934 -1.9804004375105762 -0.9971727934183794
Ni 7.569462708324571 3.265683743782931 5.5192982084953925 0.5399080097209541 -0.0971614742443617 0.7453946881359809
Ni 1.9485618128314512 4.550742200078217 10.435461034017234 0.22609432736304932 1.4267966754700845 0.4208818741930171
Ni 0.21500182700274775 5.2088296155267715 6.467173413686515 -2.7214309351405905 1.9514025076163295 0.8194743408602145
P 0.04961057207128208 6.630270479651327 8.482217052761655 -0.005143234763836303 1.414260490676287 0.21009280972847041
P 3.3664625456848185 6.653975566449051 9.761362110562132 -0.1313221792864706 -1.6381758081101465 -0.474317368304338
P 4.153272812212252 2.1136238815304274 10.985476977145254 0.5704712272197917 -0.5655380515842325 -0.0978127346751154
P 5.245361931216205 5.513887784495477 1.4812442557130128 0.44482887192691783 -1.1781576300373002 0.9042189294974622
P 4.770965950584622 3.0330741314004457 5.387665093657211 -0.015519950012470045 -0.22865617455295456 -0.4667791509457638
P 8.578629999267282 2.4248336032794575 12.872400047214924 0.960665699631281 -0.9296291420404506 -1.5531784800321446
P 8.372125406830003 5.439434686046611 4.47844076583054 -0.24796850172832133 -0.6660872113539044 -0.6475886383290848
P 1.7610268069200474 2.2710539789174904 3.6848748254201396 -0.38029341124769345 -0.28886086906730896 -1.0904603865296316
Ni 4.194494652442741 0.14461298315612858 1.92214231888761 0.16710293643050575 2.0902976141540517 0.033160545912368694
Ni 3.531267150291344 4.827286220808076 6.173398608569434 -0.37188204725554663 -0.323921460215868 -1.2276307970667633
Ni 9.136490321583485 4.519101702145335 9.167863240763143 0.0679174897775798 1.0245277883925645 -1.1316417458639478
Ni 6.803479447847116 8.660871386512763 6.186075956578753 -1.8266890918956282 1.0261943774617102 0.323921460215868
Ni 1.8932162281008438 8.310002999380263 9.22936589536177 -3.2340705960638947 -1.5985170560679436 0.9680913026713909
Ni 4.418322900243447 4.540940174272796 3.4581335553162837 0.5633724113914813 0.6659609701886853 0.6917401360353184
Ni 4.118174939323612 8.652181973392574 9.354324253603183 1.9089127138832351 0.35330685535652057 -0.13933270829577293
Ni 1.3256458314408088 2.649737683180758 11.471729179234163 -2.3293503014499817 0.7437941764180803 1.6863819355017278
Ni 7.871127868360631 8.236239536893315 3.9734957511151388 0.5256543280154173 0.23978802280005798 0.07108406043101952
Ni 7.6821032487714795 5.592726967662155 1.702736016874734 -0.8069582106710746 0.492202733225191 1.2277529244669243
Ni 7.966527509759543 6.997570592969838 13.24128448421662 2.958444737629621 1.0728668418175846 -0.26617268344117384
Ni 0.7275346763284994 5.974739314834955 2.4193091594671716 -1.5282894300999488 1.2606861848598354 1.6585628564069308
Ni 6.9417928363697605 3.730866187963266 3.2479729727662137 -1.2761768242962666 1.2316805416561047 0.732330655863171
Ni 0.06447360632257866 3.7060484884803104 2.891698759206877 0.5237416843737367 0.05390009245256524 -0.8442654317619654
Ni 6.081403010278558 1.4520790911261143 4.500013498234009 -0.7882724613361134 -0.5777183957005082 0.23228580088574188
Ni 8.181353709470654 2.673976088455701 9.988102461151373 0.10216998320254661 -0.8120425671725177 1.327861911375384
Ni 4.0185823112762264 1.795370677823656 8.706333108637136 0.3164668037100356 0.18669011453381398 2.1289160978571977
Ni 2.4399136429801045 0.9397439374427797 10.56545189575143 3.286303585226682 -1.4366110904573453 0.19958625377019176
Ni 0.45998534757130694 2.966455297478988 6.92319841180717 -0.6951396486351705 -1.3003099698990446 0.04331408940660282
Ni 3.14472159606219 7.537252111329834 7.463659678561443 0.9718911360334553 -0.5897287898978231 -0.33773471194987637
Ni 5.881868338629749 1.1089806024979105 0.3826155487608271 -0.17459410260122835 0.2036359983595332 1.005996048136964
Ni 0.9227329170487567 0.37199791349110917 12.651957452229938 0.23428766180711907 -0.08757665876940401 -0.1893000413528353
Ni 6.383123341191571 5.468298249839495 13.197007096917519 -0.6430102749297829 -1.5047016154776796 -1.3487855489019285
Ni 7.629001279703651 0.2580259158803873 12.484216837454866 0.5211626107926508 -2.0509826186045133 -0.7263759809416329
P 6.566612482793046 1.8315903585436863 2.386834661777674 -0.8039027116742026 0.018718916565741955 -1.8920395922769802
P 3.309838835638119 8.942435957045399 13.429682914352348 -0.21849208953575922 0.147188714005082 0.642300650457268
P 8.483800456930224 1.2146052464255543 5.9566699331180395 -0.34001065246824663 0.12727886245503242 -0.42659229431423307
P 5.048309949030308 6.9497926135280315 6.676163454130553 1.5117847475767061 -0.07234184409752058 -1.665337970347235
P 5.994738757730631 0.30979458875517063 8.302821590230138 -1.6129278321766352 -0.9798738971286156 -0.5786218813513841
P 7.447433923649393 4.154247497705099 7.721111817321514 -0.34684875843600266 0.7004386922505808 -0.6444914874609997
P 5.67725794630121 8.542686172932019 3.528708141115313 -0.652923677388753 -0.6068340821195419 0.4869060036026259
P 2.435453997093023 3.864637174283399 12.893704281350553 0.27874177835543607 1.6787676134895797 0.5019577557294259
