# total energy = -340889.31606691395 ev
CRYSTAL
PRIMVEC
9.09429156510250 0.00000000000000 0.00000000000000
0.00000000000000 9.09429156510250 0.00000000000000
0.00000000000000 0.00000000000000 13.31041497061154
PRIMCOORD
 96 1
Ni 6.635631482647036 1.8416212778359877 11.604299371369414 0.5252619776730051 2.0185985458468525 -1.5412192507877391
Ni 4.722283529066529 0.41386119113052433 6.196942876177024 -0.07082566456331027 -1.0221484895271107 -2.561491349227744
Ni 2.6730941458428257 1.7401835523060813 4.613083825883783 -0.10636062424512649 -0.36869979287282306 -0.07419535236649158
Ni 3.3840403708114843 4.5185804974954005 4.538119582424664 -1.6776962348022721 0.2874578180721953 1.003523932447388
Ni 3.8223306473211047 2.5362887213183165 2.5161475943027987 -0.6946159149212167 0.9544325742373755 -0.3979113814397728
Ni 5.332155800158608 4.555039511449981 2.4614945411071267 -0.2756808800419252 0.34680839211637043 -0.1454341932078205
Ni 5.02857016687554 5.083736138102402 11.31156322764679 1.0174721670973637 -1.6577771272808417 -0.5590257043870115
Ni 5.975940683631987 7.970009567085494 12.251344558285723 -1.1824125486589119 0.5648901335875885 0.826821268143589
Ni 2.1231259717621773 6.801402225067615 13.244860418695684 0.04525604362432206 -0.1311116059375613 1.3291605755821496
Ni 3.171834176843865 1.5067603766582327 0.17099268450407062 -1.8920074534874638 0.9823755805045469 0.7953476230153398
Ni 8.350878488117633 0.0364217273601149 6.623807994484814 -1.3027651163077563 -0.4592872134440929 0.14898720066640148
Ni 8.764532329405762 2.6834161665059457 1.4402929295916713 0.08812713195623531 -0.3661248330567953 -0.45897019642430636
Ni 6.778502799490754 1.0328568552880146 4.6985101420925535 0.2459111049786604 -0.5618678018214969 1.1341909946483628
Ni 0.8769679698300322 7.876920400999415 2.266936728900609 0.4462234382815992 -0.616117821414313 0.17315042817616633
Ni 7.852820528966579 4.190103788833514 3.2765585792615695 -1.0282510028804228 0.06326584993818136 0.6794728886321911
Ni 7.742270323520861 4.0016609781194035 12.444611890552068 0.41077563899695063 0.09340483541540688 0.3022894837683891
Ni 8.36408339913336 7.245758393896443 8.776820535855109 -0.706209533296087 1.1162588356499743 0.9485354920266503
Ni 6.595434714954533 0.999044280111379 0.4316632664151569 1.6689524271713707 -1.8963906701568243 1.3878807151311776
Ni 1.8077268540373541 6.555619907498021 9.045837858351755 0.8720518578466142 -0.2794107793980027 -0.40937593043594656
Ni 0.183893846189271 5.072704762715296 1.1802853215187716 0.40334489375051824 0.26027740100266145 0.1294463024199964
Ni 6.8112968140380765 1.966040277564753 7.051658024543983 -1.6130872405726349 -0.08159447304404012 -0.3544970190098798
Ni 3.8256955351143684 4.8499400965098936 0.43484081180695794 -0.33390145424671525 -0.8661324070383857 -0.4502472147290117
Ni 6.168839697099338 5.649337398984727 4.596698641188855 -0.4352407140178504 0.9858473411032311 -0.71792450774017
Ni 5.418224173335497 2.9410847228479606 9.351337839960449 0.11110045292295706 -0.5660898103226444 -1.1354541776315026
P 0.5790189783152487 5.667553264525018 12.364151057411197 -1.6352946299076094 -0.13945792101972757 -1.099541008674661
P 4.1329279792220275 6.548198965770174 12.426044075937185 -0.16178152421759232 0.5300280316030808 0.5381162079278539
P 2.6582795452611316 8.62899101137656 1.0970816501118221 0.22387957909991765 0.02212665669571028 1.376502812311539
P 6.492369111275993 7.974347544051404 5.722319996362354 -0.40898460853479884 0.03147390223856515 0.5472873329041607
P 4.933362030908839 1.1207349924402006 12.44290852978537 -1.2919428288812718 -0.7948691407170245 -0.3916821127006093
P 4.275435524412419 6.136027493969348 8.127472674373244 -0.1676806633108467 -0.7244738788229136 0.12041298857313457
P 4.689234874361878 1.1066206522911586 3.9710823329408345 0.6154241377813982 -0.6579154741763895 -0.7012696727923083
P 0.3986582643089048 6.133435620939402 3.3692921585565223 0.3316723078058804 -2.1289348669102752 0.35529226121766555
Ni 0.6543588160064269 0.2194097821326046 4.523238593516238 0.043027668514435576 -0.1210843036085463 -0.18278692282466585
Ni 1.9641213820934593 6.729802869401759 5.054842665107865 -1.1725670233234 -1.1154995888864465 -1.7569787718836836
Ni 6.272605561210529 5.7299855745270625 9.161878287475293 -0.7423844405547472 0.13952348415034035 -0.7945996891057219
Ni 8.750454366422053 2.4274118654778967 10.593199698666817 -0.10266903432615221 -0.05575000117711044 -0.8338753467768929
Ni 2.5100880679875237 5.198469717561367 7.049461753187027 -0.25177219174512766 0.4057771573410947 -1.103611322089293
Ni 0.7262801095854758 0.1057247744643511 8.845462427979424 0.38444137197779593 -1.4604372463426654 1.7338889799437558
Ni 1.5694200439436061 1.0852581619495996 11.491546528562807 -0.5047119214357952 0.7806643099715523 -1.2597567310670303
Ni 4.338613566303781 6.986871202515787 1.4351555644175773 -0.08773478161382309 0.6613720652664222 -0.1308318699136134
Ni 6.141411314438571 8.469931855959842 7.9905744880771366 -0.6828361486774692 -1.8709100093872164 -1.2712295075933204
Ni 5.055725720796313 3.1437691937897774 4.509648084547985 1.8297461335543972 -0.8267827015961697 1.0817597734318403
Ni 1.06117647849943 7.645870835389517 6.997657941466031 -0.4547245337740749 -0.8351398153116134 0.33537829590255785
Ni 5.266540488189961 4.67070980291626 6.746170774943154 -1.3336733758508383 -0.8208491097205541 0.6670930269105995
Ni 0.8498751665194582 7.618551584224748 10.912423875326361 -0.11613235891990968 -0.40035470077394275 1.1542394286588056
Ni 4.879769372082612 0.429619779152599 10.303099080572538 -0.5298804502816229 0.5632603112936493 -0.4767740573749466
Ni 8.290374167878214 7.438293635710469 4.657500344754867 0.15348174610264534 -0.09285359089762718 0.11325195204832109
Ni 7.110408055985237 6.121885870946307 6.778368203979023 1.202347339909626 0.35406635923036445 0.5598024346520359
Ni 2.517754555581365 5.4667695004718295 2.4389206911599928 -1.7703441374469961 -0.29126536474374354 -0.6181402511609806
Ni 2.5184002502660183 5.401727128857171 11.144264644282242 0.4468464165775788 -0.47879674423193025 0.7207581205342233
Ni 0.8991207540884415 3.4676714739110914 3.560961623835633 2.215445289198694 -0.22308202289928677 0.07065442909276863
Ni 1.5129263061821057 1.1423157457737552 2.3830562783587457 0.4144692857984539 0.6393927327818537 -0.5366897598939725
Ni 1.110067388706421 3.3704080281030997 7.962782333763043 -0.12302394383342038 0.27753644519342524 0.46967189911252655
Ni 3.5421264370555545 2.462052021165848 6.81052652756216 0.8137896317706114 1.240742908968689 0.2558661593088432
Ni 4.258338256706105 7.041118650318 5.669904138834636 1.0124340904528242 -0.5009773940940275 0.5647078423734533
Ni 0.8189309308292968 8.962287694445013 0.07704228902874313 0.4046147616018773 0.026702191881534658 -0.25940374014845646
P 0.10302558879667348 5.587741763785333 7.89769449069172 0.6014321943776804 -1.6168572491380282 -0.7571615988639219
P 8.659729716082591 1.693502554893045 8.279064507176315 0.6625501447349235 2.2069760753854184 -1.6766395114029835
P 1.9928502484148662 2.9844553982157325 10.423625723610716 -0.39890099904655174 1.1742572665416293 -0.33398398665819257
P 4.17332482132386 6.19685920869676 3.5041395821570056 0.965994310933046 1.423425702115323 1.2873798921009378
P 6.828375893161724 3.994958485406875 10.490617001858066 1.39041685128947 0.18098612217050122 -0.12177387347640317
P 6.58267542421413 7.990717268451067 10.094418743354778 0.3358012423725894 -0.9645724908848547 0.06940101630164176
P 2.473656336906942 8.749253919966076 5.828656816633426 0.7229695263632453 -0.4624424712436229 0.2615346704485302
P 7.045556664488576 4.057181626708258 1.24075144573459 -0.4878508840143985 0.0276342167775008 0.0743295639515107
Ni 5.20238026283462 2.8653838417908566 0.4618044761806014 0.2079158566818097 1.3690640966453067 0.011457349907322204
Ni 1.3281484948752529 1.1495093302182735 6.799665215422984 0.7715173533649615 1.157515528306916 -0.15113561446797194
Ni 7.116019233737788 0.8828665271887105 9.33360851900648 -0.23580384134132937 0.8691243997871742 1.0422295765477019
Ni 2.7443297298553553 1.550676709505993 8.86340546477972 0.4470294791226624 -0.2832918596199637 1.170989651533951
Ni 6.389931013699441 2.0779273438364436 2.606764932004528 -0.00947142982554498 0.7898747728262268 -0.7300040646125234
Ni 4.359375833417353 7.161472501820849 10.30678681570813 -0.29643688164235393 -0.07350269717484115 -1.1893195601913904
Ni 8.342730003083135 7.3192857393249255 0.3110938802077121 -0.07216495220002411 -0.017490700585595684 -0.7260782471955559
Ni 7.732184754432403 3.764472765859632 8.294198317383803 0.26407080660682264 1.0727969078115975 0.6288751210799814
Ni 3.225317704174094 8.676490495009578 12.091194087909031 1.3717475570147408 -1.1525383868072991 0.09698638211907813
Ni 0.45036203882523757 4.741035957795475 10.215197298262886 -0.799320491620159 0.23065726414338342 -0.25090572997977434
Ni 8.686285046775376 2.46295235600783 5.634897483205959 0.4644918975734839 0.6177543285764715 -0.6236385552713906
Ni 4.031681233810117 2.8898202026030186 11.267917904680756 -0.6920101018672534 -0.38101871944949217 0.5836321900817819
Ni 0.9854119374029938 3.300181910428549 12.528028368376214 1.1881844181456829 0.4041735602994007 0.6510228608216143
Ni 3.5385432862702957 8.150967776032426 7.975787170369442 -0.44074544588616354 0.5858055435840169 -0.010765723156936297
Ni 5.912144229929969 8.090881793194333 3.5240651744679274 -1.3552891543484014 -0.39545803480327374 0.677787016289336
Ni 3.2287917234633556 8.41690304319627 3.869936534162722 0.589362921917972 0.40530664546257944 -1.7219608610476023
Ni 3.385995643448111 4.169868990617265 9.039954761288344 -0.1841462650660377 0.3406320881023295 0.3953539051252417
Ni 7.393822551091387 6.305936138946508 11.232339218127223 1.5512588944119283 -0.502399985473167 0.3467831953053898
Ni 7.858513555341128 9.100111679598834 2.407947353737565 0.7637202259180459 -0.5453893445504995 -0.19015390471269833
Ni 4.56637099845108 0.3867547463829505 1.8547661665289166 0.3385682635947653 -0.6034597663306704 -0.27294574049894926
Ni 6.482610936675528 5.860706918149698 0.16927022572557282 -1.4950741196902446 -0.19680226326715136 0.2042530631182418
Ni 8.06780957608214 9.049429193999215 11.438331282826905 0.9887825124721552 -0.5692332410476326 0.3743971003679165
Ni 9.075047812684685 4.998813645633487 5.420346780932654 0.3029047487548848 0.24381822700537362 0.6427732192183123
Ni 7.421514668200815 6.423216119978754 2.4415689487962045 0.4771003303661138 -0.2927064680656443 0.28713874416987967
P 8.508673537039043 1.76059114205766 3.4327030143060133 0.46455951758662567 0.5876621371767814 0.807276770352758
P 2.2582671409727215 3.323245033249406 1.2381759424290433 -1.1828174974068144 0.5208882740853416 0.09447518566145019
P 4.863072253194956 1.165788111704604 8.084838636603457 0.48687463614405835 1.276927329309046 1.89121941036853
P 8.70511932412632 1.5072423740988896 12.929909649533586 -0.9018512005962339 0.7887491438622157 -1.686384506604889
P 6.312056597013715 7.921318731287832 1.3074326086474806 0.5754249716806412 0.6851701961272845 -0.8840239426068259
P 1.8589095256602977 3.337168393280452 5.816172173491284 -1.5008012519820089 1.0796362993309343 -0.3591273186930396
P 6.863288877589671 3.849340692580547 5.49195704974811 1.513701762093761 -0.5665420673687146 0.8606181620883758
P 2.6102707813134556 8.690650306615286 9.985792889955153 -0.46259853720551297 -0.3492278001911405 -0.07448588702371689
