# total energy = -340864.75492054166 ev
CRYSTAL
PRIMVEC
9.33997249997755 0.00000000000000 0.00000000000000
0.00000000000000 9.33997249997755 0.00000000000000
0.00000000000000 0.00000000000000 13.66999385260661
PRIMCOORD
 96 1
Ni 2.780649893684875 0.2167452683365969 13.140103670637037 0.9506916191377046 1.8085247622817755 2.561378220688647
Ni 6.642877935392531 8.943004927207163 9.398270675616873 -0.8610254248291236 -0.2713688829301326 -0.5504775577066843
Ni 6.460645733200214 5.8935693067686366 9.209255785441774 -0.46041772750411025 -0.20734661444190097 -0.785122602853222
Ni 5.860104185531639 2.581185442348751 0.4174622099763441 -0.898134156755963 2.109743124473173 0.0951290171953652
Ni 8.348403602007672 2.2825771836080118 7.854819682683391 1.655616115073781 -1.917386812792517 0.8576081716174585
Ni 5.922831440409584 7.2634257040183074 13.636406455937342 0.8938779525827703 -0.42175322105437685 -0.9973555988531467
Ni 7.451009710416262 5.464855231999043 3.9937703454971154 0.4453783166724846 0.10069494131891692 0.7856998155129307
Ni 8.799748429988888 3.278591844147639 3.497891594945391 -0.3612870453485197 -0.16930611472941165 -0.15546869462568708
Ni 4.830316184664636 1.319121666979123 12.399613843986902 0.4920803487147138 0.3784643284587546 -1.3782689030730262
Ni 5.80551204664516 8.221286577158232 6.728534822600041 -0.32152133541480754 0.5158774511343115 1.5068914240401468
Ni 4.305325674028178 6.507037376288176 12.043551678805395 -0.15783230976185722 -1.071650195801664 -1.649359592641108
Ni 0.42590461106094435 1.6829416132656958 12.108880116006674 0.010893506984052207 0.6133019492320728 -0.23358112265839773
Ni 1.542328328246715 3.475796022154331 2.596150880182422 1.2106620304229085 -0.7459896414075022 -0.1450446710788857
Ni 0.4472511180626634 0.1017842176121783 0.19783182415436937 0.3137010680394404 -0.2698331630118966 -0.5963331825882181
Ni 6.434858069305335 3.0139437251829886 4.098756305660241 -1.3712883579901352 0.07395392577964684 -0.32268295982307654
Ni 7.881535739838375 7.085835468126518 10.963170915248867 0.7008158730843415 -0.18510245833171993 -0.4136845851136295
Ni 0.2521222819311763 5.61241745651016 12.189410292344245 -1.0353364489722943 -0.8116090791795249 1.0426769484977656
Ni 1.4654977149909107 5.78776609901739 3.4751170061582584 -0.8157650103294274 0.6271609666023522 0.7466229041161271
Ni 4.344796397541311 6.240605322588314 7.25283417527626 0.5001590119577902 0.14685858435917287 0.7999828077945061
Ni 9.073568401885366 5.157728918396974 6.921145602162873 -1.6119466992102882 -1.225768289936728 0.7595064449470145
Ni 4.729808741284414 0.5831794729079128 0.9698795496701411 -0.6151076349822439 -0.9502385907606862 1.1306446720580012
Ni 8.564381124610057 7.661747508482238 3.085769047210518 1.2140977955773349 -1.5543156789603811 1.014175241513647
Ni 0.22680161665808055 9.197201617016301 5.748902473712575 0.6092221227357443 0.0012678109688300746 -0.6752328824089145
Ni 2.9782276705889945 0.7372497902122038 6.8743934361388925 -0.1333258399800607 -0.3770959873563183 -1.0359625125920675
P 4.613329945039198 4.114052378518134 7.7641873921594 0.7538669872730501 -0.7271905064231282 2.916671253237261
P 8.973350497650648 2.5598249253883782 10.098201671965121 -4.5052507384765175 -4.060272742566246 3.093348720730079
P 1.336279196343445 2.882156714115714 7.894107342736784 1.6459621369237847 -0.22562510103611466 -0.6169228338141116
P 1.9972877255605352 8.925595218587077 9.166113518764181 -0.1893812882127319 -2.388701132604473 -0.15355965052843232
P 0.7238394577890718 1.5262822556022377 3.9642298806775855 0.37210676167184303 -0.9620870054588399 -0.23783604128000976
P 7.903942333711543 0.11313788810497623 7.154874676376488 -1.1141433319688685 0.3634118050010064 0.6426192101389514
P 2.083392931444958 2.3488629679839472 13.691045294685999 0.4804399362623081 -2.020171289650611 -0.5140038882606826
P 3.5057679937003896 0.8441401707549617 3.239309788077707 2.816298728254769 1.504076837409487 -1.5048841638021309
Ni 6.768014886085609 3.679603560673041 7.40837086825295 -1.02768998817063 1.968616814612087 -0.977908802982445
Ni 8.167805894991597 7.92774992345006 0.4172492586048108 0.49778819773276856 -0.2548652288481546 -1.467014899560183
Ni 3.770173273381713 8.817410317864736 11.255216909356307 1.845625780899131 0.3785782283287996 -1.2008021069096932
Ni 4.9559201339794985 6.716000579591375 2.033329745192534 -2.621200077942286 -0.1298283683497635 -1.566480082237057
Ni 4.284422815717153 4.186960203350958 10.214807491835462 0.3212945641159821 1.5577437308053237 -0.880173201402168
Ni 4.107411658116375 8.951765821351819 8.682086259236074 0.9769855198372271 0.5490025158230546 -0.6201963623590608
Ni 9.072746484311025 5.187467390632142 1.6831723105848566 0.1660043040496883 -0.6523906877034183 1.1428746384652897
Ni 5.052560828771354 4.90986472989922 3.5399270748893583 -0.10041803350844641 0.08397917122613278 -0.8025842499730952
Ni 1.3267337445141925 1.3998844086303435 9.724382351188924 0.30170301513729975 1.5620554708068002 -0.09759110558261258
Ni 8.816793879683981 0.4391188040629273 2.4813364670252427 0.39394931146823114 1.0284289232191837 0.3663269217652723
Ni 5.846860104617861 3.7413594584176777 11.782413521482068 -0.5815575669409403 -0.15204501365611878 1.7005109187039422
Ni 2.146110846350468 6.5274265361152395 13.263147533507283 -1.296080248088413 0.7217364252870925 -1.0128804339616233
Ni 0.6475944608049838 2.490195430880474 5.940076765514801 -1.5971895955057718 -0.10464595554686494 -0.23915270320890428
Ni 7.747273636075648 4.336231642817803 10.754676578561938 0.9734265988413753 0.7271511685447606 -1.3561067651536902
Ni 2.190849314317317 8.955753989581849 4.0545203282104305 -1.7680990501665612 -1.0951169114650368 1.5788753705776164
Ni 3.5513190392691425 6.891349222098604 4.163142339642762 0.8177583866103723 0.08253061170506432 0.6135911983377175
Ni 7.173210910262191 6.394201169292873 1.7293500683040426 -0.20330766848583698 -1.37026660159384 0.42910194810996416
Ni 8.997541026259027 9.015576513032302 9.382960592800325 0.48224999288785325 -0.34161990593689556 0.025005006684769838
Ni 0.9098235269087964 6.376408521802925 10.190446975728753 1.1389835309409997 0.690831765288436 0.32683863386266293
Ni 2.695291885595306 4.712408372636765 8.494698392259268 -1.1202959818338256 0.33940721455629286 -0.3710703499875287
Ni 4.585085868393739 4.3036257990448865 5.766262680478753 0.9190282265961528 -0.7241992850052882 -1.1498238160896135
Ni 6.4762061272780365 8.754132004613085 11.837066370189378 -1.7029079581812092 -0.3564081199896636 -0.23856572035718268
Ni 7.429761273125117 8.074733069670167 5.169321692184126 0.5602078976205707 -1.3165503430173067 -0.5079890495251704
Ni 2.7236573818824295 8.06116208972114 1.7932840476206766 -1.0098136221108416 -0.7585188842227646 1.143801006934301
P 8.689648834917234 5.957548117952961 8.977959774047651 -2.2652822673254795 -0.08402802218619722 -0.19629421328248128
P 0.3853448467618128 6.670402834160444 5.288797685583946 -0.2902922021971968 0.9951552487677183 0.5312415922952077
P 7.983294739524977 3.6530967189006156 5.414616454264829 -0.37737700893184684 0.6109401338681156 1.8469956646634642
P 8.567201796285628 9.134175483020414 12.02850124722256 0.6557421206741546 -0.6765996808494541 -0.668869659195048
P 4.79059328189574 4.654500543535623 1.103692400758712 0.07907170662218639 -0.5610712740621305 0.22830727585396812
P 0.5934917364741338 7.096202837530109 1.455717829853523 1.277691204058264 0.4803723162491662 -0.4653547597944115
P 7.156697838995931 5.597903139345133 12.50827695129795 0.15935491705397073 -0.12331576404222634 0.13988343859292038
P 6.93715244692312 1.4301272393770363 1.9680685557927917 -0.3102239081241173 2.2581222592419303 0.789871173281801
Ni 8.818054775962796 2.4703293095098084 1.1090591489202466 -0.014045936570104842 -1.3243441280301127 1.96807868272043
Ni 6.940785696200595 4.0416675921417085 1.9402092860116813 -0.520221072814988 -0.4398856689890295 -0.026383375089535206
Ni 8.680570381709765 7.400461779594427 7.345366216193666 -0.18099486392124958 0.7162491769202761 -0.09720518299810356
Ni 3.413657185539833 2.2478511660921985 8.750955479987717 -1.1853605755436425 0.2360326695226838 -0.5006356944838927
Ni 7.3165701471772575 1.0578265981188772 4.92084199950286 1.3567796228509987 0.2249548144419674 0.8322372969528378
Ni 1.861979544885014 6.943737127490266 7.43273138435966 -0.09060053319739236 0.5336514872882809 -0.26435054263077057
Ni 4.311013717241499 2.768339810014665 2.256328125074811 -0.761370751849263 -0.001315890597946121 0.7200523527164502
Ni 2.7490060670728322 2.472981861681538 4.860694445011646 0.5720894795495051 -1.9139111955390908 -0.32152082119417524
Ni 1.6078669148277969 4.745938873680812 5.9618940071272775 2.588660967664 0.1450806665231437 -0.7622744946104549
Ni 2.7970602252543437 2.427757715148034 11.364972793442327 0.19177549947652134 0.06096059884377243 0.3687519862669972
Ni 5.217663521516656 9.49240078581802 4.518657182439538 -0.7986723165131987 -1.116349852701884 -0.3160651973962428
Ni 0.8593138899739479 3.9618575276789256 0.23126892547406053 1.096617407269963 1.486439841054014 -1.27169641992741
Ni 6.8219812468189 5.884444153698989 6.462065409010436 -0.9669204222917412 0.4245999464745527 -0.1851713638964424
Ni 7.196402061819955 1.6672971594359518 11.418258270185055 0.19330350608527355 0.8553152618182237 -3.0653735756733917
Ni 0.5090602536501829 4.088806433024525 9.442384299427777 2.098178045343393 3.978392619960987 -1.4190885081925497
Ni 1.8269079483890809 0.8225246725470955 1.789361259197696 0.5173208684490574 2.5188526886216103 0.9883053157254206
Ni 5.588871385999841 1.8057809307396002 8.13914151958653 0.7017270720447011 -1.2660865299398 -0.3951677572563646
Ni 8.010847658210198 3.4017113607946134 12.980752532917622 -0.6987062829405064 1.6782942733975872 -0.7745168023129176
Ni 3.247200196791359 4.159482004445223 13.043292988346854 1.0787577533807229 0.06484322172763027 0.4803635744984179
Ni 2.6201798272676644 5.396533333632132 1.429976865820822 0.9329738901429674 -0.6035749517522959 1.2242582810501046
Ni 7.265256338615698 0.9917182732192198 -0.17994764493455243 1.0805269294660036 -1.9266373848565077 1.5009226080512217
Ni 1.6245854654876426 8.589589710213925 11.676526253978903 -3.6609182009220436 -1.3101547239036082 -2.3390896402249326
Ni 3.051807973437186 7.040966240545569 9.664890462762692 -0.6167883651187765 -1.1674240456698797 0.07146149837509629
Ni 6.606863001680595 8.73116501239378 1.9572014978638919 -1.0199712793701339 -0.3238939494120422 0.8877456144327872
P 3.065061394323399 4.421748430438779 4.326320998066316 -0.7694532717470813 2.107974976829157 -2.2886777634312843
P 6.055318949409533 7.324107504932842 3.6360820911145595 0.778102462781647 0.20048768253853858 1.8713959478846995
P 4.981446278646179 1.897443420223245 5.883400878777924 0.16048388845209136 0.24376783338341246 0.06807612684263115
P 5.0569879757058604 7.38428494733585 10.02884023466612 2.1181938263436875 0.6535291721832358 0.3287397075401178
P 4.9041673467134625 2.164529271993605 10.27945224305445 1.2825331055315976 -1.446196163042619 1.7058603559413137
P 2.481163677535183 4.840422034840029 11.11046508255108 -1.3106802573897751 1.2633395633222824 -0.11731506637410119
P 3.6486322120763663 7.978279174327023 6.275046470944838 -0.8436499096651535 1.0457776989102763 -0.8180939155729201
P 3.868728662522881 7.607781147748948 0.1795292141694345 0.7810929128685387 1.387523846012391 -1.0851628855761182
