# total energy = -381161.03494749265 ev
CRYSTAL
PRIMVEC
9.27847819967034 0.00000000000000 0.00000000000000

0.00000000000000 9.27847819967034 0.00000000000000

0.00000000000000 0.00000000000000 13.57999072817640

PRIMCOORD
 96 1
Ni 4.315392440413765 5.547305288069579 10.913016837311435 1.267929753796126 1.2270353295746093 -0.11098423906006694
Ni 2.1483852671928765 5.739629587097301 11.805004280357554 0.4639689351904783 -3.531384995215195 1.8476196714007083
Ni 0.7894899485218322 5.776585766324791 5.737451000383113 -0.15167965989690008 -1.3462519838467975 0.057046608501346914
Ni 9.017957224991404 5.2440103880976485 12.251202592328006 -0.8731767154796768 -0.2862838523687521 -2.996796597934942
Ni 5.3906567382584525 0.8088031011861608 2.703029506151274 1.0744524411371497 0.11569475716185881 0.7507382118360812
Ni 6.490648180878751 4.938729893760996 11.656778733183312 0.897402935016893 -0.573559122116496 0.5967293895853722
Ni 1.3647713790036502 3.52210109931611 13.021595576730828 0.07472371406613583 0.3703167596509558 -0.30193878529718965
Ni 2.0490869920001575 9.165921119076463 8.846101249181318 0.8758172384263175 -0.6569276563418235 -0.955193106552484
Ni 5.525862724626262 3.3004753656912467 10.126993328297356 1.6493058565850367 0.8573430908815299 1.328263260578861
Ni 3.8469313475147557 6.51599698370313 5.279982120773283 -1.6173714697702857 -1.635914008659163 0.2616660538200719
Ni 3.1834644753478174 0.42308469457813547 2.4203486015069138 1.1706451237103388 1.4265611624205108 -1.0840794227039523
Ni 0.9331922375054126 2.776334124274997 6.331032373694551 0.7437779784681642 0.36046737766070175 -0.9116812993127783
Ni 7.4605275217398 0.5511258399719391 6.565654471929996 0.16202089392190808 -0.8932179504012681 0.8100250225218565
Ni 3.1665869232476904 3.847274651213329 7.151969868853524 -1.6849259197814919 1.9083828095216941 0.1891912836891129
Ni 7.7825092770881215 7.108567002875529 11.04227067982425 0.3806901324654799 1.1243827503086892 0.1846913389362303
Ni 6.745657879570275 0.9221851786508879 0.9294400208647906 2.711443742020892 -2.3098037467766224 -1.7069399621587376
Ni 8.097049692807909 -0.0260196368083482 9.081768104077828 2.1956542226146962 0.2992324421096202 -0.03577175828297065
Ni 3.9068610391116327 1.8982467696297558 4.121025020455615 0.19593040218515934 -0.499486668481114 0.7886822951800223
Ni 7.241935850532056 8.964401848013983 4.373924793172665 -1.5529722775586092 -0.01307483090608716 -0.33795017039479214
Ni 5.029844551057997 7.8237706702652865 6.8157428657100825 1.5088724590259175 0.36711136533978067 -1.1647860938264003
Ni 2.8182171755009295 1.3360173746285582 12.6415045672359 2.7067645913776675 0.8961127554505599 0.19964693180479812
Ni 7.343080542914398 1.6653662417786945 10.426432092671261 -2.1233002943323176 -1.3657625430758995 -0.19976340277800436
Ni 5.464754666280229 6.037839880939012 13.413174270258283 -0.7190259683344649 0.6794685177568168 -0.4673036559906661
Ni 5.795727267139834 8.862394257146038 9.599302141068293 1.542170558957415 0.33834612028163025 1.8057729105682514
P 4.161796509976439 0.3850568511023964 7.5973256949907215 0.7201965916037983 -0.6164078418509061 2.003874609373117
Ni 2.695490742500173 6.241168455277757 7.790895165811648 1.2076890638375135 1.476524124602199 -0.6090200340272672
P 4.501936247435782 3.780775796951862 5.370709865523514 1.4823445879387183 0.5781770805044817 0.12637563391447268
Ni 9.170588193681391 2.3878256792301884 1.6947827295072497 0.2626081060183671 -0.856125673534661 0.0798980591782237
P 2.5832211545883896 2.724699392313916 1.089546659553167 -0.4692738923431595 -0.9464989212125957 -0.31287677236593214
P 7.739735491941566 6.19292964638905 0.22391937347046634 0.2893681477210307 -2.9659952962833693 0.7185665121995432
P 6.091794232485047 9.05721446684717 11.937124244829542 0.4371811255736729 1.216259579115344 -2.6527300302297667
Ni 1.4032956210705694 9.197904033913812 3.4634277136864444 -3.028146315890817 -0.6934982563770056 -0.2637604744552554
Ni 1.4068492782747195 7.6392681284780295 12.463145305957438 -1.1894442586947127 1.2801113834639826 -0.773401457761552
Ni 7.233260473284327 7.503737395368327 8.02292300150328 -0.9932207507491668 -1.2822325435720432 -0.22150645088205076
Ni 8.208614116365867 0.6069488770556128 12.426682741777627 -0.646811393843428 -0.7536160476045086 -0.45409178528608246
Ni 4.730585789163887 0.286424770654476 -0.1575513457535909 -0.5091434748445877 -0.5829598466051058 1.0791493323921866
Ni 8.097216705418028 7.204070380427264 5.660886852818613 0.25260574339001657 1.0769281563711517 2.0011860067973597
Ni 0.20028987268245496 7.092422450564248 3.4757847911394126 -0.5246348856119675 0.953325971436758 -0.108007158709614
Ni 1.1979443384537445 4.754004668493584 7.952266461097741 -2.1713182169724927 -1.6914354387652353 0.06394487828307698
Ni 2.5404566479201747 4.233936679068513 4.901114014723545 -1.126347587344544 0.12453960914699842 -1.3274803596662492
Ni 7.462707964149656 2.584418078294226 3.658096684190639 -1.3074357823105482 0.7756576007855803 -1.317792442954524
Ni 2.29102331471088 8.789122113696504 0.5822857537805457 0.8097216323488248 -0.7105750093536344 0.14138599128037585
Ni 7.916741023230251 4.390733684533077 2.1386038953270416 0.2943743426863704 0.5366265107562048 0.3078754624965988
Ni 2.417878670572855 7.162363620289787 10.202416223026061 0.14670997459645058 0.6417131533849142 -1.6189766094738764
Ni 4.205720826437131 8.231095869383244 11.22550578147029 -0.5988515781346977 -1.9185175839628508 1.080325612088475
Ni 6.367207305045829 5.315027861310606 6.320644189345292 -0.546694179404852 1.3957524045697705 -0.8945451538531239
Ni 4.745663316466088 4.8766847091026415 8.167033543533812 1.4281354488861662 2.0845550552433196 1.5852712468016312
Ni 7.855057699227149 3.796345083606075 9.825530927797539 -2.155788239657694 0.4785018386993308 -0.7948804535709343
Ni 3.77988506303124 2.0069070294673503 6.353806398779631 0.4407282194949829 -2.0524571462675105 1.0992183352279197
Ni 1.8683979048105652 2.44396047318608 3.122338787892938 -0.9081473180175909 0.5659625407161608 -0.047747442587608095
Ni 1.5466202759857195 1.1412250003624445 10.570746761225267 -0.7703228188362282 0.6901409098689986 1.6775118867056078
Ni 0.46166275181942573 5.96305534552009 9.84452954004615 -0.6643491456168752 1.7536363377740123 0.0993368846291257
Ni 5.850637301954869 5.488479735395141 2.062515733701374 -0.5445503935889718 -0.03762732343447068 -0.9046508748285581
Ni 1.5536997549589995 2.3129019666361676 8.437438093486762 -0.3399522884264855 -0.03280779055864027 0.7265017078862198
Ni 8.111700410106481 3.583283385488862 6.117554999747715 0.007480367537445182 0.8643562889745695 -2.0992309120879398
Ni 2.462378252690616 7.3088615147971545 2.6230434557750497 -2.1099467558435467 2.4934679299999183 -1.2000927395474945
P 6.277753495371655 2.6806266201997864 1.6398513541920325 -0.6499576527818934 3.4044159506910976 0.9441437907168578
Ni 2.6858318465484237 8.522551430993568 6.593927851127086 -0.03573293462523523 -0.7568849481637675 -0.09841385859422405
P 8.500821234721716 2.7105589913240355 11.75828992546008 1.6274069996294167 0.8000527418004932 0.2922549823505225
Ni 5.994091855566776 1.7220484659566353 5.358990219532492 -0.4420934752736257 0.6850622097945105 -0.43008513795883996
P 1.149761200435076 7.797345563953488 5.341825034603831 -0.9490461131144815 0.7738601425655253 -0.04742296936865381
P 6.455473469492506 5.9673234455564055 9.759640741715165 -0.42825836916274634 -0.29122139887968557 -1.5149158370065199
P 0.5489880785624454 8.309359834179597 10.445362044180154 -0.3571424270525268 0.3350939318929197 -0.3505223506328479
Ni 6.876911234165324 7.552931887526034 2.338542113680418 1.0681462964134636 -0.012515615968507478 0.3358002139313249
Ni 4.39718222697925 7.401618462760302 8.903883900890362 -0.8944837044875693 -1.4797007225579677 0.6802272502997123
Ni 1.1012162017611546 5.111420932621666 2.7827845224168373 0.7287393389674869 -0.9774604025911167 1.0848623236165638
Ni 8.91041038255459 1.364929113135427 4.657556741846857 1.761595444720089 -0.8322252127679796 0.8073315348500935
Ni 7.666843766103965 5.711766316642831 4.097096752665062 1.1286006450447787 0.4512262908128293 -0.13622295902219766
Ni 4.303460317268761 8.765220753493136 4.383974313062521 -0.5245312701545676 0.5096589810284254 0.21620894992853731
Ni 4.360699250147091 3.421485280199137 2.69391711257374 0.26931611416616197 0.3993856519924541 -1.844360283923146
Ni 2.0995619141687607 1.0647425034073348 5.163615156826638 -0.4766161916408436 -0.1319271598603212 0.9577264144972989
Ni 6.982593102455836 7.965221072555793 -0.14736450438430604 -1.2865422266909905 1.5971317456846428 0.2725150807194339
Ni 2.750493562098607 4.374115929826465 9.78301230080533 -0.7289226586228866 1.0634992845597553 -0.869215931059716
Ni 0.6057797887847959 3.8422178805181293 10.33772705619911 2.39310517520944 -2.1993105884203605 1.5756110980040476
Ni 3.533550741587444 5.64452518411418 2.860556727861182 2.13246370599914 -2.9876802374559706 0.3629677754850523
Ni 4.282824981441008 1.0931810395188732 10.90122945842853 0.7951877003987079 1.7655801403994498 -0.5694471568306515
Ni 3.644975987970304 3.3551534385477866 11.67342803471628 -0.4454364236039296 0.1665288090945906 0.017465246664298953
Ni 0.4431558989228271 7.407426790201027 7.761140941471523 0.06557804301112578 -0.8526289732353123 0.06773391301186399
Ni 0.41621305351966714 0.31621703675579377 6.991318583486601 0.7324116456127515 0.6613044452532805 -0.561598093099878
Ni 7.854111294436487 3.5351559183402324 0.002149823431335548 -0.6580496857614087 -0.14591807482277452 -0.2786564177304814
Ni 4.016022336779577 4.23414080559199 0.45530699415665116 -0.5281187303955098 0.7039546758236392 -0.217689905349438
Ni 3.922031351197233 2.6828812904363617 9.002882481232705 -1.496716283279358 -2.899135815456659 -1.7533938827459028
Ni 0.9043742116297756 1.2539492337128786 -0.3109013965149127 -3.231886701038698 -0.7311440917542377 1.5777749384245858
Ni -0.11463374419276837 8.335849889839775 0.5564683878000056 0.2720826211677056 0.23372973242112005 1.2628934769237992
Ni 5.436548092127186 2.5973151631865714 12.938920623331725 0.8416027973281377 -0.06739324184299361 0.1866024399160141
Ni 6.007953902206462 1.3416865248941863 8.264796230561291 -0.5290504981811599 -0.04041388504067234 -0.1497137944197809
Ni 5.9780122526038735 4.4319486853185435 4.0300662415947235 -1.3533898804431594 -1.2273248357905702 1.1049783776401487
Ni 6.44359701721754 3.4229883936901873 7.570532233088834 -0.5968106364452689 -0.06962958737268007 1.1989236589400578
P 3.245843685226405 6.472184008982516 0.30574627394931053 -0.08749052681350093 0.4367273258657059 0.31134465199212186
Ni 8.16391968620297 5.24189489503617 8.09933776556651 -0.5533381670839309 1.0375038889372585 -0.8572451318510849
P 0.13829850319847106 3.711799588973664 4.133925816739297 -0.21546307290144828 -0.35829196727593776 0.4727106859388504
Ni 0.4018935778978279 5.475016663324066 0.6981785874840273 0.8984776561383107 0.8218181585020428 1.4815449748555582
P 8.452266957569456 9.01560049149309 2.615329328883326 1.2419808951408482 1.0030729609528983 -0.2017503513010461
P 8.315140326185304 2.2301101044099827 7.848650909933505 0.6552641525964715 -0.6414239042792695 0.4659173171661008
P 5.609276244901215 7.109689698754647 4.404167993321298 2.6979374800043407 -0.5239414590893686 -0.7582378626472361
Ni 4.680890259175827 7.834403806442716 1.8127789942503676 -0.9147018313066569 -0.3277053527383324 -0.7751626634270328
