# total energy = -381166.9440703866 ev
CRYSTAL
PRIMVEC
9.28156080026988 0.00000000000000 0.00000000000000
0.00000000000000 9.28156080026988 0.00000000000000
0.00000000000000 0.00000000000000 13.58450242573690
PRIMCOORD
 96 1
Ni 2.5629637906949045 1.0854970983372279 7.847943910527373 -0.10587905662301765 0.03751033824063217 2.1254021711666686
Ni 5.608299577573577 2.3917839649148105 3.4183496492832943 1.2217396283933089 0.49428224146203903 0.12947201345160927
Ni 2.7898236996965333 6.68930440048503 10.31810880006116 0.7658745532568875 -0.05744024439533978 0.22671987676219016
Ni 0.05360751069555311 4.3118233207584815 12.434560832867797 0.8987293671378006 0.400029199113724 0.473277614185914
Ni 3.7443301305049177 1.6477926145444406 1.3403826801655658 -0.09832361287326291 0.6734878746933498 1.3140489167516918
Ni 5.900780121410388 3.0521855787469 8.27824635063966 -1.0184075344274395 0.9279085598049182 1.063050369947795
Ni 0.9223430381783483 7.517655856939837 1.0831915586352394 -0.07320522053908038 0.08103011590013787 -0.8390188386510453
Ni 3.3494368448333973 8.72231891435046 1.9359275316160705 -0.5609990260632983 -1.2315378454306534 -1.685834290528374
Ni 4.547742033098037 8.092880587337348 11.312752412380329 -1.1639723396758535 -2.506165322961929 0.1516863447651194
Ni 1.047294194096548 2.4997470801061596 10.910243606074825 -1.0647953776633596 -1.0998405421929511 -0.580679278101045
Ni 6.058148984724462 3.376390497388046 6.083642647765735 0.8890103400778236 0.27317791111441336 -1.2908087152768286
Ni 7.594312267562718 1.3260473095145138 6.390149486279056 -1.2896666312525853 -0.8702114622037659 0.6062051902862915
Ni 8.524436038157237 7.4265759008383325 12.379189825620804 -0.7259494349271756 -0.2446615488422754 -0.08990530690258064
Ni 1.6145739084517792 8.230637512687245 7.473038466032311 0.18222410834266037 0.15249675648155672 0.21483263840630099
Ni 6.689777760085679 8.613919565801648 12.985276673824604 -0.17886496206244035 -0.07496925441803863 0.8376934349714025
Ni 5.294425036099553 5.398953973795992 5.276519977165954 -1.6190406299425923 -0.20107312272836336 -1.1023093154484178
Ni 8.658136921438821 8.008288442232985 4.313364988006872 -0.24214032508231847 0.5537086630494722 1.5377855425158418
Ni 3.7484882697419986 6.952817193074231 6.461522832496253 -0.38785939652040946 -0.1117332014109495 -1.4104588575420096
Ni 0.5869037183484459 4.7803936360370285 4.137853457802793 2.358248729651887 -0.4755165308187617 0.5363871410518892
Ni 4.664726825384124 7.489393504312804 8.50441478336191 -0.21728907036659353 -0.20761478050162308 -0.8312795610252587
Ni 7.838705044909985 5.581123167559798 0.37016999217640423 0.995258350004486 0.7665530673811509 0.7480655500999245
Ni 1.3631457080203444 7.51811993497969 3.3709941979406377 0.4934098661594148 -0.5137670896595281 -0.12297277888051078
Ni 8.864716620098884 4.792097684202115 6.926914213201808 0.08139212722524691 0.04293896545537121 -0.6128962291532218
Ni 5.909198497053317 0.44268218590339986 11.029461541888683 0.8532318969266337 1.6590205127696396 -0.5421875497837502
P 5.367805055761074 1.4105373574501094 5.441652866086765 0.5916308920165424 -0.3169450288980348 -0.8012218224079298
Ni 6.955963642184432 0.1927390351994939 4.080254875964506 -0.0462906555364235 2.0717563608167544 -0.5103724621556822
P 3.575229374343365 8.916906836460727 9.591636395695229 -2.319177217571722 0.5990958329350199 0.43278608182977074
Ni 6.011054345240204 8.535740979208052 6.091331492730016 0.0674246093015613 0.568220483512402 0.38897037019640107
P 5.427197763301431 7.675795089800068 1.9238104539955143 0.12252874936455671 0.6214001528591749 -0.01544435957952824
P 8.255066580705094 1.5322279010603035 2.6171634649693094 -1.8242156906544713 0.11977149833439373 -0.3184177567888194
P 3.456861629498517 3.12821084323558 8.966450879839329 2.0535514077729538 -0.34550432859296626 -0.2806906745516908
Ni 3.9843234480343805 5.221165676728394 7.920349366305202 0.3137596891915177 -1.651901128116039 0.22305734030893845
Ni 0.5859505020545882 0.8677897364375752 5.313808647668123 -0.2891339202230375 -2.2726420501246603 1.8872773950016464
Ni 5.108106984659462 0.6247112280991715 8.502920452073583 0.7115808249103294 0.6399804869645236 -0.5191638351950671
Ni 2.509316369287924 3.609144197495805 2.5404922038491535 -0.8335938109807322 0.7865925025305291 -0.8261445537915385
Ni 0.7094296024303747 6.7172975878489485 5.950106976266339 0.19071620497407155 -0.8942600185125373 -0.7154279665705614
Ni 6.254936636743633 0.9584046863431478 1.6244893998512735 -0.05345272050250149 -0.9790285184091848 -0.8283456752079154
Ni 7.083093180421701 1.706452078781831 9.590943991259769 1.575677689575925 -1.2329439817495604 -0.4054251733183147
Ni 4.363335983182139 5.086193219617614 12.197049404695466 -1.5138765971087282 0.008624508444217404 0.27368570398876735
Ni 8.182605435562483 3.853434877674305 2.73022679781864 0.884328104110806 -0.12107633318874632 0.9277897748388666
Ni 1.1359609443908183 6.315740141525143 12.627093817417597 1.9466392818997313 0.12207932053196394 -0.4983805799011287
Ni 3.6318561767662 1.8040476905628688 10.749905571461772 -2.123999120171555 -3.057455606377896 -1.0147915349414072
Ni 4.290485012486051 2.7373271918283875 12.82116197212323 2.5781634105667854 1.6024726982815822 1.663558509849309
Ni 6.8750655582772975 6.501213570932701 6.3869983963884565 0.7613422126041726 -0.9830121856472811 1.0237541434513335
Ni 4.962924810671921 5.634455015899679 10.012050260934334 -0.10830540667632314 -0.8330669919429845 0.283044519495848
Ni 8.018952955588802 2.888570225016406 11.532726331426623 -0.6991960780927313 -2.7962091565937452 -1.609900615314537
Ni 7.730036531098059 2.8311730530474155 0.8799690005154713 -1.1363556063998494 -0.5049998849898593 -2.597762672854952
Ni 0.8083014288210079 2.7741192988279155 0.9201516616741635 -0.25565635729088226 -0.6242723322006475 1.0212380618976993
Ni 4.554545417162278 8.679345287860093 3.8402847623370366 1.4291173531834613 -0.028713822994924747 1.0957810274115967
Ni 8.418626245070806 8.21145252651973 6.88031984984451 0.7008999481577154 2.954585768894847 -1.8684512634340786
Ni 0.8677108431708003 5.082907547095457 1.3140601737451167 0.04683315830345483 0.25986139651116535 0.024987780293589223
Ni 6.506244176884706 7.141121498524892 3.8293492274059457 -0.48263977212710424 0.3930741079521295 0.7080560995865225
Ni 8.642274734036654 9.349037744050035 10.954569555973322 -1.0307061492891345 -0.19935768269915344 -1.3693052661218355
Ni 3.4060914919386236 5.4762693752354625 1.420925280294174 -0.4701233848276484 0.41784540135953846 -0.1316541087045926
Ni 2.7369930556396938 4.029190512927347 10.877355323546539 1.4711129808889567 0.7944230543185415 0.3724703156588488
Ni 0.670434052897626 2.335908968916537 3.694182785674507 0.7384997607883603 0.9062768404677553 -3.5241596811113496
P 2.2298949814925697 4.5161568817056565 13.210806535164016 0.8723979283321233 -0.913722241002207 0.7250894009197254
Ni 5.1978225513237994 3.6764819210784427 1.3004840347672637 0.0723161330659077 -0.08285302804148956 0.03275713982636294
P 1.7468825576138045 0.21003058296440819 0.3260352424303259 0.19396659359056917 -0.5699359235416119 0.4933322188439439
Ni 0.2740037407581128 1.1353669244998068 7.764996457996249 -0.6959839989133368 -0.15682726553611054 0.3665773472131816
P 6.3243719930664035 6.396554691385104 12.060606748354434 1.2878277782716336 0.8804742775823546 -1.4734156608802043
P 1.256584108509351 2.869310986362516 5.586015478255926 1.1344177659471884 1.5745628592451915 2.0649334243576503
P 7.252546635893542 8.912980736243572 8.50047476080356 -0.39146022649779033 0.8513071691000952 0.623119706653443
Ni 3.859263697854855 0.060635508531083494 6.285616835958299 -0.7241681746570366 -0.005718390541015958 -0.7202359294821661
Ni 6.43742140357454 7.406871147266183 9.947061700389431 2.1058551022726766 0.5134786118848318 0.6329485198184067
Ni 1.8059968183302506 8.53070109169525 11.896492046653059 -0.07558194830137306 0.8809373332617023 0.7234590644051541
Ni 7.77350208031067 8.013950194319188 1.7485021899728908 -0.9366143151090321 0.8515066867054111 -0.5240491883118265
Ni 7.693782754624761 5.198156687512494 4.585707329382313 -1.4732385118723919 0.532809965223592 1.0099874286845445
Ni 8.970804860009228 0.9724940956330779 12.933030768097979 0.41034343655553845 0.30021074686248944 1.4015890658562056
Ni 1.4202365884830324 5.9433360776648865 8.527780184512416 0.2120098242455252 -0.864581260501182 -1.3779138337264527
Ni 5.365206218737897 2.984133174982889 10.987050377982618 3.1324616275711405 1.4809921876758816 -2.261251291789215
Ni 8.348169917060357 3.1616801514697626 5.341290421032125 0.6135642017545239 -0.4554848089788671 -0.4415111204075945
Ni 6.514272726974158 5.41260714972846 2.3426882209227067 -1.1214655766618944 -0.3454685902590244 0.11559808368299446
Ni 8.72130722422358 6.276813275542292 2.8708944206344937 -0.06638074141807923 -0.6384316544201649 -1.485419884429932
Ni 5.364667888211668 6.0849541323063585 0.3163313706170044 1.0063660298818733 1.494706966158813 1.9765550956225575
Ni 3.471498650875473 2.4181157528960573 4.074114195341174 0.22574182911963703 0.46074168650243225 2.234829607262577
Ni 8.390215387471018 6.640223506990201 8.312316175857413 -0.531748099617981 -1.3800069688100558 2.2815565790054704
Ni 4.51813385415543 0.34290540733505387 13.041719701343657 -0.37277216316998385 1.4580695174414373 0.7537633718156502
Ni 3.3829896871147525 6.549022890598334 3.894133593613313 0.8595406127534809 -1.2496630942764544 0.0723169043968561
Ni 1.5013481482885 3.3154941769985653 8.268003220144031 0.1935621590632989 0.39586555465433754 -1.0159333618553343
Ni 2.7416152729166274 4.492256862653239 5.902860119185007 -0.41602146077692226 0.10569779385014699 -0.26510156186418216
Ni 2.3728217362064266 2.0385648872220687 13.029222079730422 -2.717095283879714 -0.6310459034790552 -1.3196665200487854
Ni 6.618987295886538 4.309048134080162 12.509941028881084 -0.9855215823326963 -0.24938389401860922 1.5346110014426024
Ni 3.9780119866923824 2.4794854328861877 6.828291132640537 -0.09722703737497448 1.0559086166966911 -0.4345729985268645
Ni 2.5220321075798897 0.4903866239320257 3.8184675255274776 -1.2972493286958497 -0.577755933806663 0.5570043030816084
Ni 0.5859699933322621 7.255535298470194 10.309238412407412 -1.616870875984783 -0.4752841030929814 -0.10924488777145701
Ni 1.3288132146320362 0.20177185016718824 9.78302867642307 1.1116532185571628 0.30012255802405735 -0.7162332360806761
Ni 3.4841122919986716 7.6229273195000395 13.37136175829972 -0.6997583783541046 -1.2942910173984743 0.47830617774875683
P 2.3353427937079165 8.042917945566797 5.185381547231427 0.03761138259487071 0.46135129506197325 0.9843031365445628
Ni 7.154059994275987 4.777655575601897 10.291578386678855 0.963604984765263 0.512061419822331 -1.2554524472647217
P 6.6342369002760995 1.6867937330136678 12.704553083049422 -0.4819638291060022 -0.44487155223939506 1.1730218514726314
Ni 0.6104825953972856 0.20865041487388603 2.3454596949767073 0.001993633391261083 0.7655274543301138 -0.49076291545487094
P 4.445626301208833 4.521670128819109 3.384238985198036 0.12413697439194103 -0.3484916933560644 -0.5516767202211079
P 0.8952835758306128 4.8228660582443545 10.313598889669867 -1.731232516157515 0.4877326132689793 -0.38995201738338003
P 6.61472705948069 5.08456894647813 8.087709829817308 0.32522655218053664 0.5331755760931269 0.29296254994050835
Ni 8.576542720471906 3.22567651316546 8.606230720837369 -1.4420554014013682 0.2942920673852093 0.9560976206446243
