# total energy = -340873.9521414813 ev
CRYSTAL
PRIMVEC
9.18177443161507 0.00000000000000 0.00000000000000
0.00000000000000 9.18177443161507 0.00000000000000
0.00000000000000 0.00000000000000 13.43845498865051
PRIMCOORD
 96 1
Ni 7.723497427690195 1.4004868644151682 7.576708400676282 -0.6407680158628254 -0.1554506969035581 -1.5141930999078825
Ni 6.765324180485341 4.209476282279291 0.14686339938639248 0.227743175820382 -0.09428363847593439 -0.4794796292315677
Ni 4.281259394382549 8.727083730978794 2.1395361478626103 0.6017870066139378 0.688798022687859 0.22000981173186626
Ni 8.769861617815465 3.871513530898285 11.10064769877252 0.8330227689686105 -1.1612176597488517 -0.4214128069958226
Ni 0.054951083309743715 3.5465613538138143 13.361546704035801 -0.8414824697001895 0.23021220618616478 0.9688063264605444
Ni 6.33194442974682 0.7328350585470217 5.609748293173966 0.694216879710585 -0.137195350237796 -0.8447500847078677
Ni 4.925461866661477 2.89785063031428 4.762077700633054 -0.47477528177736306 -1.0903320884818835 0.8027493147960498
Ni 0.23757106666437822 3.180263646695963 6.093290831883033 -0.6304897738652689 -0.509554080019445 0.31562476742471446
Ni 6.998045433922176 9.093161075511526 0.9185465453354201 -1.160072747511131 -0.49627484641203556 -0.3939673091903602
Ni 2.6319923531398333 2.2851967348052153 7.222080728795479 1.0095081750552808 1.040178607555944 0.5075483624433259
Ni 2.9119997446339423 3.6785401787527023 12.871217915882436 -0.09085044442466934 0.009472201156493365 0.17472522886245392
Ni 7.133752059259366 1.5965912016243493 3.078816976103067 -0.0207634577995965 -0.5069276981401916 -0.08873596918482782
Ni 2.3936610355567867 3.182669271583537 4.646453452219918 0.12709477146868436 1.5510046123092773 1.8278522589657937
Ni 5.743310056015975 6.727816632142824 13.267208563167943 0.7932395755334015 1.2685882133157314 0.8205688594759739
Ni 0.988978100249934 6.7558761346482665 4.790218002753042 -2.472766692896825 -0.11690857496430188 1.3560787401292322
Ni 3.050277266797547 5.829242282438895 4.366502987726965 -0.46101319499626414 -0.4320682298271397 1.3599438795115935
Ni 5.7796423372378465 0.17664448458809576 8.769653191537037 -0.05298400839619907 -0.2509954614801032 0.027173475090998364
Ni 4.767076258605555 6.124877053927856 9.76452874547128 -1.2077191457445007 -0.806220818284418 -0.8538782722613811
Ni 4.002748632112389 8.220552783754387 10.418673243048929 -0.2496962830527055 0.855787830579268 0.5102855588688309
Ni 3.362980956859026 4.57881315671694 8.404436179263717 0.03254528092587298 -1.2784735907502434 -0.0822750440508325
Ni 4.820688639210688 1.8878554485084036 13.376570841453884 0.05650487706526398 -0.8504018836770064 -0.4172980134965007
Ni 8.149467486504014 8.040287007350798 12.378980236835458 0.7609501193720766 2.058714440031132 -1.2296105465009532
Ni 2.134918633526881 6.592211006323814 8.700055341736231 1.3338811209862704 0.9664203427268712 0.7013460345561986
Ni 0.4412861766571855 2.664532561542743 3.6775136563770126 -0.3883607616368602 -1.0056682324839001 0.007306818074058383
P 1.252293025921106 0.3215549205638508 2.543912509689419 -0.49407141100281354 0.016693915715913183 -1.0685844123921466
P 8.809774791045557 6.698361499931611 7.0982856193615325 0.990375825101204 0.3310614136947589 -0.021137553309563593
P 0.7545260823424599 4.83295548978244 3.5812142885015743 0.14878305507539538 -0.037326761474916356 1.6639647441487926
P 7.609560789408113 1.8941266004099804 0.7063438031056916 0.061280444077036395 2.537129375443611 0.9382616209044681
P 8.492829121220492 1.1906557745078075 4.754955398246446 -0.3530435743928049 -0.169428756350205 0.9214157529917227
P 7.696255103104578 6.974696181673699 0.665148854172144 0.7920733231394423 -0.9398945285222006 1.8699620436516504
P 7.179642567610872 7.318030271067037 4.769738054998332 0.6439502702455491 -0.1335248433647442 -0.1837793686449222
P 4.933881553767986 0.8933067657420913 3.9037369680850826 2.4518826503589644 -1.9017012837364604 -0.11654476386697991
Ni 4.458366640399399 5.08931981224791 1.0053537948567592 -1.6647273333464296 -1.1562284340643765 -1.5296451727968947
Ni 3.0159007035186267 1.290121936366926 3.4257714391344596 -1.9205945210965374 0.6147893324108766 -0.7355332219608688
Ni 2.6045480295178534 0.2998859330269248 0.7157817489909486 0.40250182902393267 0.8368192598965654 -0.7158604261222897
Ni 1.6643526965491435 8.119103358629179 12.19449727145911 0.43542609055577913 -0.2599207889941911 -0.3508591651469764
Ni 8.67459152684803 8.253965260723403 3.415853286449126 1.2243955779589173 2.0110850110786265 -0.05240345330238072
Ni 4.129319391941425 0.19076421722974188 6.394594430874239 -1.229810064106269 -0.906302037278736 0.44315482665860456
Ni 2.903598421076193 1.315913540600496 11.218892425593724 0.9305220861683653 0.15445670842140496 0.7880212645572559
Ni 6.040239457692523 5.365158678173476 2.4708613945442757 2.1529271160598147 0.8666399428024236 1.6242077759658287
Ni 3.9233079201761663 6.138906805180577 11.927650117183934 -1.8144388137733654 -0.23535184140557533 0.017583003189085848
Ni 8.158392171201427 1.976735024507321 9.739318347555967 -0.9494816579900034 0.50347367815332 -0.03464818620148871
Ni 3.8497710891663184 4.229125279452606 3.225108350945582 0.9623073489997621 -1.0463891072420302 -2.485356613746694
Ni 8.186791399358931 5.336594178077129 5.127697792801658 1.372069973351166 -0.787423997292889 -0.3413658809445605
Ni 1.6147619331224747 8.310984079623534 7.260971970537071 -0.019561209961379215 0.268896253019924 -1.5694610192422518
Ni 5.22337371819669 2.141474420434239 7.301569185958478 -0.010041957617034318 1.309626362203964 0.2515474773288313
Ni 5.748727302900207 5.297424728571821 7.9119175379207105 0.38448070985616367 -1.263354732830934 -1.426533394506369
Ni 6.273392254525219 2.923871778907351 11.325782052039118 0.29670736169492123 0.839482151440709 -0.16300639776362894
Ni 6.442290994246302 7.037692335695246 10.944170063432775 0.2748200747035267 1.8880924347037742 0.563895630884803
Ni 9.03558216837421 8.707673459939363 8.905448880085713 -0.2571064594738475 0.13534081352756047 -1.2896026107838692
Ni 1.4105225438125666 2.6614566671254245 9.663095847539953 0.7074842862434526 0.4688717718087344 -0.07493994384199998
Ni 7.89447124842117 1.2175491916669838 12.077878636880614 0.24402494369954106 2.4238046611758257 2.183506274398252
Ni 6.351327155463113 8.12611823425554 3.013479469614607 0.17623163820465132 -0.05590786691121339 -0.7059565367450165
Ni 5.624268351178582 3.0878858146582457 1.89200010146356 1.6186783615071672 -0.7026822368691188 0.869020012998826
Ni 1.4677984523953398 5.040188137540245 1.6246020407255781 0.8066643335797398 0.21511803085720374 -0.9111963892565599
Ni 4.839107278617075 7.592069509214111 4.719907647260344 -1.0098750714763962 1.006003761446448 0.043433645703602614
P 2.6713729834558824 7.955236231268364 5.275763086454399 0.3240567002421516 0.811247582075048 0.7077596513920262
P 0.645039850102389 1.5902741408508723 7.845114620241193 0.4326531557963323 -0.4493355015480197 -0.06847104828820466
P 3.7449794981667686 3.958914841222014 6.251918838782589 -0.13980681971871406 -0.13518886133072844 -0.025414326308046555
P 1.2213137191628056 2.5156959988420766 12.041460046979571 0.45051589500936606 -0.7778538371059507 -1.4196916889941873
P 4.527450310834921 7.6126917744717115 8.078432689012732 0.17630362909316732 -0.35218096928219345 0.42942976376302816
P 5.6913687583480135 5.010273916610031 11.847610753558131 0.44848780883574374 -0.9262232016826951 -0.6146854598431607
P 1.752975182865419 8.2947507025196 9.993842642435675 -0.6426374649713964 -1.3658612734372928 1.7502548228962886
P 4.262996845140623 6.602889409927816 2.731124298411518 0.5619369644965354 -0.16543814713357313 -0.801628056707413
Ni 1.5171963985600272 2.56612230373733 1.5854417729946504 0.33580047104164107 -0.7465426856974949 -0.35474384491336325
Ni 5.898537133685159 0.6322321930196524 11.580656172522705 -2.7202613403125215 -1.1406364931633903 -1.3020680902407318
Ni 1.4094023673382001 1.1963301110746802 5.614721142178204 -0.35373211581939723 -2.060480273682303 -0.5005490483073572
Ni 8.283457120032134 5.863609663943436 12.156937387002626 -0.08548558056833018 -1.6674822703837473 1.2933101415424437
Ni 0.008873266760883625 6.34052020701779 10.052757497745288 0.7011999958966375 0.36353907460749 -0.3187082914460447
Ni 2.2879145400217116 7.532819519139626 3.0676097022947735 -0.46938162156561747 1.8703127421228498 -1.4812559828602296
Ni 3.784387673805958 6.046299428783358 6.567829722635021 0.46443224798014204 2.0768939391536363 0.5619457062472839
Ni 8.401837737114162 6.146656222757342 2.5874938017843423 -0.1379761942678785 0.19777928246844004 -0.25640429120050034
Ni 2.6504201743206006 0.5544166551486996 8.87943232237983 0.8844666865711993 1.2847432258090392 -1.1127737053148512
Ni 7.103856201877911 4.974694540887323 10.069057901802196 -1.1518776132948483 -0.8115661417567314 -0.5423844962859047
Ni 0.4340435930261993 0.7191569692530562 10.911594964287222 2.729407525588164 -1.121552737059062 0.14196166127818777
Ni 1.7795839650188137 4.957295078437122 11.141527712844832 0.4176674810207775 0.003378686664245794 0.29990581402756095
Ni 6.907044868041466 3.4688743607841825 6.152447167858842 -0.0731568837996482 -0.20228796897207096 -0.15157938687360992
Ni 5.932463790019456 5.670452676310251 5.334529197019055 -1.0518416457161692 -2.2166290250941505 -0.21053658213410836
Ni 6.427710336530777 7.575239316775474 6.777631430864365 -1.1605149772548722 0.9188194530194563 -0.022792572414483323
Ni 0.2241445579884261 0.4113150287258151 0.34897537157244235 0.16891479282826394 1.9933739669521089 0.15163029471620337
Ni 7.321344891618237 6.864037436845296 8.71739144994321 0.3045633674042303 1.091950340811597 0.47837611175474387
Ni 3.346784306852612 7.081480217713721 0.6252494536036217 0.19259259606117798 1.54208854076657 0.64407239764571
Ni 0.7779249161725881 7.558216307074855 1.0494263118810156 -0.22369060301756316 -1.3245197343760284 0.4431589404236626
Ni 1.5517749608753084 5.160983561284227 6.774661126852418 -0.9095100026930724 -0.21919245803689347 -0.20879260285980816
Ni 8.316979778293708 3.824043757353409 2.0972320405839517 -0.9407206239679219 -0.6765163771070285 0.34858399595955447
Ni 8.278498961866905 4.670337083737313 7.708203346105341 1.108940190501374 0.6900360088600181 0.43704742820928605
Ni 4.1419994223602785 3.809711007546145 10.472413250317944 -0.1159076445036133 -0.42789095852099857 0.9747885121859083
Ni 8.569735663427819 8.568514487435273 6.039268944140551 0.05518590114352432 0.46408566327400075 -0.22205846673077886
P 1.2168697403628599 4.7199645742615015 9.027672069745794 -1.4099423229169072 -0.8074490342645642 -0.49325225753562796
P 4.422778082902312 1.9083767142478232 9.310188840177972 -1.0611724361987918 -0.006696181073252984 1.0638677236427676
P 4.557630803222157 8.710455537576518 12.744950154607942 -1.7043940558084323 -0.6124324021429258 1.0807069066872934
P 3.6318324924813705 2.9856467569363505 1.3931239995398035 -1.5600371548251908 -0.2631146133411404 -0.14990148495055475
P 1.781172411986563 6.0838712495465375 13.08448574394025 -0.727464071799489 -1.3524694255114191 -0.7715569483536454
P 7.4113538258659 9.014491632623228 10.32016933114484 0.6233624187918684 -0.8906339917241759 -0.4753789767996329
P 6.655271432766021 3.7442174108932242 3.9457316495671324 1.4077111195935432 1.1767067565233862 -0.8773249333200955
P 6.813904948730204 3.3126923785794737 8.54220778565898 -0.28227473120935903 -0.3739325020266721 -0.10082503913887797
