# total energy = -381170.73508038523 ev
CRYSTAL
PRIMVEC
9.23512030061702 0.00000000000000 0.00000000000000
0.00000000000000 9.23512030061702 0.00000000000000
0.00000000000000 0.00000000000000 13.51653206021767
PRIMCOORD
 96 1
Ni 4.102674445821845 1.2317803329762893 1.8699585385677853 -0.6054382302132799 -0.8123570130891428 -0.15568980949755767
Ni 5.125759532399886 1.5422466040363951 6.531431637768917 0.9623343455829556 -0.2686067468039632 -1.1126675187542903
Ni 6.59231509123405 1.00197360178884 1.787521238055618 -0.5191568932165317 -0.7123197599588829 1.4249246552583525
Ni 3.2629896113998687 7.527814297785498 1.978604186710432 -0.10807606427433644 0.7331881187674598 0.7131967632471976
Ni 3.5365523421197937 1.9348962098030236 4.81944075382396 -0.08416583331564216 -0.13747868580616968 0.10715972310765415
Ni 5.056976357111182 8.222646271788124 0.4432552939553387 -1.2383810936047317 -0.1018694212429923 0.6547648443625498
Ni 0.7090559061427512 2.6058092224740497 2.168929855508416 -0.44958875520940633 0.23877243705135007 0.4476660842653968
Ni 2.800310089116827 5.9759631687356425 10.052649986299913 -0.5414342165574935 0.6451913417415017 -1.7217921966802217
Ni 6.676945732794965 3.3525056315493598 1.529516914345478 1.5545378222735162 0.3551760473547754 0.060094651299051345
Ni 3.4576751804467505 2.143785393725581 9.899886321912744 0.8528089504566023 3.0806852663297977 -0.6725010853000483
Ni 0.3278246029978942 5.621805543984498 9.790808470144492 -0.6828250929338756 -1.5182500435860755 -0.1346730980365745
Ni 1.0603765019668432 2.7282022705542324 6.7206361629739835 -0.31695788441384126 -0.94995011298599 -0.7370545437014016
Ni 3.313690421326693 4.423336289588546 11.790295110663035 -0.09340303564319397 -0.3392398357404932 0.06521808856854575
Ni 3.259951256852341 8.902000184326749 4.301244306427055 -0.4846670869697782 2.088184167355475 -3.477486188314211
Ni 4.692189109003794 7.641073811982689 9.454030418107607 -0.7529102797867356 0.33683816827753604 0.767807251503226
Ni 1.8205654216620244 1.1287533319665166 0.3819867359776464 0.34852511769716105 0.6911827208699516 1.284379157601401
Ni 1.5767859536040312 6.189432972280004 12.059922756663505 0.961821410502279 -1.6429608882036155 3.0359663261558683
Ni 0.23568211466202954 1.3900887635346904 12.256412868198492 -0.10634956850153296 0.5695284036905482 -2.458963982685778
Ni 3.4867750442134944 5.88806329462207 0.260470100804942 -0.18580514082569935 -0.2149290547748492 0.9337940720514176
Ni 1.3841967568437408 2.2179803494545616 8.960487124098618 -0.881965003195268 -0.8925003555089532 0.8609968855840333
Ni 1.0866504189507804 1.0637380857215541 4.77133593618683 0.4089820374316376 -0.4115593112405106 -0.057344085137107696
Ni 7.296613063447056 0.19070984979852199 5.955383626870263 -0.8576130567134649 0.5576463075409815 0.1221076026667381
Ni 8.838379441232778 3.754464238482881 8.24478747248021 -0.46870773542704436 0.7806015750544169 -1.1554473329239778
Ni 5.7227546429480896 6.645832612823476 7.914389041481113 1.9389370281594671 -1.2310673335521378 -1.8660835345328506
P 1.0937060507875918 6.102345788744494 4.67292187771958 -0.22580070738203048 -1.3309801452893917 0.4822649052861887
Ni 6.1229585770426125 0.8935126560502981 12.882904029170243 2.5288797338403093 0.8563552730469638 0.14786131459207438
P 2.891396079701211 8.314175548142359 10.496101064803604 -1.511734611065061 -0.7085425523046378 -1.1170674475941988
Ni 9.133164478184367 9.071834044901301 1.5353562808512577 0.8966238907590236 0.5291919088550305 0.9060171590484655
P 6.209205364639446 1.5436041667065667 4.467646396333338 -0.12753931520527068 -0.40549176489019195 0.08217631368943912
P 4.101991046926655 4.646623025911089 2.0964812610102475 -0.29149367870446574 0.5184256714774619 -0.9078727241999656
P 0.038420870589902956 0.5661405739424612 6.875116636207308 0.783534946651128 0.7164857184111144 0.5558753316834879
Ni 5.144931641945986 3.0775945732794683 3.2539290349664975 0.269292202906762 -0.29772423299520984 0.3262866180139348
Ni 0.3374374396195393 8.35310157980749 12.881985134709822 -0.06878009488819123 0.53684068364954 -0.2513453886203542
Ni 3.4894716993134276 6.194964809282949 4.078032374578175 -1.6090518941609964 0.43959539144212034 1.389229515849588
Ni 8.46106937012707 5.030166803155341 5.878447687464363 -0.6061725372761432 1.1575538377440193 1.2254247905543798
Ni 5.993731540010544 9.226891713147454 8.180272769750372 0.1675662492201695 -0.19226092375337211 0.24781449264896033
Ni 6.735976621146924 4.448483521907443 9.362914875138566 0.20164467896111724 -0.257697298980311 1.3500060515725911
Ni 4.163155248046029 6.758999775818613 11.70726306840965 -0.27535306438886126 -0.5802409050120458 0.7309492021346121
Ni 2.659502211347375 0.7011090852061332 6.6311293779446965 -0.9722001826334417 -0.25739905101360183 -0.7061306004290355
Ni 7.918136653260404 8.901085907426427 3.6292831076127325 -0.3955292543608414 -1.6644236860630819 -0.021168663657815157
Ni 2.48741498144274 1.063137802908213 11.457761519872484 -0.6488281671631406 -1.9356506440987116 1.5204542503262461
Ni 4.563377652380963 3.930402513513105 5.479129401397524 0.06591382908398971 1.0520802440895367 0.11349312152484971
Ni 8.3640267270103 1.8652356980948204 3.9262420918606393 -0.2715046371770486 0.2841089562046204 -0.6076504073732503
Ni 2.2965712224012425 7.729573968909603 5.638205270444981 -2.201210890766867 -2.0560402356330783 2.297437254791469
Ni 2.005784992498525 4.519196837319045 8.420529039450063 0.09064886993682453 -1.731384211244031 0.7770645084354358
Ni 7.667403139687857 2.466663666341543 6.254775141780232 0.5746081322063008 0.740238340746022 -0.04598906513560467
Ni 3.711012997917178 0.45773688594919165 8.607057226819647 1.424341786171689 -0.9498030458851643 -0.129085576646468
Ni 6.445781438937344 5.756869176986284 0.8794272507132503 -0.5409814452907908 0.30979299123428583 0.10441687025519437
Ni 0.33247818006931984 4.22628652976912 12.552586867228952 0.338263844980469 -0.37871758212014134 0.45872002808671314
Ni 7.892407608368576 1.4381113886019923 8.642213482416993 0.05768835585040387 1.2083737486093642 -3.682239330997323
Ni 6.235904097152824 4.119620891398479 7.135472221521704 0.3802810699525192 0.9303307960931655 -0.8896572296332034
Ni 8.325571686475637 1.8030186932720487 0.4788991638995228 -0.5413820231633193 0.3704121475782395 1.9642168857721782
Ni 6.301085575561481 7.159905579048735 12.205117316530451 1.6102847381268333 -0.24110057096389442 -0.7186367033158462
Ni 7.455614128020851 7.041603689219478 9.88946541227314 -0.5051142990805365 0.7575333803810437 0.3757273891435658
Ni 0.9144846905244011 7.633528718774999 3.1983899455641422 0.4239430296168441 0.2605070005149642 -0.41600937659206416
Ni 8.719237155464842 3.1523251659803537 10.449158025288297 1.59685766608765 0.06827281623446951 0.20659559520848939
P 7.053951044933898 7.20397557266819 2.4683075177380776 -0.10586928643100478 0.605312503268693 -0.07474376867079385
Ni 4.681014613555441 8.98398958150896 11.386961394330953 1.430600108376575 1.8123464500207112 -0.12191759814311905
P 7.800970683216392 5.714008984113717 7.993825851438594 0.925311231391387 0.8735266426199279 -0.5483841655127653
Ni 3.390914496482996 2.7103784885580993 7.5597964425683015 -0.9746589285865797 1.1023339980387659 -0.9831232573038486
P 4.127914029342794 1.2232655521470486 13.163426346476845 -1.5710720724831138 0.505658858730097 0.5577383530341556
P 8.706187930614824 4.117736926876607 1.2053069373959187 -0.2098837790414579 0.5680078532809637 -0.5952666889969168
P 1.516462148423336 7.099618714348861 0.7586614308132328 0.05032754460995849 -0.18542950265383548 0.23705648280150785
Ni 7.200253819225474 3.7469468506358066 4.082925141262916 -0.8638762640143574 -0.41978864112883835 1.3131839976482353
Ni 8.678325572955584 6.330988894786081 0.21189613906138677 0.5860564832525584 -1.465792854227624 0.3379288302385535
Ni 6.983422431926401 1.6550813027041436 10.60801779252295 -1.3892562553224654 -0.7395338584798296 1.0617157102967714
Ni 6.66441367467644 7.277404013420136 5.5702440208545445 1.1209104754893728 -0.9576983894728408 -0.4870664404398903
Ni 4.372986414229522 4.476770695096125 8.832310120233888 -0.47425771871099615 1.4608229118168583 0.1879432702146247
Ni 2.2507927315438163 4.672998529217284 6.133856018884808 0.22315349956717048 0.42776883112083747 -1.2474023232667355
Ni 1.6584336513386493 8.788223503398063 8.440412253251967 -1.7250202166992161 -0.7908528204687799 0.13170038856149577
Ni 9.12247020898669 7.848245263547069 5.773951378829935 0.5000029459959001 -0.64037720818231 -1.1227891805693244
Ni 2.9416720740985935 8.56804900258469 12.994104111561661 -1.1449258645673637 -2.2011278441347577 0.363045165690207
Ni 0.6205206557590571 3.8062917330747457 4.601459594059333 0.6227510104601145 -0.7927819191706927 -1.5281595893903037
Ni 8.249308063820681 5.48800712245083 3.3746994724266175 1.0114437015150968 1.7268760389610325 -1.1709845093276285
Ni 0.7551853315679765 7.549350598104142 10.763998049277609 -0.3679860546352501 2.8393589525083422 -2.638812905928042
Ni 9.066080565013431 0.3335282132366568 10.040147480566047 1.372496005144991 -0.41995010640736713 0.5147297106831136
Ni 8.141700443189103 8.084488873517579 7.938489011168734 0.4398087930045071 -0.070689138985446 -0.1800911211600576
Ni 1.9508083219166699 5.093482787282537 2.603459807893834 -1.4522667947167311 1.6166399909208997 -0.3907683426370883
Ni 3.2783476163012 6.427209612204585 7.360509013123142 1.6993660064662217 0.18399945507552828 1.111889502937685
Ni 7.4470069959895575 3.130391755492884 12.389510344108581 -1.5102202313030635 0.6714890990957662 0.7395418288996295
Ni 5.416361059898499 2.4962529914791647 8.586012234895923 1.9268014212381976 -1.742666726136386 1.4243050193964824
Ni 4.950864825952856 2.5652947501336167 11.537968538855084 0.6032561349602965 0.4657694787343269 0.33245572293912423
Ni 2.4276452834743605 3.563186428791736 0.6948606028752609 0.09978245680697653 0.0808460249137898 -1.241178710954527
Ni 1.061143016943879 6.399670483752528 7.7001388702794085 -2.171592810790118 1.2946867101749961 -0.9052057188907636
Ni 5.481791886552698 5.799600078175978 3.3340686375715984 2.5275131925100855 -0.32720475895283 -0.1937961294509759
Ni 7.760659383520475 5.314359157231509 11.40005956531806 -0.6046900391933457 -0.16781641755776258 1.0378360754656966
Ni 4.9578096363472035 3.7783093188528367 0.1604491314219782 -0.9484794419777343 -0.024028501704113456 -0.32956220344141307
Ni 2.867144654042223 3.06345560424523 2.973623742984719 -0.79938682608172 -0.8799610853913619 0.35547043866674266
P 1.7530197524808233 0.6799403426716584 2.610177434331133 0.850250959921439 -0.5128093537319491 0.6511825263279302
Ni 4.5447134744461515 8.397383981191664 6.1962217091428835 0.5147667345686361 0.030283995695522037 0.8974528144182222
P 7.66767095817381 8.971983925242135 11.486943576209054 -0.7157555251133092 -0.9932107234468377 0.8739444468836368
Ni 7.238967443125883 8.312236172899256 0.4547447070026906 1.5207416996596779 -0.2768828707698264 0.3338155794011283
P 5.2128559510556025 5.079131410483578 10.785083675730235 0.14091907894628633 -0.21752406919553505 0.5383874593113696
P 1.7339399941367761 2.997590726941384 11.39381477703527 -1.1180228695289327 0.47491900644407886 -0.6437468959854913
P 4.896497673304547 6.234583474963474 5.846116455137802 -1.075956793596818 -1.49008617955735 -0.3750697009549089
Ni 5.38612527634651 8.673671072372137 3.8041741200116816 1.788719040409758 -0.01698213638029333 -0.9208056302115497
