# total energy = -381171.23577039264 ev
CRYSTAL
PRIMVEC
9.22420738178272 0.00000000000000 0.00000000000000

0.00000000000000 9.22420738178272 0.00000000000000

0.00000000000000 0.00000000000000 13.50055990040758

PRIMCOORD
 96 1
Ni -0.015668238881343426 8.558265851468763 3.4103361824036726 0.5007359675071827 -1.054584755678945 1.054402978685442
Ni 5.852944151059715 4.02015868770709 5.026636874795493 0.07554132487142474 -1.0610428525994628 1.709077834437347
Ni 8.504239668065942 7.30652244355868 8.569682653107428 0.4115567401373492 -2.863093834231437 -0.23740563861081046
Ni 5.516629545140852 5.721582211869081 3.717689543994411 0.4432718118524431 0.5036590546912487 -1.7791203409777296
Ni 0.803880460538207 7.670334412073378 10.59583333371063 1.0522604784211427 -0.24790602392150207 0.519205744176596
Ni 4.8424598906484775 0.6627971290497697 8.19521764733613 0.6504204513509251 0.2910830735296084 -1.70929946352985
Ni 7.945464849559443 8.597727011208775 10.309918875221278 -0.08453967171529311 1.3037351935305095 1.3155460701225086
Ni 6.451032541986023 4.661923701206788 10.883908101599491 0.25166497674330207 0.3512299182228338 -0.48567290252647327
Ni 4.108268317869925 1.3327319498729902 2.282026507326922 0.4717817463666778 -0.8192064319108084 0.22022372751488523
Ni 0.19073262842640443 5.91360253966428 6.8437983754628355 0.7256635282556406 0.9850554413295552 -0.49769383824674934
Ni 7.805690433117081 0.7419122344668158 5.259682787924887 0.8699407250408824 -2.7683628238054387 -1.0976821010890514
Ni 6.861159256422789 5.454237005523869 1.3197968436777072 -0.9126986848336992 -0.2902610918489453 -1.2719902970187447
Ni 0.3448027216721969 1.4844701634595316 4.062305014254097 0.4327742547552288 1.3815745704074915 -0.8735415550182635
Ni 5.884887581676748 8.651458019971184 5.536376728584381 0.5616376880885617 -0.6597990643523476 -0.4023429348485651
Ni 1.732453758235251 2.115258370018927 5.9508305187654305 0.04185961634826339 0.07634685149185562 0.11318124671138573
Ni 8.110532043002067 4.912582316161236 5.12093779304096 -0.31413687002527835 -0.30311120833873606 -0.35425842063651247
Ni 7.512978656111505 6.846040780309212 2.8577037636799862 3.14245344867653 -0.5408130380337266 3.42483899443214
Ni 0.5643849815158213 2.9472449908488176 12.49962859133875 0.047491103602427885 -0.47283487022154047 0.5977339195904866
Ni 9.105141442283673 1.743163063157681 1.292602035088294 -1.0363142395045315 -1.0689595363433784 -0.004421783216779481
Ni 5.813805838582652 1.7354424014694174 4.3564686815221965 0.12656538132777556 -1.3057365402312546 -2.014764259702427
Ni 8.251643969533793 3.9654222403257804 7.80734710078639 0.22020470135149173 0.5311786002677562 -0.9086329994047577
Ni 9.297355478436643 6.184157770223967 0.8531404959191314 -0.4665289826081707 -0.24594992863639578 -0.23129001263137586
Ni 6.807917130658563 2.0059699594065656 6.707470122947278 -2.2826752659909464 1.4198233294760452 0.8790159478692733
Ni 2.0995864414545786 1.2163040026456755 0.06126257419665747 0.42898676268833863 -0.10539183257395397 -0.3460900258931072
P 4.4872541077432775 3.417338278326685 11.122099277679556 -0.11916806042243991 -1.282961708428584 -1.6038387253911734
Ni 3.5521592953346417 8.928857612505412 11.938990482914653 0.12659366346254974 0.262547942204393 0.4852916079276546
P 1.716034668862361 1.495898956567965 2.1883463782470707 2.0215033781984735 0.18638800991236287 0.7092215806495334
Ni 1.8047807693435836 1.1445396681956272 11.020979825240584 -1.0458239787671797 0.20682905137553412 -0.07242360517804947
P 7.132507768828582 0.5195866953088669 0.3623886732954638 0.35285871207550845 0.6709206281868058 1.2096359031512394
P 5.140558604841563 8.684868099582761 3.3636782959621256 -0.6640835506603144 0.5103081845766502 0.37855148885592227
P 2.2092161477449155 7.394106293893283 6.9121783481764165 0.553224524324202 0.004309426008631287 -0.4914087765689859
Ni 8.382969011894376 6.022817156616538 10.971689349974868 0.42643622835234296 -0.27429942631336635 -2.3904165726336837
Ni 2.7345808866398382 1.3858541609395492 8.048304616699564 -2.2580042456068274 0.7636790882674653 -1.0856701642298399
Ni 6.389940615628354 5.50140037853712 8.686017435838863 0.07842918794218105 0.46102425073985764 -0.44475816658998235
Ni 9.059084974171965 0.627712855774608 12.473437376526736 -0.3764169590114227 -1.0535257182868114 0.1104427647343001
Ni 2.9986238266954457 4.841537469897192 3.1959471513897886 0.1423172448453936 0.6770059151489373 -0.15450453094020486
Ni 6.498850833732687 2.0249257058454924 11.078222489803137 -1.413064927706289 -0.985352917965316 0.03856911852244971
Ni 8.39939732547478 3.477332523990324 10.744798750518806 1.3028967567896141 -0.3993619978433703 -1.6613591882051453
Ni 5.8544015758467465 6.139623296351881 6.364339750097163 1.5312950496954918 -0.3326585829785496 0.016033399313778837
Ni 6.427031154037562 3.0687001311706408 8.974781252028935 0.037388210840471094 -1.152782127386989 1.1661397796408175
Ni 6.072923051826392 9.024512644413766 12.274223089292258 -0.4236452958707672 -0.009171382086622914 -1.2564081263097717
Ni 3.9556076835320977 8.642316830325939 0.8484721244968733 0.03469883693376605 -0.2416739269688612 -1.02213126313593
Ni 3.7832625903618275 9.121625101109153 6.071269151419337 -2.726336085751692 -1.236986013029418 0.7778468951274152
Ni 6.046569490962152 7.600341125465799 1.656816179050553 -2.414635850192364 1.8466727341064066 -1.6692851279204413
Ni 2.133660664007082 3.7164239827236467 10.092317052730666 -1.0130866364351585 -0.14886353060434362 0.06786221105961215
Ni 8.539596055462734 8.338231605457008 1.206326177379015 -0.4669308460322798 0.5696610726136705 -0.43097396832169654
Ni 4.656509091396739 1.5519083445860489 13.132912868451127 0.1127493013802897 0.26306036306443725 0.030482999080205565
Ni 1.8547667498557703 4.11160748098958 7.672530695882189 -1.393400616508142 -0.5392827174321292 -0.3184128716928129
Ni 7.547182017569188 2.547633872976711 13.135990986498166 -0.19234499882674616 -0.11399011576592626 -1.827007137356679
Ni 3.5453241575676127 3.2572613811485183 0.9913338831937898 0.8261316982757321 -0.3668079751667489 1.6039091736177926
Ni 4.104772343222551 6.900168429994673 5.074509589366483 0.6687148787847387 0.3807191859312024 1.0756680587118055
Ni 1.3311822830108297 7.663001167100654 12.920332704530514 0.5759667031167243 0.5565062803992674 -0.7387823250257858
Ni 2.421077745900276 0.39207586275485135 3.8671410765385144 0.6237285438820356 -1.4186622192884084 0.7032237111948857
Ni 7.5448944141059995 3.0725466257035032 3.296661661118947 0.6321291092409048 0.10965369317410147 1.47321074395825
Ni 1.9698295143711815 6.275643460336509 8.82476243072279 -0.542989219749439 0.3941156618427664 0.6953430228952282
Ni 0.5526730052367432 5.869520051960324 3.290356915283907 -1.0597976673384522 0.16513887072559946 -1.4915514512489667
P 0.2808642048760588 4.898413933421485 9.23715092084171 -0.005194656827062022 0.9747224348346633 0.19992563938748148
Ni 1.5780497486774931 4.430248505313805 0.7489991930989459 0.6291337740580069 0.2083416313653186 -0.3672473766970127
P 5.112932103340548 3.588096807804743 2.9758068269916365 -0.7398236218061065 0.2997826581861353 -0.16667407642320328
Ni 1.593177448998583 8.540924341344587 1.5611510005139342 0.4493154469433616 -0.032959999865788396 1.0770351142626613
P 8.646882813044805 2.652826735453363 5.68141355541283 1.022045388290343 2.1505334190166576 -0.21215971955982818
P 6.0753490184022745 -0.050500691291404096 9.616705844318606 -0.26473569388433116 -0.3490280254755086 1.9269852551142295
P 2.3382628108498222 6.502503619907779 1.0245484096060948 0.5573604008694465 -0.4900363217014916 0.012219681994643471
Ni 4.677346576168289 7.436629890527565 8.65191461824307 1.3179716488448656 0.2714627281955196 -0.047144776006602676
Ni 0.9704880966354783 3.504857559208697 2.71435496682639 0.015216816949754441 -0.6144612596474966 1.1964474294854233
Ni 3.8820077317869903 1.602955108962214 10.081705524407873 1.149651037957175 0.17982398354159998 1.54786709512156
Ni 2.0255252793338285 6.935017485978257 4.573368541821081 -1.5526143799985583 0.5246703668355931 0.5382028541043893
Ni 0.8672784387740914 8.806553845092406 5.8335917636977355 -0.16729088407159573 0.02973172273647783 0.3030273903756781
Ni 3.8021076463106 5.658064318935528 7.566740104758705 0.36288447174262667 0.04327706552108031 -0.8753660098215118
Ni 6.032225848279655 7.09776017912764 10.716582822157719 -0.016331647280488006 0.34454839243760016 -1.063493628132801
Ni 3.4651473458658364 5.773782002184354 12.091209277712613 1.2332633127621921 -0.12165791672382918 2.7354056521531276
Ni 7.069939969268855 0.38012682434269296 2.7077402876189187 0.17712535366351428 0.34704750471037005 -0.05273923937524465
Ni 1.228636768090369 4.478186711758137 4.946793979405682 0.17815456625897705 -0.8295834042697584 0.8986378358652588
Ni 2.88338580223729 8.645729787105697 9.337676334316855 -0.6753889483708045 1.6153660093044826 -1.224107357294537
Ni 1.2881421307558265 5.274235820117926 12.020210552486134 -1.7019967592208496 0.03806569652346993 -0.43596807910217816
Ni 3.3348000695016164 2.74284577657136 4.081947964152731 -0.4672447777282727 -1.0029307789480792 -0.666901993945716
Ni 5.574317738926276 3.947167533657831 12.74533841896255 -0.4166194993722373 0.09636777469847274 3.7215083038002748
Ni 3.386889169326735 4.160763282825609 5.8305136456506945 0.6384972175507778 0.521786874640211 0.2270168391773187
Ni 3.7081129717545602 7.032176063711207 2.7078205382242806 -0.26351699098588166 1.4982795140014196 0.044714055077923
Ni 4.56184104969226 5.395331216346747 1.183681670355696 -0.7427474803211208 0.12572128815992542 -0.30091857156279145
Ni 4.353041888431169 5.242855066159176 10.10234745598015 -0.6213518161197428 1.4051271609164508 -1.9832371356284229
Ni 3.931080515755404 3.443359767720462 8.507337156948761 0.7579187887449205 -0.4333550669593634 -0.13859068792342583
Ni 8.754390951607185 1.6667774007436902 7.769598876381515 0.6482298714575094 0.1329481449256678 -1.4056655499184243
Ni 5.770424390649672 6.809383779653108 12.971622065564267 -1.7248358686025518 -1.3372839760202324 0.4545738671288236
Ni 4.511836620765048 1.9747644653905616 6.0508024797898035 -1.5277428135678592 1.4782678467661832 2.1231226311038727
Ni 7.904454022957269 7.377382805672467 12.636699392559093 0.6238290740156418 0.9497133143848354 0.46637445930817745
Ni 6.216064304010948 2.559588445913377 1.4504595879388669 -1.1223091556091123 -0.4732596164637849 0.03619161942920864
Ni 8.336451333407025 3.913508400443406 1.313396166084534 1.537803797348287 0.6968486609064773 -0.5873667174235497
P 0.5810900213216101 2.066951195274081 9.463582154763634 1.1001097366939376 0.20687250301895985 1.5430545042242652
Ni 0.6273106803270473 9.173714200934272 8.74655406490426 0.6542917613808732 0.04191232396306976 0.06525382690248761
P 5.6293124641179455 3.818517511475977 7.252635545689305 -0.6816282444122971 1.6672606412912447 -1.6995177015527376
Ni 2.793412882156857 3.2517637534708532 12.39996748610756 0.8126308355758198 0.06162857144507451 -0.7033149853571112
P 3.035511432539372 7.278111884419072 10.75538352863981 -0.3068454785701876 -1.9844661229395177 0.5466918654120069
P 7.7746417506287955 7.501937279718612 6.201859946861895 0.3268520035991016 -0.4338991123882915 0.39756968182963787
P 8.214129117578993 4.742580171699233 12.648755431778401 0.0395016576390481 -0.08756714568770725 1.1545626163261795
Ni 7.2917637115381035 9.006045780973022 7.792469376488899 -0.5288183275656957 0.7715885729225291 -0.7874949597401405
