# total energy = -340892.73319535557 ev
CRYSTAL
PRIMVEC
9.04074300250321 0.00000000000000 0.00000000000000

0.00000000000000 9.04074300250321 0.00000000000000

0.00000000000000 0.00000000000000 13.23204123647507

PRIMCOORD
 96 1
Ni 6.272829007302778 2.221346677058575 11.516612639041844 1.039828423305377 -0.07453653775599421 -0.8458772563337755
Ni 4.574733403194253 0.387376844837439 5.790367957867009 -0.4153676292430072 -0.9761499113098092 1.397340832102813
Ni 2.4979753262650926 1.4600618860564165 4.627655199516241 0.3726073554573454 0.04409210522320794 0.8031128687830555
Ni 3.3908119662313676 4.121638494628887 4.813366522496193 -0.3109592436282451 0.5952247800153878 0.4139450378638677
Ni 5.33842303179001 4.330768957843645 2.895977756154248 -0.6285287934841562 0.3789356116682183 -1.0808280056461903
Ni 7.3467517262156035 5.971410641247959 2.6675661006993847 -0.9130946347205371 -0.0358108390510222 -1.4684102372458132
Ni 5.026761504105314 4.52717005514943 11.548025604089657 0.6749500610611731 0.23758998670747467 -0.7985532744368312
Ni 5.651639567241994 7.777751059296926 12.487950049027734 -0.6509891793702014 0.18208552588226706 -0.2949659535237823
Ni 1.97186737857979 6.306993974468979 0.5676628180432621 0.019509016567205113 1.0488540238427548 -1.1582395509571344
Ni 3.0265694782294923 1.6203994602010532 0.47538395594603594 -0.2316458533088978 -0.7865883887654711 -0.5602266666736481
Ni 0.5361928963156013 -0.1213312891913221 4.603228920529832 0.5482468686039526 -0.47920040742825215 1.2540324269887435
Ni 8.525004617422148 2.3383700522899353 1.2835540392805365 0.7178697432428346 0.6541884030337894 1.1576463974578257
Ni 7.073802659342149 0.6653507565775189 4.93821104435245 -1.1657299457969086 -0.35231466664658034 -0.42452152782813335
Ni 1.113964168920528 7.338832035493827 2.5917730331582765 -1.184310022791941 -0.6263736948143664 -0.02439796922839024
Ni 7.451136142966321 3.6086938685085457 3.8377022129903926 0.7052857359302369 -0.06473189296074658 -0.9156271713344037
Ni 7.52914871287295 4.185565587201581 12.476015364413788 1.0490982786430771 -0.812335158712272 0.5818272756625593
Ni 7.979269217046233 8.815230543849616 7.013921299187256 -1.2141268490430577 1.4489081626571432 0.458237689133656
Ni 6.829548910220882 0.802044075990807 0.382280578102433 -0.2757677833287767 -1.289565844008663 0.5350643084754075
Ni 1.9397094563225319 6.473605824139772 9.0110195828656 -1.4076311582852274 0.5708085559545524 1.1098629594259595
Ni 0.35240996378194356 4.872408901716176 1.426731379453708 -1.334158285907057 -0.9105060480577545 -0.1934228052719572
Ni 6.276761730435166 1.8653764687489653 6.836969551938273 0.6442703725891292 0.6809037075414467 0.6769318673778922
Ni 3.443872085918702 4.240063184999374 0.5754658831824917 0.07933730157874724 -0.8619073132134447 -0.2544535952320327
Ni 5.985884870523718 5.761692529749051 4.853525502160726 0.30336240511759366 -0.7715770029583034 0.2741531305434891
Ni 5.313597151970378 2.8629229922079484 8.964059252367743 -0.3415615418951344 0.8911721236158329 0.7929793798934794
P 0.22471851200755114 5.858708741090811 12.494368072364939 -0.556241456773655 -2.0228174690242064 0.23114577374402773
P 3.834902294934988 6.007654979265769 12.689460974182776 1.5257859469518045 1.3517302333525494 -0.3674183550572382
P 2.4150626737429355 8.479592966171598 1.2652772735691862 2.391769744227468 -0.5814174418186503 0.8389633028227617
P 6.3401282969522095 7.849905227847721 6.022590286426014 -0.5225394365355194 -0.3625949655266658 -1.0968380079212012
P 4.922666391125256 0.9567818140246352 12.592549635457878 -0.8229337601637247 -0.21277164211221422 0.2643513139617189
P 3.8292789528928135 6.284518687785948 8.051273309265998 0.5389039939364719 -0.09152921565924882 0.8852740129638431
P 4.729312024154218 0.9919412629024752 3.8040136929714943 -0.6178558871513423 -0.6963138714489298 -0.9163699630376992
P 0.1785393016904725 5.518614077196085 3.591863621650488 1.195304574130232 0.471340287953885 -0.5107858955440171
Ni 1.1706134635125942 0.795306010357314 2.4999299348656043 0.6585569644151303 1.6420324628520755 0.14817653183964802
Ni 1.9949212728041386 6.409760098252575 4.652173694079549 -0.8075881309455899 -0.06224692175536376 0.8819991988673131
Ni 5.958238278940166 5.503760136721339 9.160634836010205 -0.22477432300004513 0.007554415308490214 0.9143369917680705
Ni 8.57955645967694 2.2989162505663834 10.132488472411865 0.07048987849044634 0.7599985540920846 0.9864019280551205
Ni 2.2957881535461384 5.063937038634931 6.936646453895807 -0.5874497640556592 0.5273016338108532 -0.4858068570011762
Ni 0.4439158423669416 0.007794928470679775 9.00167778329618 0.9378438166407591 -0.18683718163463953 1.2367309595958185
Ni 1.2850059825795288 1.169112700202303 11.321201503076283 0.6953291389381573 0.05027175167135858 0.14521590654942734
Ni 4.014505692056914 6.741907949197024 1.7839700039827984 0.7876703089757402 0.39190554156532503 -0.6521646877355414
Ni 5.611082794892806 7.660646317380068 8.131857066434355 -0.8505538358738384 1.3450751899298772 0.19267204314886174
Ni 5.244381224840334 2.7800103396857914 4.755145946799739 -0.5220617255681524 -0.6443351643887936 -0.1400374476722814
Ni 0.7257555757424456 7.629446713863116 6.988410131060878 1.4382949059176713 -2.063161162948576 -0.2772456534258838
Ni 4.96438941929991 4.7462543762234075 7.1061884083188 0.09662745611776262 -0.8633306759235324 -0.6019047631387247
Ni 8.385948951906576 6.980420826619286 9.338446357902617 -0.5226003716804419 0.3772158007636342 -0.6906962681518362
Ni 4.601647694608326 0.40963786591532675 10.356691662077932 0.400167267353485 -0.6221948808463285 -0.18670117027740749
Ni 7.9454025943935225 7.232377288634335 4.55487902785853 0.9836125382354417 -0.26746183456624256 1.3510262653069893
Ni 7.193203749938608 6.167649005182748 7.1045077342261305 0.8197458493540463 -0.5622053876665737 -0.32983962547251583
Ni 2.454389905066824 4.858079324325748 2.6778607945634105 0.029674644246297278 0.9123122480285579 -0.12977000430800228
Ni 2.3285427648303796 5.4228726105937906 11.356637598684815 -1.3761834812989073 0.08715011275494668 0.7732075965831909
Ni 1.0012532280205455 3.430274808697753 3.914091065484201 -0.6838879869807512 -0.9097840822900655 -0.8062575850596244
Ni 3.6040107637210115 2.609140300140619 2.7253509125912854 0.7642642713469741 -0.16102124901280013 0.047728416424214576
Ni 1.3935853040047945 3.486942184775485 8.495327474998287 -1.2017901818545753 -0.03028733812963171 -0.2860686510341525
Ni 3.61126143947314 2.6828765986872023 6.876281413999345 0.6340422671032176 -0.2191819165139322 0.32452926900319595
Ni 4.0751781172097 6.866959504064159 5.869190578331481 -0.0648103116071658 0.9288223298684392 0.7084391939575541
Ni 0.6350335295610755 7.580825598906824 11.438292683878892 0.5075308789418292 0.7895330732160919 -0.8028138494853981
P 0.1503981814739509 5.567967492321857 7.915896322009207 0.8975245481964219 -0.43800336436465215 -0.2547402732345161
P 8.707998293106478 1.7630262191356902 8.096117201866631 -0.4432964944427914 0.19452863674162627 -1.672159621254759
P 1.9767855426809842 3.2192457894880486 10.613776937502184 -0.6066047397175552 0.40556298444775957 -0.6969630749971546
P 4.043906187750083 5.988136015489154 3.7983098883181055 -0.014184776140814282 0.2825493250269843 0.1656806021616824
P 6.999162286512257 3.8861090623415415 10.285834840123682 -1.3841721559313387 1.0130472985567909 1.0082573333673153
P 6.368000907106588 7.8998734134861435 10.253032312902427 -0.5275523163690785 -0.7285585904152485 -0.5724226945192077
P 2.378221646698143 8.51617181167423 5.8758201550509765 -0.10001179920896323 -0.190919065013497 -1.7002849187360654
P 7.069200921240111 4.061011273190267 1.4299733898336497 -0.05126548304319559 -0.21611356200125362 1.1460774616733036
Ni 5.417502409350942 2.8378439715889905 0.5929109005531988 -0.4876007156768054 0.2916248049656913 -0.09160043521681643
Ni 1.6395387127786791 1.1812724993127928 7.140843383746554 -1.035839613860958 0.7969247376944726 -0.8125277343390522
Ni 6.895600577359349 0.8901922226875999 9.0676399470806 -0.9000889664894886 -0.9024099013131814 -0.12540272847824208
Ni 2.9139308632721743 1.7008891936439456 9.16693261746773 -0.2544098864782909 -0.44123806925186587 0.525285888932405
Ni 6.378949246677446 1.779932408233546 2.65453296583122 0.8827517607626217 0.084943334911615 -0.07100846999807771
Ni 4.265856424302146 6.92755960327428 10.416593815941338 -0.3198400910576427 0.08239074369309037 0.11957995114887793
Ni 8.136632386798787 7.545223153630163 0.281816227444138 -0.4434471610880428 -1.1298265470320799 -0.33752131038748967
Ni 7.63333423328134 3.92484864538128 8.299307897040057 0.6862384894907988 -0.7301231066888909 -2.0661241022316417
Ni 3.151313647840301 8.660498230261487 12.244811927572071 0.08568098440858793 -0.7188382778036911 1.176449903317574
Ni 0.0753925626336033 4.71415973916598 10.423804712425003 0.47054813106989285 0.39218476336864067 -0.3246822496412924
Ni 8.60152546476132 2.375934338761374 5.8472920910412 0.3258539013518904 -0.07145969860288338 0.6531535340113719
Ni 3.798531386517516 2.5619205003234526 11.476916545410367 -0.2315599784633109 -0.10144338944916723 -0.08208658218911025
Ni 0.8979265781812982 3.422879481060295 12.509372993244996 0.35290010683640516 -0.04122609652932255 0.7626750724829833
Ni 3.0290376010229223 8.419905981987617 7.956690865894904 1.139306461498057 0.1451490578672339 0.6668510861031225
Ni 5.801110168501271 7.965346473083293 3.77903140830085 -1.476684304329147 0.07686261478600956 -1.037127479434446
Ni 3.135844936852905 8.314762142838921 3.5427597310269086 0.4864925702142912 0.19841280228738084 0.5432301321156515
Ni 3.426197433680035 4.631030108815829 9.53541883015545 1.1748169956998413 -1.2328365096374188 -1.265820163652291
Ni 7.282535329872251 6.142850247591617 11.21334724922623 -0.6232125234775654 0.5319967252936773 1.0745416584168461
Ni 0.7775707851416651 9.102491106627832 0.25630325116919217 -1.0956061923966292 0.741250069839988 -1.1263380742628473
Ni 4.655150810694481 0.27267603643989624 1.794833360571025 -0.2631164131133533 -0.7642791837453095 -1.451474894943055
Ni 5.802023283527412 5.503525077407679 0.373219041560839 0.05865560485967963 1.1535364890545101 0.8913757549862067
Ni 7.786375927959682 9.178433346425688 11.196714994636217 0.7562218606584719 -0.9559443828962119 0.34225419708678473
Ni -0.4102499242051261 4.86058361009051 5.479745211533833 0.3319440734100283 0.5188650730077258 2.380336562689862
Ni 8.000189495961976 8.61312473781616 2.525533318568881 -0.37776421706793645 0.5362742696231086 -0.2894401386095467
P 8.47754071754849 1.5250829085119129 3.661530681847903 0.27988283393841473 1.0164655802097204 -0.9991003494583955
P 1.8083203407294106 2.902313508731669 1.6228305159488676 -1.5780523604556886 1.26743404510663 -0.11998644255867721
P 4.74391282382964 0.9384652690448194 8.086510508532204 -0.07602957736175293 0.25942276631184996 0.24705370322353581
P 8.429326436019684 1.6821567744938084 12.48458960491668 0.5468204205700712 0.7826414883025812 -0.6151006930037084
P 6.247343153256331 7.703662171779853 1.3876437278148959 0.2197622144974344 -0.45485951669004243 0.9031295530880252
P 1.6866048199676826 3.177558924284726 5.957449022090838 0.11105854394142807 -0.16433282988453635 0.41239749087108973
P 6.565306078695682 3.8556779219654014 5.9096017947210555 2.0782082870896854 0.9416734747994945 1.1667182778521068
P 2.310877153334545 8.534813823396037 10.287938620980942 0.21083457299050143 -0.205245251828182 -1.5582258126480648
