# total energy = -340893.9159740743 ev
CRYSTAL
PRIMVEC
9.05082814652479 0.00000000000000 0.00000000000000

0.00000000000000 9.05082814652479 0.00000000000000

0.00000000000000 0.00000000000000 13.24680186417162

PRIMCOORD
 96 1
Ni 6.43185318091085 2.0578324329082425 11.467862341950829 0.21600480433753122 -0.429415365585325 0.27543482546939013
Ni 4.514996443253302 0.3591676235818817 5.907093420376757 1.0325504015867248 -0.5778376948871919 0.3187358022498704
Ni 2.6674509455951 1.4475079556457842 4.815940996086712 -0.49065698600462593 1.1307999666889428 -0.3106615098821682
Ni 3.3215904806842533 4.394774296359686 4.956701281633569 0.16900580988017347 -0.3520657838605678 -0.2271021998022734
Ni 5.2852037952335 4.54865647218482 2.6224556598112465 0.10196892293533408 -0.6342302147443077 -0.34003996304428535
Ni 7.487813271107208 5.986326177911659 2.5820400929409044 -1.4906919314621487 0.170468510468629 -0.8068440536907137
Ni 5.098946808037555 4.656053595955027 11.145500815075833 0.08905607152840792 0.7103862903815958 0.3562839357069735
Ni 5.184830113907729 7.85967558589085 12.252112053405952 1.6036597766111478 -0.8691573099076386 0.7420635668802188
Ni 1.9145578273729005 6.433645244833529 0.39833417620308437 -0.07355463345869913 0.5781462272665463 0.4344752966067356
Ni 2.840149792608357 1.5874880598283236 0.5715425848266787 0.32852142088172454 0.22510085310152847 -0.13205262969459192
Ni 0.5012764824846935 0.041052745153961075 4.626339727984558 0.23319108630883065 0.4111651611258854 0.6244929328518858
Ni 8.463266247201426 1.9965583280772718 1.1882777634852633 0.39431775055124346 1.593191272979656 -0.2241323185406721
Ni 6.941758722708077 0.6471921195990128 4.702574851321525 -0.47046045645209295 0.8315729238959615 0.40462350335262576
Ni 0.5819084980117467 7.291274543425594 2.575390449688421 1.7216718690522737 -0.3796724898342429 -0.5891076113740564
Ni 7.686859078114994 3.815955750990375 3.801116918660925 -1.8693061552352064 -0.3628677595720783 0.10207613793715968
Ni 7.847221646711025 3.842474676714857 12.356841898196294 0.2601773850896874 0.0946523346692628 1.156953742266175
Ni 7.942499711933422 8.795377325882022 6.994589310198307 -1.037165788871549 1.4502646766850378 -0.21420297524210208
Ni 6.823301487253461 0.4608980240087098 0.1888292324829403 -0.561336097687743 -0.12269689951130482 0.9473867231341877
Ni 1.8533108750256069 6.7912072515473145 9.23427912286404 -0.011633470473870288 -1.5672293016982557 -0.8133913678909283
Ni 0.19528971343247456 4.595666472257504 1.7460341272663682 0.004362390733753777 -0.24635924825967248 -1.472792939694541
Ni 6.41429457479976 2.014162188327824 6.828619753722986 -0.3673067691800384 -0.5283154197873482 1.2192153193095583
Ni 3.4652542718189645 4.479607706194352 0.8979371606104888 -0.4360228435995136 0.32473264326325363 -0.46436205686383897
Ni 6.110883671365694 5.508741142517888 4.714178917762261 -0.33060144333920477 1.4933052007152798 0.5552294705693729
Ni 5.606788761075333 2.8021091629769583 9.275384362819775 -1.4039812202374657 0.34647337737445494 -0.8907730884052014
P 0.2789438003927717 5.684100932931486 12.501006200113448 -0.5603374812198995 -0.8914945399522582 -0.2334201716005012
P 3.9080841281062466 6.111698245876002 12.695403501915742 -0.1062158711371461 0.00893149816167494 -0.8813991033894691
P 2.4111677029963166 8.569631576591908 1.6178182891782595 0.19851924595825812 -0.9137063001626071 -0.6380192494730947
P 6.191743767755634 7.881868215882806 5.694336514194904 1.3478571235503882 -1.320982924867364 1.2383127022606417
P 4.847125623589683 1.033025292317232 12.711061434169446 -0.7341371129442905 0.4643376313838068 0.21662006932402694
P 3.9942299079852983 6.254837088992959 8.038583300838235 0.029215188111375495 -0.6666330565550455 0.970708942799896
P 4.774556085549103 1.1811239891191778 3.824907924858664 -0.21506095236702316 -0.6333766084947607 -0.680106665561448
P 0.19257718031314783 5.47132502001106 3.8062695549800205 0.5851864219427793 0.25239696981332016 0.14253707416568356
Ni 1.2827195322104104 1.1145732516269877 2.5335566180873528 0.6130432962540475 0.3380129053119275 0.3578875327486675
Ni 1.6033270086398743 6.818631260061028 4.905807571312295 -0.3352474267516484 -1.443127294309308 0.5529046790909381
Ni 6.019388852202285 5.625723093026056 8.950757413723334 0.16915339120163125 0.01797123976644002 0.6344199621576107
Ni 8.578519489582161 2.4868688274876365 10.300143534022958 0.5612281113549689 -0.6009331432540748 0.13304224730137088
Ni 2.414009662954503 4.9474993049154525 7.170586278895523 -0.8871624882358076 0.6545442437113114 -0.47579369573954833
Ni 0.3798207077493546 9.166406964499572 9.52760287861212 0.5820409343352622 0.45917922711131887 -0.36723477829152235
Ni 1.513361779390266 1.261540594942394 11.586447194078724 0.02755914056519125 0.05123540113620853 -0.8514172123153982
Ni 4.048860705143309 6.906858730355311 1.590543619324769 0.43766886384336884 -0.23053642229480295 0.38444008642621535
Ni 5.762236730125839 7.898512688376773 7.946319161303979 -0.6233649898950295 -0.08458312335871886 -0.7940916391210517
Ni 5.297340955437094 2.9374914465902013 4.921610316812276 0.04206787570432755 0.5185405997887714 -0.6201310563387642
Ni 0.719135340349444 7.562555007841943 7.115903892018526 1.2874907066471892 0.061060100536114194 -0.4050274236592637
Ni 4.956830708472429 4.567210669364066 6.9864562362542735 0.4371939810894793 -0.3651388149944421 -0.38147868980504623
Ni 8.181332958355823 7.22830793377876 9.126953500634183 -0.40423655232685224 -0.34328186702035074 0.21644060632336917
Ni 4.621434179266923 0.4968026582575223 10.588168030040087 -0.32158535588352355 -1.0492330044487284 -1.1443057144848616
Ni 8.178590557504451 7.2231399110522485 4.663854504515413 -1.0069740957795172 0.09106127488389477 0.47901811621411694
Ni 7.533329884577658 6.279998390533594 6.9072931700941425 -1.2261498416458625 0.060298282669425184 0.045083008381567514
Ni 2.331873399831747 5.401778458486513 2.8881472380040907 -0.6322324675879886 -0.3036992196317221 -0.27124315598554577
Ni 2.5211081094042633 5.178232060374231 11.304621610085041 -0.5329521472284112 0.4283601848479333 0.39041275906988243
Ni 0.8322009976286071 3.2857854055422564 3.87068882250357 2.323657879050895 -0.23262081562765746 -0.2060806032452838
Ni 3.511558307316047 2.695209834740829 2.7626466482836767 1.4504212568675603 0.24604583078431175 0.9150718130515659
Ni 1.016661395487927 3.2880933666547967 8.483794429943984 0.8856267683175716 0.6768691324607569 -0.480081781591941
Ni 3.6612952039665014 2.458150550585322 6.957220251996517 -0.03137028678116533 0.955039097473123 0.15868231646697833
Ni 3.946034249458722 6.843711104150631 5.91661760656784 0.39780185244510197 0.4005159089421554 -0.2728516381232462
Ni 0.9274292832975963 7.509299936523563 11.438785652263977 -0.770064422968519 -0.06808975368938597 0.1427846714001154
P 0.4115302832700792 5.661455761544914 8.059062609110176 -0.6701302710750265 -0.8393425405390512 0.31833471015670983
P 8.684558989168522 1.6427252624551203 8.129204715110037 -1.7023600560975392 -0.6405934379581742 0.05885126581025349
P 1.901723753421598 3.2614567801677143 10.614092316372044 0.08916405786118194 -0.4039555307513236 -1.1701429872629396
P 4.174965890166931 6.1088834384014925 3.791327543212598 -0.4171864276193008 0.063033165102085 -0.14416046870171947
P 6.98677754064445 4.001678739340673 10.278179889976677 0.889186717754688 1.0476330069514603 0.2863854109436229
P 6.172203030336126 7.560265148385188 10.131922131568029 0.04147677908754792 0.06730839543867118 0.4177003911412419
P 2.365832106083712 8.625384676408567 5.975844414129568 -0.2873040661031504 -0.7853342046433959 -0.6834925513145456
P 7.037606990087689 3.9542614520128363 1.2521974253091575 0.11015223007707481 -0.31729984113429227 0.929700104487702
Ni 5.1613613171829575 3.0250220031367774 13.716930622478577 0.48194737404577 -0.896638803157359 -0.693890863829734
Ni 1.5728076169869893 1.1253075335072729 7.186456000521908 -0.6760425227944035 0.5234910018155113 -0.019520586531430895
Ni 6.720782759717213 0.6821898608930154 9.201148567364221 1.213648109634426 -0.0879623242435969 -0.3758567156325785
Ni 2.7373323877516618 1.639177337921333 9.357328748391215 0.4468533585561143 -0.5973654805074744 -0.3105177852154523
Ni 6.288451863785016 1.9036606305905535 2.299751106559133 0.5668691116908302 0.5050016847620722 1.2893580988732312
Ni 4.014205085143637 6.826912767582495 10.258044513164645 0.9178822859171676 0.6126630300964933 0.07942960418223739
Ni 7.936399453934002 7.318173603921553 0.07883180585927191 -0.3381825981205724 -1.09990636243388 0.5285265073568898
Ni 7.706426968018178 3.890416912060448 7.963911255478271 0.5748184484448939 -0.14817884583249322 2.0162328738281534
Ni 2.966979043863363 8.744412114020399 12.453609729689765 0.46601373353464903 -1.6460513542034811 0.15757005723940606
Ni 0.18723085627715752 5.015896411297676 10.192950053880327 0.4985541293645155 -0.6652081511830608 -0.0872277600704175
Ni 8.662465918283381 2.254271601483041 5.942038666868984 0.005270247260003827 0.09581138797437047 -0.3703098176724203
Ni 4.01711040089707 2.683036471225666 11.413788170708195 -1.6344857608530687 -0.09259365236802117 0.2587547937105479
Ni 1.2468692029289516 3.3938613414043863 12.71695623837571 -0.3906744973717014 0.7475279324288997 0.7803066695218174
Ni 3.3168297452128956 8.438159250628145 8.000074743404804 -0.4676903499061235 -0.2830329495316222 0.4738054616649259
Ni 5.582731660537561 8.021450083638085 3.5904127402450494 -0.4638928305369043 -0.770870206699266 0.25447982048427786
Ni 3.0439020301201456 8.272230422878339 3.8618669805569312 0.900891664896442 0.17379988883470715 -1.5461624537256276
Ni 3.52631115678052 4.134581096111423 9.07731785538994 0.08412598121664222 0.13126227258281264 0.9132126483556401
Ni 7.3970244165193995 5.989249595320876 11.29761445913081 -1.0638834073720518 0.9271536839167646 0.04313436929562894
Ni 0.5832344442979708 -0.2189884011857114 0.2975459669598462 1.0761771371377402 0.2844593975655036 0.8457962665841949
Ni 4.688084475865929 0.16601390553199338 1.6387220812783494 -0.6990299848285122 0.634830567332468 -0.3954708903190802
Ni 5.848753593948476 5.443312707684345 0.14302299251993555 0.8678468186263312 1.0034930792094525 0.6014244810681965
Ni 7.620082069925496 8.738094636151564 11.254575057254485 0.4855116943582607 -0.5936366095926615 0.029852564585058267
Ni 9.172561527466346 4.840120282801031 6.0569280659684495 0.4098469565350942 -0.7916264654100108 -1.1560980791340993
Ni 8.011041631561922 8.789910625835065 2.4574807893212904 -0.7249227934348741 0.7912400286048695 -0.09490455988938494
P 8.396842221299728 1.6450332235676606 3.4543950885137655 -0.14023670816728107 0.4098621260437457 0.6309877965476102
P 1.8529940960493758 3.1853483684212396 1.6709249269192052 -1.437700723977098 0.35984208537187706 -0.47829023690915684
P 4.751811355055716 1.024137379326979 8.229019055272062 0.4587161714319713 0.41363701970514566 -0.3657916180870926
P 8.59630436639056 1.2661293646837974 12.386845392659316 -0.6959073800391306 1.5510156680528708 -0.9568900346389329
P 6.373285273619682 7.666974409235578 1.5860924221673287 -0.4794225507413873 -0.48139510108672573 -1.3890186853903626
P 1.6538849332463446 3.169789995274351 5.937573893469706 1.2661464366434583 -0.4482510102345893 0.7235585660974957
P 6.972296216016746 4.071686893087728 6.053549391916248 -0.6739285617751941 -0.4775338183591066 -1.35935766799082
P 2.4389265921420455 8.535365142191605 10.186895955103157 0.5114718658674481 1.896337448321386 1.0325090068258282
