# total energy = -340870.08002169436 ev
CRYSTAL
PRIMVEC
9.22668711707065 0.00000000000000 0.00000000000000

0.00000000000000 9.22668711707065 0.00000000000000

0.00000000000000 0.00000000000000 13.50418924365799

PRIMCOORD
 96 1
Ni 1.649113489976836 3.1748661715915327 4.576002292711098 -1.858498008876109 0.1150820632785244 0.3305826742861274
Ni 8.291451765515065 7.531809378584375 3.648886305736939 -0.8404936234243588 0.47451688590965374 -1.802948810855895
Ni 4.615687197187269 6.567085414431151 1.2696382972828886 2.5841725928753427 -2.4096574231411663 0.24169732400762894
Ni 9.06409455476305 2.453274642827295 12.670885945317446 0.5338579468721322 -1.178203909894203 1.5107015418148564
Ni 5.666846767379124 6.269570884465767 11.102387867069982 -1.397333375903645 1.2275793750035375 0.05066872999946113
Ni 6.6876136298114535 5.598560055136178 7.3154896963068605 1.5342297068437836 -0.17193943858720065 -0.06406289191817999
Ni 0.20335526404044285 1.5896843974816572 5.73159689040403 1.4309127545209872 -0.7461457073693923 2.0409928543816527
Ni 8.994746773487819 5.75519229767587 6.065960041188853 0.36133718186016484 0.848739408372919 0.45630216267383994
Ni 1.970432873014346 7.768916787207432 3.757837796640653 -2.322980393367896 -0.11625577187165138 0.1208289930646306
Ni 3.552883547701993 8.456563333625796 2.505338070900971 3.1155381123429247 -0.46940681837659803 0.411054346579634
Ni 2.221121965250646 0.9627771331461616 3.846748922865042 -0.6954301832923959 -0.8230368614004921 0.91104495128036
Ni 6.171500425820952 3.722497739184507 5.800495332010808 -0.4053305567219794 0.4069290115573508 0.016608040870326232
Ni 6.866519095341887 7.134425185962909 9.221052499362218 -0.5509976918762123 0.25796006572339447 0.10905256925499282
Ni 6.150389765422106 8.63347583471298 -0.010362492436164472 -0.7800909539665856 1.006511554320802 0.12051300448610858
Ni 0.6913842774181782 8.519083366345457 10.337335873412087 -1.082377352411181 -0.6638516371551664 0.2520051336915402
Ni 1.613710691047477 5.286199785406046 0.6914783896279983 -0.24453993566274657 -0.7379022364136776 -1.2167172354780529
Ni 2.9503900977962827 7.551886650012648 0.4966338218952022 -3.2823962797524757 0.9705065969811029 -1.0855349242035564
Ni 5.191801548281659 8.592878410869046 11.025981670058249 0.6294443633198902 0.15866534718611383 -1.2385384451182024
Ni 6.383077590858516 8.440269003964799 7.310115150991158 0.4086904743331478 0.3105293551796781 -1.9510027010747497
Ni 1.1349840237423452 1.4852475246431338 10.395917033350162 -1.2892796802268118 1.2033816947114115 2.1695618964030183
Ni 8.722928567478197 3.425130836214919 10.797558419462899 -0.5259461482242233 1.6232811503865012 -1.214538225548863
Ni 4.053412876948766 0.6091320513729179 7.87791164354116 0.9326334760844132 -0.2028340712835281 -0.7576007432838694
Ni 3.4793099436720976 8.614588805938315 5.847908509716905 0.30891778771818407 0.6283220767899889 -1.0807053640253967
Ni 4.679305205688163 3.012005915166691 8.464803687997392 0.01572512404474066 0.9801181519289377 0.4697582881787458
P 7.140846960280041 8.04017216529558 11.649902255735041 1.1793516503454011 -1.2648248896185572 0.0986581133945462
P 1.8894686925074071 0.5793095528846527 12.37031000052674 -0.2782627818364885 1.6991461771459317 0.07405934100925955
P 4.150809787425261 4.240041079696783 1.4741708866148056 0.3801707696269001 0.1811928388646686 -0.17638539017369623
P 4.561895610594054 0.8223100466461456 1.2162969730268525 1.8492119555884927 -1.7900999799176847 1.2888168816577803
P 8.612263680754525 0.2310150270402949 7.572757416543325 -0.25198636463846286 0.9647270141848482 0.23003325740613934
P 0.9649269512724428 7.305626367650231 1.6146822612135603 -0.37502599220116706 -0.43210988169835257 -0.17875054797176312
P 6.855834591521142 2.5313785502906843 10.19863385218056 0.08205572895117481 0.3078217264405279 -0.6793219648766237
P 3.73534128781877 6.212245476660683 12.410781941424249 -0.32606164648732233 -0.01338979104334468 0.1855187199335321
Ni 7.238889738863145 5.352714973699439 4.025760495298703 0.11109788181979577 0.43296117395505435 -0.40744708884434994
Ni 1.4275622760357967 3.9150863818877935 6.92319309902802 -1.3689064880215198 -1.4637681104881113 1.3816735578792012
Ni 6.195037704963196 1.0010955652424942 8.841044004145957 -0.03990609216631837 -0.2154031661977903 1.7225293319565627
Ni 8.877770832693862 5.177684716808654 8.75351042232609 -0.9976543610404883 -1.1316779984185221 -0.903536815828773
Ni 4.445408684223672 1.3148306113709782 3.425553418490385 2.4897046063027446 -0.30848841349024936 0.2837351178049694
Ni 8.366584679688057 3.2219960899994464 4.641106720525915 -0.12534230755395187 1.9756019876806685 -0.3317980347504673
Ni 4.5006027272769495 2.491897555602457 0.07078068580317738 -0.49392023013693 1.660667304344443 0.2535498524708407
Ni 6.484155949542677 0.5111723129749497 2.259520669525943 -0.7161697298325923 -0.9817065794619803 0.9482387867218379
Ni 5.054000974393211 6.762266756248107 5.977521321351011 -0.9474741406416716 -3.0669213797764856 1.6318480661199057
Ni 0.12408602597898807 0.3936612243212317 1.7752607578846276 1.2892138599858831 -0.7796286696181862 0.3218278109116328
Ni 0.723887128548867 5.75556136516536 3.973472858725162 -0.8789601549306733 -0.9074250951395856 -1.2137987762796774
Ni 2.3008959031039793 3.1353944035905426 12.73490992805678 0.3486004510197867 -0.5434887850936768 -1.1184211334086158
Ni 2.7534649120914847 5.546724526237263 2.587470350012147 1.1418865635204076 0.3121650910108882 1.4823780122798147
Ni 1.6014299703346866 4.044878191254302 9.658277527474164 0.6082044801045073 -0.2407287894467725 -0.7816829810440538
Ni 7.381119122625477 0.9955041927767159 4.537259433001852 -0.861294105109478 -0.26105773081211164 -0.41742476888235214
Ni 6.682160657654234 2.743334009504975 12.686902551692603 2.3064392011797628 0.0207760562050868 1.0212763713348023
Ni 1.1545538273725693 5.024530935357408 11.727051201069376 0.04045270869840775 0.26743123843862326 0.5168765818227873
Ni 2.7761717893823765 7.7618768248454035 9.188547802894082 1.026079963371033 -1.007757253802445 1.5517186076571665
Ni 5.699970574560882 8.263144289071157 4.573881999983977 0.7662550765247578 2.960096928521063 -2.2557995246460245
Ni 2.4461608669673693 5.116926981351311 5.319624382591737 2.909063873203648 1.8219330652678816 0.5148112146533264
Ni 4.913727648325177 4.833400109237609 3.9150134910586196 -0.9483876535948763 -0.39804482169384353 -0.4547913824562684
Ni 6.744975944365486 6.282091499046727 13.21491633688172 -0.06453443223795984 0.5228862783519769 0.42355762125296725
Ni 2.91264372030866 2.8943195194554656 2.818931948714725 0.6875456383379965 1.832963097829798 -2.3959459870923445
Ni 8.00914281611668 2.4405233610654045 2.267947402979731 0.13193898693486308 1.1029261230968102 0.44916092364336835
P 7.261679656339172 7.0822759496979275 5.558566979306284 -0.32862966432481466 -0.7163178253746825 0.6623961356555624
P 1.1164752891444056 6.286031294497036 9.878125494951204 0.9908427374352935 0.6244705642543825 -0.05431172606868711
P 0.7111690628610307 3.913351764687189 2.6208931018603905 0.35316930133739177 -0.05220496413832945 1.1339511107234148
P 6.509021871647087 6.829769200075887 2.137470050751494 0.9384480258836613 -0.9388087516571896 1.202573082767187
P 0.1570944995702786 0.4270037039905109 3.865303790899168 -0.24640321412373048 0.35289085086502453 0.06513144239201042
P 6.337248635351054 3.0543471828984683 3.630574099577153 -0.2183591635023207 -0.05199259101720723 -0.34441829461763906
P 2.4076209943773423 1.9579030317461499 6.396394468548049 -1.2062957830344128 -1.416445671253064 0.8059572802103862
P 4.965692350845414 8.057241536684506 8.926390861090592 -1.1594844791078291 0.7386581407430957 0.0448418389050389
Ni 2.466782512942641 7.896743312192404 11.7178549619 0.23994794541668998 -1.914866874584141 -0.9886701552640069
Ni 5.163955406199614 4.596126620244282 12.490443313693287 -1.119407151470969 -1.106547007678849 0.7167232883432173
Ni 7.785718584666478 0.7049641156939745 10.974463539200293 0.22716724871225394 0.9742737773330188 -0.5008514100391245
Ni 5.133590378501799 1.9895782490316565 11.354119574964091 -1.549850958320808 -0.5295634332618363 -1.588190477330955
Ni 8.655619884082402 2.632890563274997 8.554904134206664 0.692137371473737 -1.1237217196859228 0.28509960225266384
Ni 6.4951726141039625 4.2728234994507615 1.1323045937686453 -0.7244476535706685 0.15270013074161443 0.6883375381116725
Ni 4.815601829556938 5.878765319844468 8.706907347759422 -0.8981932921286724 0.21909809855087425 0.8718340854088533
Ni 2.5112182386772752 0.8828343469163871 1.4067311842602392 -0.7078964340802066 0.28068090435967785 -1.4233809649203164
Ni 9.073136708255563 8.41452654657285 5.592908709203359 0.4540550185108761 -0.5299398427646486 2.121987746168481
Ni 8.668694099897596 5.419691496354695 1.8376091742216747 -0.9023654212284911 0.8583612477333992 -0.4754823351467166
Ni 6.550994071889374 4.6260487669547095 9.926794424790293 0.35299678031526943 -1.0563593310808645 -1.2194204933418287
Ni 4.049989775983743 0.16462624436205234 12.713681166061296 -1.4122522019970065 1.4058103030264049 1.3130294743482418
Ni 8.956326847831876 7.508631940244383 8.442670710652656 0.8987365662266521 0.6039439050559405 -1.2444396410939857
Ni 1.8995534616577303 -0.2551317421410399 7.615768541768528 -2.6810661581702986 0.8994215081088187 -1.7976168571200202
Ni 9.106924836918402 9.07429004416022 12.78429484882548 0.09244324283308596 0.5826651981828224 -0.17829931936695745
Ni 8.1475800314245 6.24132799483252 10.812412463246162 1.2396555894417811 -0.4868669228345744 1.2039627640258619
Ni 2.2408947560000905 2.0212442396299264 8.585193503069133 0.31204759159641743 0.833909285338622 -1.6879179125302801
Ni 2.1051978668017366 6.080746730155282 7.645829088787514 0.023286481331766345 0.003731956238606476 -0.19781579213333028
Ni -0.0018757855153345537 6.691802545817168 12.902942665346828 0.5363624584615407 -0.04468011651619402 0.7117407475269614
Ni 3.9320542597171113 2.7469231908402687 5.26502730620271 1.045091214366213 0.8702482289789722 0.059443905088929876
Ni 3.340642061183347 0.6896136761373484 10.257728015929025 0.2177834935045088 0.15799094682690853 0.2395064870038972
Ni 0.9988627069310777 2.5103786101386847 1.1032386836338353 0.0831366207201794 0.9807429299971303 0.17518777032116925
Ni 7.99383574199007 7.8333651975596785 1.1051329225236444 1.074169362679092 0.09588954951047357 0.6987389359506546
Ni 7.068103758101499 1.840078235726365 6.909945421492765 1.1191616111190659 -0.11446731251266093 -0.29743241278640387
P 3.3886300615043257 2.9966896143528428 10.466476278659647 -0.5843533845185227 -0.3128328065018741 -0.45826314305495264
P 4.000673132700599 6.8654487996223645 4.090472788905936 -0.20931607946344596 0.05471436082374447 -0.6299513848632957
P 8.11632001506467 4.691512112903055 12.825347148350213 0.8602288970697572 -1.018881902960697 -0.037744308628309194
P 5.420411177959201 1.1357037053468513 5.793999744195777 -1.0014649930358301 -0.954443372870653 -0.41234684013881245
P 4.263126251164403 4.87408057326668 6.97598082204982 -0.24962197817134432 -1.3280663140767064 -1.120954955574063
P 1.7807690901652706 7.2727609077111195 5.7753775213448195 -0.7800637002730759 -0.9065995139144967 2.1540560874579353
P 7.690923599990889 1.0452729437344854 0.6341483684792956 -0.01321341336648047 0.7769539509995007 -2.436470943789584
P 8.337105413965016 3.9069576704317694 6.834645504280778 -1.011334172520426 -0.8132116477799544 0.07459387335649088
