# total energy = -340874.182350333 ev
CRYSTAL
PRIMVEC
9.20896214068080 0.00000000000000 0.00000000000000
0.00000000000000 9.20896214068080 0.00000000000000
0.00000000000000 0.00000000000000 13.47824694904689
PRIMCOORD
 96 1
Ni 2.9896342327406495 8.548209690945392 13.3788038170261 0.33199215303914437 0.26336426745810126 -0.357690586246513
Ni 6.290503751406608 4.857930008636578 12.121391897096206 0.026458194191528627 0.08890926153789849 -0.4318170330482821
Ni 4.114370796532924 3.5443176359166446 7.712548888016375 -0.3667737794947038 1.1921002082603211 0.5049204379021756
Ni 2.549722121942296 1.8768232746315208 8.845544048856253 0.3432312162880734 -0.28198728187592725 0.35107539492284057
Ni 5.010098895361133 5.9840663346403105 2.405111951159614 -0.4539465179574699 0.5126728281540848 0.24605148721126655
Ni 8.566793376094878 5.612622855698472 2.3119237028279875 -0.8894638826754747 -1.222559810301759 -0.42288733465882006
Ni 5.875824196262169 4.2873519371910005 1.042576968253031 0.7837475768825664 -1.089034966937015 -0.39033022665840517
Ni 8.358026209425448 5.354265429103375 7.61847105396352 -0.3884193827889375 0.8943417795930663 0.6069184143032322
Ni 2.179199539192206 3.2702589292522313 12.202665590498988 -0.6682749630338426 -1.5424700924757047 -0.5373641602531778
Ni 3.92485956923296 0.6492815435771879 2.0163187879652305 -0.4930419412970347 0.27618018827584695 -0.9791524455815588
Ni 3.1185228637377977 4.171199300525737 9.896011255680188 -0.9140240885133419 -0.6060131288801434 -0.06068009148887614
Ni 0.5751945240548133 3.655746075118237 5.734293502344694 -1.13587275322616 0.35748952597930045 1.0030860735790208
Ni 0.18999653959301654 1.303869291011232 11.189721219904047 0.1687571842044771 1.0263872101988065 -1.1645904328758265
Ni 9.031717027461129 7.988056164390409 7.971695522647802 0.154924649196759 -0.6701251288687039 -0.6671776162046058
Ni 4.942919518173065 3.3754805281214377 5.32138667236937 -0.7482568401751243 -0.2995258049803229 -0.11150205923674991
Ni 0.6157747356404116 5.755693288048549 4.3753490936897395 0.09907360366541001 -0.07280952776255847 0.493588300718808
Ni 2.7093134319723458 4.94575587844365 5.746127018408664 0.4122344829306643 0.3146929996390645 -0.09345342926515518
Ni 8.949950654595762 2.527952135969356 1.6281048684754564 -0.7552363568167509 0.044549504475600694 0.4425146219714443
Ni 8.290073279436312 3.091466933624221 7.642165712977214 -1.5247063407343806 -1.8699396750541473 0.27191601368285423
Ni 6.008488501645486 1.5040721230973992 8.438016173536933 -0.3868805775469079 1.3620277586238154 0.17432825053435136
Ni 1.3127467302996896 0.46709144100162514 2.2680927276855165 -1.338880631083391 2.067100350101982 0.30927002885128024
Ni 1.7244517907447807 -0.4100953339019146 9.273343612044536 -1.9002789494676369 -0.8750893591213574 -0.1826678807482983
Ni 8.234009119282652 8.295801253748989 10.410610810317936 -0.3357642184870669 -1.5298290066729265 -0.542065422383589
Ni 2.398768818190849 7.5710651598046805 6.49358990946914 0.00798713197053463 -1.5495858775848796 -1.7461318018668508
P 7.645740631993583 8.06383671200941 12.464749883982092 -1.2805351012649624 1.5120523994157957 1.0936524111043682
P 6.181884045589849 3.8592365066089473 7.491222539083876 1.6026164229482982 -0.6123763520940099 -0.99062779321101
P 1.64519025552097 1.2053610253798737 13.085409973919731 0.22216259640881095 0.09509584996458462 1.2283939004850328
P 1.0754962444194718 3.089910619060166 10.080731060094482 0.3367304390550781 0.1830815712469492 0.4141805509134416
P 2.4535437236760615 2.7822115745111726 6.366180237755941 0.37070396778704545 -1.1063873421725332 -0.471364199213285
P 4.999794066975465 1.3135202831007584 4.1402884989535 1.0520347355635817 -0.06934445203209348 0.10069725531176206
P 8.416300520439307 3.616847419978772 3.9150124262545907 0.45431007194447565 -0.1568717456208008 -1.1545225071168632
P 8.648044047092867 0.9225630138557652 6.99484567828845 0.7019931812218944 -0.2664742738419927 -2.503612217522772
Ni 5.8004212160817845 8.259370600403411 9.127212120753084 1.360747092139179 -0.581038975433309 0.7837565757436309
Ni 1.8971198266976619 0.4734391784513489 6.790246487782875 -1.8583689394974123 1.624322447166822 -0.2963430363769671
Ni 7.009797348857682 9.286409287213067 5.0807058481748895 -1.79986760082741 -0.42928346799315104 0.10790071503873674
Ni 6.01463087924445 0.39202827151599684 0.4306147428464591 0.26618708161887705 -1.497074437949725 -0.5046687269026857
Ni 2.8223350215856633 1.36555091793456 4.3030780814574925 0.7172498502706487 -0.21363990364978047 0.5418702756536474
Ni 0.9020850452398493 4.452754102190984 0.508086976769702 -0.8181108848537846 -0.5405546421660175 -1.570417212507934
Ni 5.760518784093314 7.233400153176184 11.526313382469155 1.826438666447719 -1.1661498069431464 -0.43834146443036126
Ni 6.4968489610917395 1.8746499596189936 2.289711686683009 0.3083179493506561 0.1241662849679797 0.7061180020235452
Ni 1.2532384183888883 2.8922678783870595 3.740658229374618 0.08921033771808506 0.48088962220521697 -2.138948542392536
Ni 1.3000659897393099 3.635228507966076 7.9927085319511235 -0.009112760934545595 1.8070484348465652 0.7567630778739224
Ni -0.6048096246852598 6.17879904334749 12.347367850900843 1.9461679986902676 -1.3179325680768141 -2.0595063398048077
Ni -0.0847905959590698 7.569582516935965 0.8039276410575471 0.6709167715320639 -0.11524995631495637 1.2427547971923951
Ni 7.50880336828055 4.87470873725024 5.56733778546923 -1.1903942813128081 -0.04938626374261172 -0.33928354449423503
Ni 8.98817705551525 5.309417784565213 9.811152513402927 1.5528002707571193 0.19098488525442592 1.2419659827425127
Ni 3.609940698540657 7.6864718705546276 11.062540851342593 -0.8985229075539494 -0.16109452545289674 -0.8902444695952411
Ni 7.0614872521005365 7.649313709217567 2.1220956872380614 -1.9657806307148729 0.2852962916445022 0.5957711394371611
Ni 8.954849822335865 3.7324935637385734 11.790729385109769 -0.6194923943135008 -0.5021652437545416 -0.756362242891078
Ni 9.07019207035239 0.9645374622756709 4.8718336993396 1.7473913853055647 0.12662348825922062 -0.48318176067350327
Ni 0.640918885259918 8.314099461079037 12.215429211716625 2.1937732035418995 -0.5614505117784202 -0.4439022463475904
Ni 5.321693330801223 3.0871018856753323 10.946977588240047 -1.201755214851582 -2.868648959721711 -0.1607854788529102
Ni 8.244092932582301 0.8599024742806085 8.923933495386477 -0.28610593202999113 0.7979233541623162 2.357477141593185
Ni 4.990087821114434 5.926583994351357 5.101691230592459 0.8382091982655564 -1.206978153813418 -0.872334936304672
Ni 6.312393453884474 4.1936139138329 3.4037023128137682 0.8920146741217864 0.2871780820482473 0.6255918223430194
Ni 4.689295498003556 8.09696134802661 5.683493184823068 -1.7234125058924643 0.04651511284240376 -1.4166626723598763
P 4.8558027384336375 7.706731586773098 1.002582446645385 0.1728832905577087 1.5001255660712227 1.3250509242891502
P 7.23949648596556 6.445914192726119 3.9382761058505467 -0.680332408419009 -0.4293176636651961 -0.19526860023144435
P 4.212519912649501 0.7416483525057743 9.63974978881751 0.5632842225530492 0.2497219940843183 2.0608032042393605
P 4.022446938672569 4.412612237192659 11.827592859665469 0.047332209427060415 0.9825334462386498 0.5214078940342375
P 4.187287356995587 5.944191529537592 7.190874087937422 -0.652293757114238 0.4685056467185673 0.4794616315094387
P 8.044700489144873 0.23919726042957437 2.3984004597141495 0.832779799719869 2.8897482035941717 -0.8211195897731214
P 5.686883924601088 9.033660118425718 7.067709747668183 2.040839102412608 0.9602391536168237 1.6847032622477243
P 7.092604334419725 6.2847205233224255 9.533203941224567 -1.1503002415053993 1.4441716764134225 -0.43587731916058486
Ni 9.097358508008975 7.8584676522875325 3.253662538084536 1.1505357545549733 -0.30370281917614794 1.7052777439649665
Ni 2.2000210020876443 2.615676707195338 1.4122237787247673 -0.7142997665033891 -1.428002779963044 -0.15568955238724155
Ni 4.171272972221077 6.2672234956792 13.07675631240587 -0.003068354512678587 0.33563283511552516 -0.6413244025869277
Ni 7.241393532120563 2.472836498893197 5.3184619060643765 -0.5766300477323361 -0.041991256830121226 0.3697475174110471
Ni 2.0081799074225555 5.619345397898237 11.830558145402899 -0.1663269774964297 0.4541720037047146 -1.106464475267372
Ni 3.1203186113117076 7.083303282883064 3.9982678882620153 -1.0128668071148685 -0.6357939596870018 0.8693956511706898
Ni 4.418745405829705 6.0859082444857995 9.458912482747625 1.2775608491279868 0.1014798991140575 -0.646655584991854
Ni 6.73848291284468 4.110401733946488 9.71664277903614 1.605062056275313 0.7641534568007227 -1.67754428260544
Ni 6.325488597731141 6.826281155766001 7.156409547961226 -0.7442104380198925 -0.2059479343221614 1.0598367481065039
Ni 5.051115611741619 8.348485724878932 3.3268627345742567 0.5887851950376312 -0.13062232500596857 0.2952757714547173
Ni 2.073103088940839 6.129973127260975 8.342710784860476 -0.02177184445945283 -0.10510541168178672 1.029632970829614
Ni 2.437483294091964 0.4213431599879332 11.234927093060799 0.006627018398214393 0.7255660834458278 -1.086064057234149
Ni 3.9770375474574413 1.5976075492933148 12.33740743769089 1.0148666111537166 -0.009722369494086482 0.5070421122308687
Ni 4.109130897201874 1.3637827972464025 6.721830347009289 0.33421410039112764 -0.5652642290975555 -0.7844345756472619
Ni 6.057590686589526 0.3132013992946916 11.180650392415322 -0.44374952281980995 1.4006177030818716 0.36012722071246367
Ni 8.035436273455879 7.253227048184534 5.741315335806777 1.3948882567972622 0.1367999145715902 -0.4324143003126489
Ni 6.95502244337247 6.351715721272144 0.3746979260834781 -1.8288403339106762 0.17744802711025567 -0.04832156992352323
Ni 3.632953894372457 8.496086966492415 8.245222872209576 0.8141177045339915 -0.909345194980434 -1.0412312171901745
Ni 4.275932824413316 2.9774323581999798 2.6232713380886894 0.012384489707281898 0.24810888396092753 1.1087774396712649
Ni 1.7829471168446582 5.218497703553863 2.3308066792397946 1.2658934400923876 0.48320618615353556 1.261775561269272
Ni 2.311504695060742 7.777797145890346 1.9932705980781438 0.3863113353069992 -1.7707205469498086 -0.2453359492014807
Ni 8.757787246263561 0.6822975138437625 -0.14419208391162797 -1.6875163062164873 0.7973206875813107 2.652126335207497
Ni 3.529279401105388 4.253803688925595 0.5372628099166843 0.10425154832192368 0.01806225681834954 0.31349820800001493
Ni 7.119255070208933 2.450661318595888 13.138069580852497 -0.5594892742869912 0.4529129344866329 -0.46588543548690087
P 4.897335156681504 2.272182427673073 0.619683019078193 0.28861867114951584 0.49990267297261 0.7379246050111807
P 7.331125657044556 2.1099113097250344 10.839017244096581 0.6001862377857212 0.2191497777244161 -0.420729664885869
P 1.9847615172663857 6.331308661662993 0.3275029171525489 -0.2534855748918086 1.3542321738387968 1.3287363435605375
P 8.006345162758537 4.445221171342481 0.15219098823315716 -0.7190863892587551 -0.38645557419434734 0.8917794181825286
P 1.0599607256646713 7.133897319657738 10.54892481383763 0.22971238373161085 -0.5864686310893126 -2.151785289145888
P 3.4634721592430258 4.73402342603679 3.580442551726562 0.6296204838864383 0.8450917843180027 0.8928363986921334
P 0.7760382998904377 6.109667366232916 6.553770475599918 -0.16562223811992122 0.14819350112051252 -0.42800357283946283
P 1.5730564568212944 8.793278585493555 4.407076730184057 0.49203355463717846 -1.0785590071063553 0.3069889461265874
