# total energy = -381162.9672636439 ev
CRYSTAL
PRIMVEC
9.30695532174173 0.00000000000000 0.00000000000000

0.00000000000000 9.30695532174173 0.00000000000000

0.00000000000000 0.00000000000000 13.62166987483501

PRIMCOORD
 96 1
Ni 4.668750454999697 5.714144922571896 10.65822118020767 0.4003724413857557 -0.5533096278388406 -0.8262684809639125
Ni 8.774532479842215 7.839425434732985 9.420611091759062 -0.5274507577942077 -1.865920269482109 -0.18351068836456783
Ni 8.398354646210928 7.1839272531726985 6.282246138677456 0.17737860732490096 -0.669737406511982 -0.2837945102879951
Ni 5.334002325905231 2.4060062103678854 10.069996464958699 0.5240795273291297 0.9432007100772982 -2.782920667014956
Ni 1.0028616810189703 6.057162073820436 10.403032837148228 -0.9767422934781694 0.8059655077405022 -0.663441031980309
Ni 0.7456202235801742 0.9399373550044441 5.8465838297778285 1.5002322668524162 -0.034419100909818146 -1.3309685753251659
Ni 6.116559063707244 1.8112824481057588 12.045261884485896 1.2118881895205258 -1.3131544299618805 1.4827459371421947
Ni 7.617045040443517 3.346846340054094 10.253957747018028 -2.3605069295584444 -2.149883958358117 -1.6146185896154965
Ni 2.2499378738884315 5.7077231232892425 6.044969962138875 -0.864687447061743 -0.7672603778608205 -1.2272692999622865
Ni 9.149267735373776 4.676465921094363 6.142937767630181 -0.17873023625678897 -0.22027540668842707 -0.9770775653304011
Ni 0.6987904156808559 0.40559246643248714 0.43077988005371365 -0.6725697337544545 -0.17379294685617167 0.17737989287648162
Ni 5.013442858235015 0.44639974343933403 0.44203291992712934 0.33501577035681657 0.3430242424835899 0.4678117059753362
Ni 5.0491443394643785 8.797688185081698 11.78684495856971 -2.140004751571192 0.2895596949065465 0.7788894774593167
Ni 1.846835018047408 4.447933629231223 12.678042718409907 -0.60279102239842 -0.29591674747282587 0.25046992799393636
Ni 6.465588508197225 8.43533118034134 7.619349442620887 1.422426571426847 0.514962652629526 1.548050671887276
Ni 5.187724906592953 5.131548123302955 1.6890327957616371 1.396003344238312 0.6970291523483996 -1.1311758619711227
Ni 6.757994435534066 2.764444986850277 7.842431581353705 -2.5192584087004612 -1.3287114038598729 4.491262651727543
Ni 0.9511615433158652 8.20242461940161 7.448124729138821 0.44872743565037565 0.7123120466493991 0.08986468347263232
Ni 1.8791301535703195 3.868007926185646 1.8612105414850706 -0.3069354671808327 -0.8697270663681796 -1.2562677440771655
Ni 7.228526183842956 8.493276285172938 12.731289672114139 -0.4055411300708886 1.3555958869555427 0.2636054369346299
Ni 1.4304883645553461 7.494612041076398 0.20137366507080348 -1.4889821478598937 -0.3685334424982879 -1.2203468618108402
Ni 6.198404430216893 6.3627466501199414 12.39678187026289 -1.3196307817148434 1.6373903360943736 0.5076851451315063
Ni 2.420022485323939 1.0369344450389644 7.97219101607634 -0.028312216681131888 -0.5949928665102397 0.7777653911572024
Ni 3.9904967672856584 2.5729729917168873 11.823963889118998 -2.5935766597980625 0.36186991443518324 0.597934465637067
P 9.338599130746282 5.410738173855204 12.505837051820029 -0.34542436728465026 -0.33707033889300014 0.875160578678925
Ni 2.7978290361645954 7.156778864031391 11.922326309522745 -0.5370278599596816 0.23288666769453437 -2.9597814541631737
P 0.67221905777944 0.44293848669553837 3.691226960280763 0.9162912872809639 1.5176185806496636 0.2532750015428993
Ni 0.47825745205458664 2.409766220382657 7.919789133929883 0.22827076618907785 1.1146295275766676 -1.057105979438902
P 5.864805917916246 4.494542862285615 9.084292156370994 -0.2738381704062316 -2.0857346773737175 0.6296171414523286
P 0.4889055398216654 6.144452009287119 7.772088681124392 0.06013501761868354 -0.8387668705412393 0.6711330013079281
P 1.750414959252778 1.9306162312973363 10.565784498359383 -0.6207118685428987 0.665128446985061 -0.09677246633605914
Ni 2.841292518266035 5.936311256885275 1.4262974425017532 0.4107666401358861 -1.1666429445294813 0.5214279486388956
Ni 3.8093834136038534 4.185375108125499 3.1918976303191373 -0.08045418879200983 0.13343048387872505 0.7910276554837474
Ni 4.472615675169771 8.037356456970956 5.191886046389004 -1.505260316194627 1.2341385162782939 -1.4973683150410602
Ni 3.5329854496962367 0.8565032911939984 10.240935454907465 0.19768749408558212 -1.0455036193132832 -0.2611268934871503
Ni 0.4921806574558189 5.825046604096685 1.5427907428801917 -0.702070571427049 -1.1050925346205096 0.1562600801787309
Ni 6.334676872385906 4.8378299152431365 6.400686454142751 0.45282603119978143 -1.2045170938674352 1.6344471943056496
Ni 5.32264784021706 6.80279811922493 6.6932803819803315 -1.4645906063894067 -2.471974021792201 1.5017111653907877
Ni 4.057451005023936 3.138649745919358 0.41920947299835803 1.4379892017517946 2.146879367203838 0.024656879316731727
Ni 9.167137089899422 3.188851463789844 0.6661183484609188 0.7724388367379665 -0.128787585790075 2.0919042965195396
Ni 0.2740302744329691 7.93229023653345 2.706353762817609 -0.5310770416928854 -1.0013621489093787 2.6792663859573986
Ni 7.21829783976812 6.983632264242272 2.946054401259278 -0.833899258036293 0.3058419770063378 -0.6170308201468857
Ni 7.899911338411199 0.04752317608273536 4.402456121963455 0.1332469071130092 -0.1309352282606971 0.31067487961860685
Ni 3.6093490194269253 7.652634838207095 0.2592070864366171 3.698614429921237 1.6257352683539485 0.45921702232778977
Ni 4.410463826460259 7.74585330431588 9.575121443890811 1.1978656499891887 0.7565753873431487 -0.7141524422922474
Ni 7.912661867421686 5.457933745104969 10.912946967579655 -0.65385364540219 1.0380780162731735 -0.5766884117740971
Ni 2.3103027871453783 2.112883647458922 3.6336075988910377 -0.8040950301906667 -0.7194573994449287 0.9510741992881039
Ni 8.407754671247856 1.1049869035241318 2.1667988405667686 -0.46588337860437185 -0.25135233059888973 -0.9752433403351398
Ni 2.250254310374823 8.057710768610326 9.408855476289611 -1.6715284154286632 0.4169529714522561 0.8619985873756703
Ni 0.34028462911899326 0.5330363306311727 9.271998557316323 0.7073297629434593 1.3394017936941836 0.08746918665726226
Ni 7.871580965923665 4.593699165991985 2.5508075465407014 0.9115393744182753 0.11659927125399919 -0.6141725247624842
Ni 8.302576767344563 4.42981298690756 8.425533748305325 0.1596426234977186 2.3251727730335245 -1.2868700423440544
Ni 1.8763380669256875 4.283135368509552 8.032984979981011 -0.08370509162913971 0.9810069822917943 -1.6261394457709026
Ni 1.520337712779608 4.3422066149544865 4.036509424493648 -1.070880407515175 0.9842404016274274 0.9408406944855539
Ni 4.232626521108156 0.411086362253575 3.6668445983087383 -0.41960943523849675 0.7711201179265429 -1.4123974693256192
Ni 1.8759937095728494 7.863018566880126 5.33398743477646 -0.2009173138767895 2.0509893034727322 0.022054665807194274
P 6.593810433874214 8.049036686101001 5.5770655673625855 0.3423660400743007 1.1527407326260921 -2.340684238405562
Ni 9.160780439305142 7.3809648076843875 11.860946938118246 -0.4902155275918332 1.7051682149702956 0.6224509627211925
P 3.0076729614196647 0.49031833566384925 13.109113906170212 -0.32063996125111877 -0.5757931536533374 -0.3126595141488035
Ni 5.8160095503235585 4.082831072623643 12.137711596071858 0.5573310902934079 0.11009412314562976 0.08276381076179296
P 3.9639719441616528 4.488214132557783 5.726972699312885 0.9387532158289058 -0.3085411211050557 -0.2308590957415443
P 7.216771499069055 0.5936739376837452 9.001022825672582 0.11578217466934253 0.6015566357706865 1.7166628458734565
P 7.698024860093332 1.306752391420732 -0.15683336822008345 1.4221193245990735 0.1956241837986502 0.24154382914890013
Ni 4.960048854634167 0.7672737862048447 8.162772335570091 -0.8371483611012099 -0.19935614003725668 0.8229743835936729
Ni 8.222518336287477 0.8793863026378552 11.161895927683894 -0.1794977105504328 -0.3152807538217344 -0.07803735182040109
Ni 8.322977613761342 0.9838754918354718 7.1627511373642605 -1.9543857586143698 -1.7539988633197532 -0.09328219379461354
Ni 3.171996567411748 6.261645192717811 8.008792479900823 0.5004600881379768 0.14415866892950657 1.4908120019797808
Ni 7.550956349565075 5.16576049165518 0.1695308475843222 1.1044549010365108 1.26187532007193 -0.14874140320418255
Ni 2.5799252874620215 6.589054579622858 3.680616100335613 -0.6845058230704082 -1.348946499959825 0.17487075330138271
Ni 2.258695718997094 2.8982138579946026 6.3158647232699225 -1.515933479637757 0.6550615496673622 -2.389704119947691
Ni 4.538052879164466 7.256689031131812 2.8805204049275686 1.1363898020718943 0.35559719405259405 -1.0342108200082833
Ni 6.1217709587772235 1.0795882220134614 6.075060279908077 -0.33759124439347665 -0.0008263525560372866 -1.0556602481313109
Ni 8.505794140296372 7.702948239543367 0.8920056035760442 -2.0933220028026724 0.1318741951351987 -1.4705560799442223
Ni 1.4054061195310674 9.229354087297308 11.457431784149367 0.3403520949680655 0.17031604405116474 0.6293129799483484
Ni 0.6492764818204978 3.6618123274795633 9.757774168009357 -1.4278845092176249 -1.4053817001294182 3.113748881652986
Ni 2.320465982531839 8.363183661444046 2.1535038546605785 1.9842154403812924 1.48044505692316 0.3517066007489362
Ni 3.31816230325824 0.9251979296074311 5.885378943009444 0.6135402904951239 -1.8013752957211877 -0.5308631259098663
Ni 4.539756052017692 2.5570208700205557 4.733734410262413 -0.18662840805794312 0.18280466343647872 0.8516383271872687
Ni 3.797852095761523 5.31023236160393 12.824489524311959 2.1550637027868436 0.09683828657698806 0.662693098070691
Ni 6.0280219962059585 5.277043758354735 4.264890012982429 -1.03808290136918 2.0369675352723435 -0.3596276553682258
Ni 8.509153951225413 3.2885289570032112 12.168592074361491 0.5251005123944763 -0.0843650938106418 1.0503825446721395
Ni 6.578481878195184 6.33054458415185 8.63081261189642 0.8179208803301656 0.4347833147654576 0.5258304485819653
Ni 6.267275900784487 9.110839316188157 2.619529175125032 -0.07021759866566617 0.5920152719391546 -0.7542451965480752
Ni 1.5591291032290306 2.208717368058179 12.867860867554128 0.5107203324134043 -0.3722317172854815 -1.2279987219291433
Ni 4.157845133809426 2.8528238361083664 7.40141591166077 1.5901851391634807 0.9025788227908779 0.7704737425917956
Ni 6.208139505651178 3.3453013854440643 3.3553166002383596 0.9097599139203492 -1.565176532934285 -0.03482327832677228
Ni 2.542539247290397 4.657256364979294 10.085961616392707 3.962921006687949 -0.4757731269142581 1.581688157436063
Ni 6.54900675018335 7.970029941013394 10.442590190033828 1.898791823399149 -0.03692798337460092 -1.0197095410683146
P 3.559156608511922 8.267033504358396 7.319604050190856 -0.19023000936627238 1.0945448410116505 -0.0067152072366465
Ni 6.805338918071546 3.205194477616424 0.8290356734796557 -1.5372448395210234 -2.1674523062591833 0.16368722588073747
P 8.766891469391405 5.941197408513381 3.9116668543522106 1.5813641984377411 -0.5001726388045451 1.0419786368791604
Ni 2.81874176513289 1.6958389723057021 1.3799981310649148 -0.8423075367046462 -2.328396165066829 0.829286956075262
P 7.465285824352279 3.0063420667857232 6.099634365163032 2.6415375039480575 -0.21782951625109584 -4.927362114201263
P 5.945255241103579 7.607654322362071 0.7565084307986913 0.027841961912932697 -0.16413228383795606 0.7258409343737693
P 5.244031987259701 2.128872996977182 2.0548566414190805 -1.492125835695198 -1.7012074305503349 -0.5318311462500905
Ni 8.77967922622382 2.6126764638035564 3.8817403389994953 0.07076884318344585 0.2936166385847395 1.3930514606988396
