# total energy = -340894.20264818025 ev
CRYSTAL
PRIMVEC
9.01480339417039 0.00000000000000 0.00000000000000

0.00000000000000 9.01480339417039 0.00000000000000

0.00000000000000 0.00000000000000 13.19407599766601

PRIMCOORD
 96 1
Ni 6.258472960233433 2.092804568226894 11.21248407998097 0.6430781520532409 -0.04616518570215275 1.0772888821446802
Ni 4.539818779682238 0.45627253943479074 6.115229542006531 0.5996347361576254 -0.6846852860710659 -0.27732510051356757
Ni 2.754644367089337 1.500568064064819 4.778828254153273 0.07816976363320731 -0.7752876190406712 0.05099963097631862
Ni 3.2639897567882747 4.353527873713697 4.750777792841309 0.3845868964167248 0.5011229185329563 -0.03700588780038788
Ni 4.978361905869106 4.670326084095815 2.508972051650417 -0.31810511064440694 -1.0110179268315878 0.05694993502248256
Ni 7.34864211337554 6.023637339595615 2.5913168690459676 0.14885761706707268 -0.05068544217000948 -0.7675601684894264
Ni 5.097961298537125 4.44272033554059 11.373437980369294 -0.05302077517140546 0.11971082029978738 0.28695928116922187
Ni 5.563819278103364 7.754136971414299 12.412854693564036 -0.610507160095755 0.4823811191490789 0.19989067238448802
Ni 1.9327467392662627 6.36599251675348 0.27448542909276225 1.0459054827373924 -0.06523685762162314 -0.10544094064433453
Ni 2.844729294422685 1.5373214162851792 0.4002130849051043 -0.4759201940150835 -0.6518206741325612 0.6162841717888483
Ni 0.6141028105505237 0.17128847065700736 4.89252114783312 -0.6728399566967057 -0.33452700364585614 -0.31221779862569454
Ni 8.676910245876037 2.2599390176174943 1.300236602275034 -0.697495807572173 0.38169337691901356 0.33215876052399573
Ni 6.77984409726177 0.8426091379349895 4.855591105472088 -0.49635146528624197 -1.093192183638498 -0.5807849504409739
Ni 0.9562903123708127 7.216521159207868 2.2701194347532443 -0.8747157778320226 0.29585426966600664 0.47943232093340016
Ni 7.55810106329952 3.9576337809716473 3.8768286919448087 0.3101434325951691 -0.8434622191343797 -0.5904443279076089
Ni 7.6012639405207825 3.710186450803223 12.644806478691603 0.2998618481635029 0.41182593463833594 0.16765778049271127
Ni 7.7001383008722435 8.753328731716604 6.955059416147177 0.22752334650009204 1.2697534372684263 0.20407462855884853
Ni 7.020746680382859 0.5858152599171492 0.5769068314981745 -1.468430291850471 -0.03701488666145238 -0.8567280830053503
Ni 1.6634114671819604 6.769116481578123 8.982223597114485 1.4375176614320146 -0.8161450193766654 0.9470617356946012
Ni 0.31527831458021666 4.860448281379944 1.346679966342749 -1.7517154666022154 -0.1484002178146799 -0.1796910575081615
Ni 6.24396814205277 2.1618399303322455 6.948593999367083 0.29787258564761604 -0.6492714253481463 0.16875692709416099
Ni 3.3147701426252354 4.067803689601773 0.4729084570672295 -0.6612633076026998 0.49095497686101897 0.2896021181087077
Ni 5.96324717365885 5.662982112153882 4.538669392287561 -0.6011105493722035 0.5204748406970069 1.6528498651825534
Ni 5.744403813712452 3.270588592654182 9.09443896456698 -1.0860753700880585 -1.5621099781938192 -0.8317541866688319
P 0.3296767580843519 5.354585698256771 12.33755584626793 -0.2617203040967751 0.5844611137409804 0.08805462684708706
P 4.0834894469879455 5.8547269739952 12.687990089959985 -0.10258135970835236 1.1991370605024447 -0.4570431546049226
P 2.604295481062561 8.355036701351152 1.2251198540014572 -1.3238990700728943 0.9898189241564694 0.542391181154124
P 6.147482704521616 7.753758349684288 5.760586286749187 0.3396386138408086 -0.23915810252554293 -0.24585454070911206
P 4.830311794631682 0.9406045549846399 12.638209445786314 0.04537534281100573 -0.25877073455014793 0.023554904501804592
P 3.934051056073815 6.298760115267229 8.123724065763055 -0.944747742849444 0.034425271557405226 1.658811996303259
P 4.712073637231082 0.9057623410205261 3.8109764568124795 -0.2992517253833298 0.05025298261828119 -0.09824725110937273
P 0.3381371507894801 5.5788379400604695 3.6434120013142235 -0.9302595765355979 -0.3620740600261893 0.14742885504034609
Ni 1.1696707016413364 0.7309031068573906 2.5180896235012074 1.0473355303156995 1.2473161913108326 -0.21219108701839587
Ni 1.6200863235049798 6.602549964782538 5.1165705565671695 0.4610525328746318 -0.6288542951443751 -1.8677953750176348
Ni 5.895681224458065 5.5832191343648825 9.360906627786603 -0.17624500794109002 1.5706316425115854 -1.0120245137192312
Ni 8.934805732832146 2.3857766540276018 9.974998620573412 -1.346340944016178 0.33867882103070057 0.7953684489509464
Ni 2.222680836423786 5.229983089870747 7.05301156214197 0.11130922649965345 -0.6399537474916462 -0.07133037211387071
Ni 0.2449637519156135 0.09455536818840704 9.048589676023258 1.31982027201783 -0.22763133283286605 0.38331368613125594
Ni 1.3382655491334077 1.0229818256713337 11.366432576883778 -0.05993807111652903 0.11769481831102312 0.1057867540195275
Ni 4.146115284092396 6.773082994940143 1.647662606174119 0.12531453963980999 0.20232036487190314 -1.143222508723012
Ni 5.635324696256882 7.891198037678306 8.056077884814721 -0.5000281428068808 0.22354147903420857 0.044792987944974466
Ni 5.106363095022133 2.800845232953783 4.780200307184408 0.13831043767884568 0.7459266493800508 0.45043207704630817
Ni 0.5752598269726263 7.416018751711319 7.0195251745634195 0.36024420590630213 1.3989344018421779 -0.6409238247143995
Ni 4.94240185632115 4.7404973113912 7.118335529812902 0.7764142764459467 -0.8266204649866925 -0.7235631940831861
Ni 8.213585425979634 7.121964889539152 9.439212813395368 -0.15591349547258956 -0.6400036268929752 -1.2481098908567212
Ni 4.679953893801811 0.35090301345302 10.487588437906421 -0.0015917699671520972 -0.12099894298359162 -0.3911064427027974
Ni 8.113286726739084 7.289351753416426 4.687577712779677 -0.2502223307595045 -0.15806550881858583 0.24495619726455878
Ni 7.302486321526572 6.317492876099682 7.185202831773785 -1.0759765910911596 -0.7990199296606045 -1.008608546059147
Ni 2.319977606233535 5.23174097647437 2.5468657764623583 0.3434029659792473 -0.6682127423373395 0.7855627757144342
Ni 2.534448786678614 5.3123243013450585 11.258953586977661 -0.6488212251846052 -0.055191557570479145 0.4804322229528241
Ni 0.9487088629674959 3.1327432385208667 3.9385900094324007 0.6695219480670662 0.6589963659453941 -1.177083937357147
Ni 3.458736548060396 2.599012806448597 2.8181617682199316 0.004168786665708949 0.41646009097623754 -1.2215077148881608
Ni 1.3173151467394622 3.2316987321001878 8.274268573017004 -0.17312908801992763 0.88663566919806 -0.994454623156268
Ni 3.6632012970694685 2.6608453408806425 7.071364799764101 0.146830816445031 0.38005352732274544 -0.08234137851239368
Ni 3.9632500033001445 6.7538904791498195 5.959974800135183 0.966228024210407 0.7910459103161924 -0.33450232105550776
Ni 0.6932446684062421 7.354510750190712 11.458936175887649 0.9603869920485977 -0.3350178272393456 -0.86735676636379
P 0.13358856411161954 5.563900411331223 7.902288048446391 1.0023939326080027 -0.8329345801301784 1.110361496328933
P 8.67383619802047 1.6881751312853033 7.770993751722577 -2.0333744186044465 0.23230277016660641 1.6659933445430468
P 1.9932540976432696 3.286012920750585 10.529861554062158 -0.6908237948686361 -0.4418145105806262 -1.533786448658778
P 3.883027270553276 6.256913399297911 3.7716322501824715 -0.0034486206702327702 -0.6826764831711534 0.17079555479074457
P 7.103042817841694 4.040128244098583 10.46664885327619 0.9944042295343067 0.007013198093039534 -0.4478972264395964
P 6.2540557067166365 7.700201404493912 10.163607232417807 -0.4990122999478567 -0.19831252926409074 0.46599959246726197
P 2.4998048983826013 8.42463999605152 5.802067903193137 -0.6200755205104805 1.2071069660817986 0.746682810819785
P 6.7947365519755385 3.895458684021973 1.5925253660011025 0.87566631467075 0.6289617672565168 0.2673592475501073
Ni 5.232561323556061 2.858801402054763 0.4062548059397096 0.8534057035003366 -0.5339625907707966 0.05034862765588103
Ni 1.4998198354078924 1.0688130846088642 6.996501367457507 1.1506347420266827 0.12003709329095455 -0.2882594880378842
Ni 6.999219330590802 0.8059242982181551 9.311098939203648 -1.1261745521017896 0.019103810708986455 -1.1213704458449267
Ni 2.8775521924934067 1.6348976449908887 9.227817483766474 -0.5281925210562387 -0.10660950703113897 0.7666057749959572
Ni 6.240452368845525 2.0256352703623115 2.678542300837422 0.8816536426024364 0.17834817032702185 -0.7169014657922944
Ni 4.012299546942769 7.055246331829344 10.371163157408327 0.03708816310154903 -0.6621485384211305 -0.8363353782816112
Ni 8.233129519090683 7.042445311433732 0.21480202371868415 -0.7710270439921044 -0.5017736647430777 0.8342448143011697
Ni 7.772058399968156 3.8627890376038745 7.802408537549781 0.4860338854103178 -0.24258126927447898 0.9323719948929102
Ni 2.944387942643455 8.317030291500515 12.28456863663319 0.6351375570499255 0.04792870536047875 -0.5359359124470835
Ni 0.3386762360145911 4.851343330253488 10.14233860747459 -0.5784753284711909 -0.1671916394895701 -0.3350831332596423
Ni 8.464746855023407 2.305526876871446 5.771774558871014 0.42320538011987113 0.46151918809840514 -0.5442644869174369
Ni 3.6938516275941744 2.5581396892135926 11.540027034172615 0.10148247021721876 -0.20875789296713082 -0.22132184567507046
Ni 1.1874929673611432 3.2440219679317384 12.565404093026425 -0.7339674201356456 0.22969824266422376 0.1580680799217471
Ni 3.2573999357254633 8.59654327627964 7.977177623681961 -0.3410249526653739 -1.1399160700575983 0.3568837740745015
Ni 5.596506954127652 7.822865830214403 3.453074350236112 0.08227093028577444 0.3643651700532112 1.1256513326084676
Ni 2.823652684785402 8.316426299693116 3.5437704812193345 1.163107934793029 -0.36037661771910834 -0.0009199407111080932
Ni 3.539653420645619 4.2660662540811405 9.251197375594659 -0.22025098120839487 0.33893490290556466 -0.425004638112139
Ni 7.356079325929328 6.014316033194866 11.327100990978106 -0.010570319316678569 -0.33276914041448497 0.6860101755300766
Ni 0.5049380524655468 -0.10299863276765385 0.2558319985275503 0.9424553472708415 1.032012526805384 0.07766094231758883
Ni 4.669812240319372 0.20757034867547275 1.6677439815496584 -0.21138864572175853 0.548511692229565 -0.6451800288875921
Ni 6.134916069006487 5.591945463761329 0.2274867531543645 -0.2563760090657262 -0.07095704793485198 1.215137292585443
Ni 7.7378382074176315 -0.3903085207440767 11.407043363348706 0.3332669059865099 1.2439385330878512 0.5812510914441151
Ni 0.0025935588505758187 4.733285468914799 5.787819105420389 0.15872602522072018 0.38741459567350695 -0.12105962101819796
Ni 8.089938386721736 8.648198098016863 2.4885345915526056 -0.9012189663288737 -0.0166967439293906 0.9488800198502625
P 8.39511651591375 1.6681622684132897 3.52293727126563 -0.9533912774570548 -0.9853032956743031 0.33824713280992064
P 1.5875338695271233 3.169794079243378 1.6709108818771083 2.1447345529466935 -0.9340398695136365 0.03198143800260299
P 4.825470845369398 1.251579202567064 8.349857696972785 0.6974706107611922 -0.4447756500914791 0.1614526801232639
P 8.22696339377336 1.6422537243168183 12.309069969966455 1.488770803180036 -0.6932344611926577 -0.7269531936013416
P 6.333322870335383 7.642948390034381 1.405419521832728 0.8131694816881092 -0.5860207449186166 -0.5911470104015883
P 1.9113275671113508 3.1258649437589985 5.892051864731816 -1.0954017896953072 0.7226802772576005 1.4661759485986554
P 6.673388287506991 4.073987844525287 5.917845920828975 0.39779259647372134 0.08390075257971356 -0.31781431887686556
P 2.1958437676084777 8.545681757214819 9.99121354690129 0.6410351534812831 0.7075647617724008 1.306437680063337
