# total energy = -340866.86022476637 ev
CRYSTAL
PRIMVEC
9.32885870022621 0.00000000000000 0.00000000000000

0.00000000000000 9.32885870022621 0.00000000000000

0.00000000000000 0.00000000000000 13.65372768326921

PRIMCOORD
 96 1
Ni 3.984933921187822 0.8773586331019333 5.555852148380665 0.8011380044448719 -2.3333789629934008 -0.5502885816243297
Ni 6.912535002311621 8.126406090622284 8.339833584724566 1.3469559518923577 -2.4718493232888785 1.2007252309251706
Ni 1.8464983092044478 3.1653843594050053 8.488099001115122 2.1718098118969307 -2.89221286308458 0.3303775002538568
Ni 3.5908736027023416 2.798909475965134 11.689680264991035 -0.5243350949833616 -0.09820791323100506 -0.33350627569082564
Ni 2.536348749093757 0.10864668656465165 7.44315208668859 -1.6084466564768298 2.7450285199548725 1.9409807980623732
Ni 8.643010296412168 0.8743864587341514 0.6431399117131615 -0.06384409103915456 0.24935535477351892 0.28186849690987587
Ni 4.290015585812965 6.903392720828802 11.129467376528103 -1.3308402772774177 -1.4223432676844212 1.8279669301667871
Ni 4.003619625075666 4.672293555815996 9.566498269795984 -0.15871676924933956 -0.10389210809997591 0.8689701335974969
Ni 5.62438754138238 8.610527210572192 10.455724143994136 1.2514536105179739 1.5609583810878793 -0.2993666536946393
Ni 0.5659865190850912 5.31008896440517 12.555367563028522 0.5951309347500009 0.3002431427623216 -0.5381851134925764
Ni 8.697705394711932 4.7089839569098 5.035453895775412 -0.05741041959866887 -0.3307230565187337 -0.13232645218126887
Ni 5.766083575507423 1.5122732901381541 11.423855370475943 -0.09589726281995743 0.6140475691488457 -0.6453854600301787
Ni 8.357976349038635 4.877817640864967 10.557280897980274 1.1328167400086553 -0.045205650002360855 -0.017042043083951297
Ni 8.773073243793256 2.284245672775686 3.513022411446807 -3.0244236156235917 1.8182939258533974 0.7949755843879018
Ni 4.224265790005913 7.100735396836517 4.431849687046117 -0.5848087268883864 0.6363470039769945 0.49824791097800636
Ni 8.102020454095662 0.12933156486246317 7.030249339489845 1.4919628277547725 0.766071499759042 0.041989199947592204
Ni 6.8027716513658545 6.714791185381702 11.541127519753875 0.41357994121496516 -0.7620628928202812 -1.16165808972038
Ni 6.040249402546788 1.8200789814908311 6.751522633453593 0.42390240618689573 0.15910320605448083 -0.24781115021485067
Ni 0.6614589914558271 0.47616267063052586 8.979510624104645 -0.6703639843523874 -0.16448478208136832 0.5694803240614321
Ni 4.271339210783777 2.9732471865273054 5.163798467392077 -0.13205622923901772 3.6111562990075674 0.8527590710552733
Ni 0.9070327996006068 3.162203218603331 10.938451532460846 1.2165740250319692 0.7652549173950176 -0.5798485546696336
Ni 7.064240901774487 3.812975069582915 7.752381361872162 -0.22451901245612946 0.036284950473963316 -0.9069810656236316
Ni 2.3125214433618346 7.967181131082734 9.69665917019296 -0.8679188095148472 0.6592994990081097 -0.013154020883454767
Ni 6.223710736874466 8.457151445409913 3.4025771209332905 -1.7092817229180368 -1.3158551167224952 -0.27732664317546435
P 3.676848364075467 1.1170375354620257 0.9632298441439777 -2.4195327732733496 0.5071521554461718 0.35301554936834684
P 8.072625220470801 8.996219542843294 10.06307061739397 0.03883805591312021 -0.5795176536927762 0.21187021334386738
P 5.459304058606899 4.1777707584647175 3.1392514276521264 -0.07565008253514713 -0.05092712586717035 -0.561704022550123
P 0.7978944821847871 4.501323563228619 3.2232764575661608 -0.7450717575789233 -0.25585973155093994 0.982711880798043
P 1.2822143068240655 4.877528446246632 9.468764482087048 -0.48060165865115295 1.7347744678725026 1.9686358407754807
P 7.193072439812991 1.8384288464670613 13.059135259307833 -1.4935952211518728 0.032451949881118304 -0.3824369399532575
P 5.545791907206102 8.614230767458599 5.376387297101191 -0.28285194386906765 0.5609571170817693 1.9660855635498011
P 3.447862199506811 5.275702791399382 5.932066360257336 1.8526397503231191 0.5623077175723928 0.20487578430390524
Ni 4.954650120755273 2.0384768914849976 3.3165855676145846 0.11197488510811036 -1.6369000267215164 -3.125644090428675
Ni 9.30072281823177 7.270324718342814 11.177924267044641 -1.349520113075108 -0.8958795563938313 -1.2969749919885405
Ni 1.6366736203150885 6.594364948992197 0.5909318871310697 1.6588302511357043 -0.2674230109085072 0.6344708700002041
Ni 7.7315714768683605 0.463291644342928 4.726005392413424 -0.07953579074279851 0.011754569432766853 0.2982150565886993
Ni 3.7063835305801667 4.1469202228895305 1.7275516297977749 -0.11776372387574557 0.07003864988564067 -0.4877164153190633
Ni 0.22082154747297908 6.85041413252173 8.787101981440056 -0.5288190988966441 0.050970320400279955 -0.43862711399158005
Ni 8.128281191212128 7.190395057378738 5.668699619998086 -0.153073197810317 -0.05910529080258853 0.2618426886072523
Ni 3.423821730750458 0.216072225531241 11.853019251197853 0.2694793792169037 -1.0711372607209875 0.7035731241145045
Ni 7.080295867521356 1.5032616126765181 9.073216210645946 0.44140082008197534 -2.4939225010388344 -0.42575668578681514
Ni 2.473071100830529 5.944656587899391 7.798777507511605 2.2436541475327423 0.20759652566917797 2.721778034067364
Ni 0.3230695698855228 9.263024900403124 12.087181066548824 1.2987925048132536 0.8099882557466502 0.29361509592284274
Ni 5.495714593941026 4.534002555100369 12.175752982171762 -0.20531492872385285 0.15944490566461572 -1.345174948732535
Ni 8.408398830073981 1.7426028103532654 11.09658967996698 -0.7539677745169724 -0.6771028457381177 -0.253576334833402
Ni 8.311910444995613 8.269436151535126 2.3281239594638907 1.1328689334028295 0.09305747937831714 -1.3139530146037757
Ni 5.107139644345238 9.161247052466841 7.70833515572815 -0.8158812241923175 0.561654143148794 -0.032510056812563366
Ni 6.197104831987731 4.978317435165388 0.6999293387811846 -0.1591217179972421 -0.4089097894328054 0.37848129773961914
Ni 2.150022054434049 8.75604807674617 4.729541962729891 -1.7724766104089666 -0.5148772920045713 0.05398313908467477
Ni 5.9341896084874275 5.467019024715361 5.017376433471935 0.5466155036481167 -0.48436961033401743 -0.5151819677291837
Ni 3.567784677528895 7.909472811437101 6.532161985246134 0.6870974950569844 -2.868830479604898 -0.8844844271830123
Ni 2.747442162760324 5.083565618521682 11.678920359417273 -0.34335308657791835 -0.1661338876490171 -0.32555411072328444
Ni 6.9705511742929005 2.699137332639876 1.7559645346061654 -1.1818106534088548 -1.6207732963629828 -1.9451171888282501
Ni 5.142738568976297 6.26662348669178 7.236407786927421 -0.6565705301127209 -0.09962279130066068 0.9480654943687672
Ni 1.4301326896726194 1.869083476010474 13.058069903649328 1.134089693183808 -0.20262761169967683 -0.8096082466994122
Ni 0.6858138427488847 1.5887512733995348 6.053735200619812 0.1731936227092759 -0.4656064707939014 1.940467091650748
P 1.9758522633276852 1.2570730327463122 10.658386135207465 -0.7548961998685129 0.3965528105293493 0.23940698531155544
P 1.8334658936621022 3.9210965414052374 -0.0020392885021880643 1.0402292582882213 0.2332391659379467 0.2940699240720742
P 5.589618885171698 2.810038804341668 9.228787056249965 -2.3218902456275106 2.1770759453918767 0.4318270603506111
P 0.8790359618882709 1.1723296807157706 4.0622841527335325 4.0297516911592535 -3.257845844106621 -1.0794653209707086
P 2.5315817023205724 7.392355518421141 2.794412966092972 0.4127767285873794 -0.3622563512403245 0.4616852813626242
P 4.245386326002957 7.450166455511988 9.173557414349215 1.5290566472832763 -0.23842405257299587 -3.502336414588672
P 1.9877558869726621 7.497547728625499 11.816796225922712 0.9273241480563578 -0.6488507928709599 1.1362813015184883
P 2.8021372610600888 2.169351449569153 6.7504983247731705 -0.55834307649769 0.0433462281961189 0.002963967724330379
Ni 6.342345832402031 5.257567490172239 9.512060647995122 -0.7576511369058306 0.3782879507818904 -0.260502372529274
Ni 8.931635854368237 2.7887503488888172 8.736978956767567 0.23472166402074415 0.23995745849838673 0.19840920274295507
Ni 2.6116886115991127 5.312057353581573 3.947361010065166 0.32543018355091047 0.6521885989949413 -1.7443417998459638
Ni 0.587304826885641 4.733668116913412 7.468848427856371 -3.0101341955841128 0.3323680483213244 -1.5947606743493052
Ni 0.21680080939226978 3.1141689253839053 1.7315518443894413 1.200871269584732 1.2568143606092548 -3.0705294088427184
Ni 5.049384680406324 6.244262212493497 2.514211367503216 -0.2040463464240744 -0.9618982864868016 -0.26801693573876423
Ni 1.4742395333978946 6.462492203031856 5.926469045063774 -1.2964103777343223 0.15608370250186668 -1.86472676339464
Ni 8.846276797666402 3.217336773259925 12.958876149560735 -0.5458032921594665 0.4262253978931176 0.8227730662161443
Ni 3.595342125998536 0.1610692748958301 3.151567386849696 0.501664135748407 -0.8140534269549592 -1.4816668451454031
Ni 1.4463555748752959 1.1036319655734426 1.5876140855293759 1.651613164561975 -0.9100406783855618 1.5430272505307554
Ni 3.944810500108632 5.973781284623229 13.515483434153149 0.8210067183443409 -0.23852561114786663 0.13847678805338087
Ni 4.211270689898192 3.571497563273958 7.460533616136333 0.9837647475425897 0.6981396118037589 0.6741874718635357
Ni 6.648201792295616 2.8075946433738124 4.448684545376622 1.251248179375387 1.1972221028679186 1.3897550493357549
Ni 5.079554209299628 2.577003915116335 13.559475532916956 -0.2761521632513889 0.6681212110647977 0.21007764021981884
Ni 7.7187256384991345 4.498189066720223 2.592952531874527 0.9658423587362142 2.7687806280691474 1.3936654401337547
Ni 7.612264703517569 8.348554201796137 13.119867062043857 0.6267071668943852 0.9792869142768941 -1.3661268683938537
Ni 8.479708625639972 6.178689665000909 0.7123255261631951 -0.1637892986762405 0.49503197514387 1.4383910651759035
Ni 6.2980803980796045 7.486297125086437 1.0278993581186717 -0.28514459655798635 -0.7544629689858361 2.08867062007359
Ni 0.36590489017599365 6.807865208191997 3.592227220093318 1.2639895382014554 -1.0069026191116337 0.12524229164097786
Ni 5.636906869698649 0.5708608477328189 1.0319798008947791 1.7322478447959069 -1.3323310028903312 0.03755764653879983
Ni 3.8357001692687804 8.006800793794502 1.100041287876772 0.022846051360238075 0.8156341411785178 -0.1444178361281642
Ni 1.8157970353677557 3.824617485185526 5.611012756727361 -0.3523270079417545 -0.9277928601626602 -0.34188421534187574
Ni 2.6643593475705396 2.3248728522222963 3.4806494061389706 -1.3702200646266207 0.8488839043705833 -0.3133879076743957
Ni 3.871177818737313 1.1756973986905643 9.562634256540694 0.5937906186720225 0.3941146334015019 -0.480673906649985
P 5.474332849901616 7.7397062416163385 12.853823872236218 -2.0686905774072373 0.47107752121080165 -0.8853051233120948
P 0.2527169152176314 8.093633810163974 0.38384335248549706 -0.8096221306564831 1.7167757173022369 0.5074822850920808
P 7.501447191543681 6.532934414742845 3.4410530655738416 -0.5301198199859386 0.07221508871166916 0.7084114260434122
P 7.76547254922404 5.143830045439041 12.692874006731184 -1.7311772374395475 -0.769138825830456 -0.6646882741238488
P 0.8531474462321772 8.377538965640138 6.56037058804996 -1.6598198687424834 0.401168969145122 0.6765708844940478
P 7.2661827050995775 5.985358398215248 7.5186160230140695 1.1152635616162405 0.43194430265476574 -0.044509138155968506
P 8.157088706741664 2.617892302605312 6.069027065728626 -1.1358956360442953 0.47928268272941327 0.6412472694920891
P 7.20017170125016 0.7715003423895415 2.5538478221605656 0.8345623455415884 0.9688531205380798 0.664032642817721
