# total energy = -340861.53974750795 ev
CRYSTAL
PRIMVEC
9.34336880642186 0.00000000000000 0.00000000000000

0.00000000000000 9.34336880642186 0.00000000000000

0.00000000000000 0.00000000000000 13.67496469038740

PRIMCOORD
 96 1
Ni 1.7949265298886616 0.4202441684895722 9.64136983349666 1.1622144764444822 -0.5058002694039675 -0.45677935942057457
Ni 0.2374009834866822 6.841027691098608 3.7034403930023303 -1.2946784826448798 0.5204270181782069 -0.6519291746859674
Ni 8.386561023780565 9.210291094668374 2.254509083594755 -0.05092609742590584 -0.2791066178940225 -1.018683928017278
Ni 0.7310102173061943 6.545319415270834 10.092752646836027 0.3993216315237381 -0.4714958396951428 0.4687051643238831
Ni 4.791120629523638 1.397207354648974 9.584263164032873 -1.5219776289493079 -1.2067886635104312 -2.699860922279299
Ni 8.30846914822783 4.527581572112718 1.8906044939991098 -0.7796482100022122 0.2148760900497267 0.4127767285873794
Ni 6.197138780851989 2.8646488117781965 1.3636384996016098 1.5851077246405734 0.3516757475110008 -0.8902706948474862
Ni 1.7405107506090334 3.692489964891801 6.854302749340452 0.0003170170197865508 0.9429726532268922 -0.5994845837330062
Ni 0.9084688189301608 1.204192044147847 1.508088848299912 0.31807040075172965 -0.6911361839027322 -0.9194941104889777
Ni 8.558983549677933 7.426118782147647 7.375331967269154 -1.432635907859681 -1.4656272751840371 -0.4343626822882713
Ni 7.872563625131714 0.39113023163597976 8.421672468999473 -2.219100112342462 0.12999420450366644 -0.8948976520965363
Ni 1.3307012562780272 5.610861081978685 1.6619872114225889 0.2587005434338448 0.48686460884172933 -0.2737042159315286
Ni 2.766907831859894 7.256489923490083 8.762780173316209 0.13701511590618984 0.021598037885749898 -0.42901067394773856
Ni 8.41498355135073 3.6977876549418607 11.39667487409734 0.7563714988624587 0.5680081103912799 -0.23887193874369184
Ni 8.23115277227678 2.296114170056681 3.0559169123333603 -0.07143270201968989 -0.11534791534540136 0.3239625978664485
Ni 3.64072770232155 7.7731314954796185 12.952967095831582 1.2734715095499616 -0.600797903227791 -1.2627081003858704
Ni 7.1323072101649565 4.601992160399628 4.092902833326255 -0.2050300504935824 -0.28646665780351954 0.2842282553913041
Ni 3.5856672306019672 5.9138291552824676 0.4529627769856921 -1.0655245425199005 -1.0741395378824212 1.2052233759058404
Ni 9.195902306878088 1.592166085838659 9.78925106717976 4.424309582745761 0.5925693446704118 -0.3649408400510231
Ni 1.3342704231195137 4.225603895890605 10.077177251221476 -0.7718770506972256 -0.3819666851850583 0.5285740727653735
Ni 4.755382244265297 8.388018589296985 3.6283645568643377 -1.0959010979292287 1.08851791809128 -0.42711859913134825
Ni 3.7768232107327906 7.265272690063375 5.6338121328410615 3.6578696439037066 -1.5358258476863098 1.069362428208752
Ni 1.0224448362928797 2.1898987547320217 12.307126355864579 0.49511964976166994 -0.21008741041183174 -0.4783007784321182
Ni 6.16404456893433 8.318503926206251 1.5470217313150705 -0.9064064240670843 -0.15296983946323334 -0.0642392695950442
P 2.331273266455933 7.888802399923608 10.83926911882843 1.4372134999280344 -0.07766171364853722 1.1707628802351258
P 5.662511224124596 6.336140076927372 13.171821492458706 -0.002945455781569121 0.6546704848765306 -0.5615448712644393
P 4.698929610610161 4.914798800939236 10.006504944749434 0.7209751216410357 -0.32277551953688277 1.071360175365071
P 8.507763202491992 2.2045491568457676 0.7960064272960305 -1.2583611362710845 1.3922441343061958 0.17052430340722888
P 2.2673459378448033 4.227416509417433 13.145702105271857 1.0060567261715705 0.6937358263091085 -0.2900433194111844
P 9.028749440924697 8.272571925701675 9.2740194095263 0.4500361271594701 -0.5532000988441699 0.6493683559373268
P 6.904385074219342 6.3494076604742595 5.889601800256355 0.86823608364495 -0.7861176197766396 -0.9372295800955278
P 2.0313885048214972 1.622672184627805 7.59532158319272 0.5587336270678893 -1.5335262530188556 1.7749453836644336
Ni 1.9110178859239264 9.249411779394302 12.73013429281413 0.34993948154618437 0.9252983758755806 0.4565703287335621
Ni 6.261953729489142 0.20066566078858558 10.683866473345859 1.7703521078667963 -1.7014146614651342 0.9405465602839027
Ni 0.49635244686836144 9.346732307721329 7.092164360903797 0.5976493302964804 -0.4997026411466619 2.891834653809555
Ni 9.337884137567173 2.32366776433821 7.762703361679138 -0.7897924975250656 1.0099812580369574 -2.44765112877612
Ni 4.701517723738673 7.579097757790737 10.388282464321728 -1.3969340835826975 0.13927023048895368 0.8329487211975656
Ni 4.742815413370534 2.0952597732204565 2.9424968254079933 0.3113865609736508 -1.1648542280601746 1.4126818333352573
Ni 1.9802709346912006 5.447604400771105 4.242945188188508 1.5736012666628705 0.3412800060989735 -0.9933475061350183
Ni 3.568615582733608 0.7482244397898459 4.630507187319871 -1.0230465758613478 -0.17031501560990023 0.24803277930735348
Ni 0.8428568809433247 5.655531727709438 8.05511436269445 0.4151624552107366 -0.6038112361328182 -1.1739775305176814
Ni 5.250664875418082 2.9151964364180984 11.055607346265994 -1.324700225817951 1.7068468882242993 0.5589274882462503
Ni 5.780611404429283 5.160342530243603 7.265070873299564 -0.4019942932598948 2.8032429235120753 0.40296308493106725
Ni 1.9096444107257629 8.31513097010736 2.4680573811399946 0.12178055834462254 -1.7490988549149749 -0.9261638091996693
Ni 4.659575341666858 4.392373683727501 12.692979452861627 -2.1108700389887645 1.0114061634089422 -0.6972006449292574
Ni 3.5874424706540156 9.234322238951892 1.1105126266012575 0.7983383302125476 1.0794905177816894 -0.009384526538693514
Ni 3.928036289692527 2.1069763575639757 6.67701980304795 0.6707740753066126 0.8659755697455472 -1.2820294264223016
Ni 8.350411530299645 6.166165513628092 0.11552327921860937 0.0017858882558291825 2.0214493850320863 0.5737925782835408
Ni 6.593690035004802 7.14981668309937 9.376717980874165 2.1866777301476987 0.7854414196452215 -1.4424161271748963
Ni 5.898917138845262 0.9446799786444685 5.141458647774156 -1.112269511984923 2.215554561083049 2.2706119070685085
Ni 8.33050081161062 1.0775333381185475 5.5338614462263935 -0.04064451299423968 0.2053954042528011 -0.5209250408605479
Ni 3.5650837893669016 4.009230163652 2.6134775715088363 -0.5923029783829025 0.9549660781433423 -0.8330073423496429
Ni 5.2913645894534636 3.226265210380438 8.193108443624514 -1.9641767765628626 -0.39973429358112444 3.8739896336628634
Ni 1.4927152694491732 1.3584884347769308 5.638051219217979 0.28728941081513104 1.0113886799074452 -0.5331197831545269
Ni 5.446623347058131 6.399899224901992 4.185332108141454 0.7405995807401825 -1.9507538182887372 -0.17907604963198193
Ni 0.8537120066931654 0.37846996705426683 3.7518773506540337 -0.9626729598692969 0.32477172403130516 0.5687089931130463
P 4.914845517782711 7.4617076735068695 8.054485553981278 -0.824002053527239 -0.5333570959763136 0.06397084642500596
P 2.1513106420217083 5.937776209247731 6.3206917511270735 -0.5812186955442828 0.25667399992211926 0.6735112717321174
P 5.255056258704728 3.3714424731632104 4.905947827774471 0.6995017822586082 -0.55086502295309 -0.7752644791122197
P 3.672485812515825 6.905637085624471 2.4565024370748985 -0.20998816582980606 -0.9702934525290321 -0.12387369342822535
P 8.670842359694365 3.8476646321782133 9.129870851636847 1.0712133653745615 0.018239662936478267 0.3424107772693071
P 0.33526062418741087 2.9615115150391698 4.709493223256718 -0.8715371229937249 -0.23761904017319727 -0.40120085082432194
P 0.57899080562808 8.188500294184143 0.44458551261376306 -0.4612093701674702 -0.2243122957619621 0.706987292002376
P 9.244413077142482 8.191247244580472 5.458334325380433 -0.39077117085056573 0.048417729181755326 -1.6316578044859706
Ni 3.7122979065251815 4.954115696407759 8.155434112372571 -2.12145321382125 2.2022570726431945 0.4560409385926533
Ni 7.153339133097381 7.368601004461283 11.724750447758304 -0.735611640607288 -0.7010351881839991 0.3311614296077329
Ni 2.0392275911565947 8.278271380605618 5.588807928847897 -2.5070078734678827 1.3182385293530072 -0.9172515943117041
Ni 7.202765553493885 2.2322148715516366 10.035386231722521 -2.8745779236116364 1.0277262407252041 -1.8933750232589521
Ni 6.925566491050888 2.10221123952953 12.381545353183313 -0.5491544680198865 -0.5392924876241422 2.924489463730099
Ni 6.233204184014655 8.353093077115107 6.472224373296179 -0.3846311193910989 0.014681770381890844 0.5905911378981182
Ni 7.661300715569269 8.977809394799605 13.48310516390103 0.9388210929523637 0.6364375068082716 -0.8624747556811404
Ni 4.153772077363513 0.323482373610505 11.665906846054119 0.2950289455512338 0.11338744918492086 0.8205709163585029
Ni 7.409552989451428 8.183903356786209 4.147985729130705 0.4233881855546386 -1.7506739127115787 1.4297632142975762
Ni 1.3366436387680414 6.3886871824680025 12.692514153100616 0.1155093806239301 0.0773009878750088 0.9238073931523509
Ni 3.1634777727500976 5.7308019059162865 11.23425722739857 -0.5425480184469624 0.05780996902993269 0.05844888816551223
Ni 5.680637359392879 5.711778807253284 1.6248594672393026 0.24870769388719102 -0.3338258638137735 0.38771927139811935
Ni 6.783715467523532 4.446144770567176 13.16082715051531 2.0082591115940573 -0.2512991087634511 0.46779036581909755
Ni 9.301650553767997 4.978595322388635 5.367437363031211 -0.3225970849774896 -0.014056478093066113 0.648185134262503
Ni 3.6672815561527146 9.24637518456843 7.344084939342495 0.29115969240381473 -0.6528262325789402 0.06908605616438424
Ni 4.141233276574835 2.458427171026067 0.0410968072049185 -0.052586258737148145 -1.5773530203958188 0.23318594410250806
Ni 2.5368086910083476 3.167691632031539 4.65181287095506 0.8410492388175129 -0.15426721811841818 -1.0723634198186047
Ni 6.826498752777896 3.0250183920590246 6.8747058635597025 2.644578604767226 -1.2833993101866348 -4.116919030305381
Ni 0.18225548711197503 8.289156405135284 11.528172510773777 -1.6748726493105477 1.21460353156916 0.1241500870180636
Ni 4.017583135265323 4.754625431401003 5.941840574630051 -0.929667965698186 -0.4898031226447629 -2.1485989209981056
Ni 7.933239461436986 4.8762947785471775 7.387242893681528 2.34682557541661 1.1047456928040522 0.15937805698242227
Ni 2.9205408433116333 3.036604169240813 8.862963509811383 0.1911692333510901 -1.6820969349731287 1.9660146011025497
Ni 6.83914033062222 4.850095972726422 9.652541699445258 -0.49101565489562526 -0.3970035249135227 0.5348647908700918
Ni 0.15797861223177956 4.087443502997771 13.56163991512991 0.06570402706602878 -0.3167372837626029 0.15224941635744102
P 6.059772574298229 1.1326218399442152 7.418326412656024 -1.2770787672852457 -0.9333574987346313 0.547556013184515
P 2.959698901512341 1.9264531310080517 11.016660448197792 -0.67323616369386 1.0102841339893567 -0.5395997344519159
P 8.751073866678254 5.8171626627640896 11.661653744624159 -0.5311217788878917 -0.24839016264677222 0.32310127830741775
P 5.559565987843184 0.4682354474545246 13.483583544378213 -0.7623894229217645 0.17837825223400894 -0.05326374442014698
P 7.517356777454236 6.723609576708654 2.3511503490176566 1.1918173869125797 -0.6944351663689783 0.7275630592711986
P 8.489412826375029 1.047513094501541 11.494163583060878 -0.47176092043107143 -2.0065791527884733 3.3931717452358465
P 2.86589147981463 1.9183524303494945 1.7864567661666522 0.9455054469510749 0.797005470333737 0.5844554573140257
P 6.372495124519583 0.40865745697091366 3.3203501301283906 0.9831705656020164 1.8973003264552872 -4.334009611507923
