# total energy = -340883.2863209895 ev
CRYSTAL
PRIMVEC
9.11505736822091 0.00000000000000 0.00000000000000

0.00000000000000 9.11505736822091 0.00000000000000

0.00000000000000 0.00000000000000 13.34080782251345

PRIMCOORD
 96 1
Ni 6.656507588579982 1.9202782375344845 10.978324505269489 1.2493437632638227 1.4846796638297979 1.7754670604958582
Ni 4.753110437174644 0.6378999668924512 6.0807003035559815 -0.49190885613385604 -0.022190677164426298 -0.399477440375312
Ni 3.0831681334689605 2.7773032705371516 4.534594256892414 1.1919351434373666 -1.405038972078019 -0.38926784683216187
Ni 4.027606566028072 4.645725947062605 5.404815158355755 0.2520964078537658 0.5055809543043099 -0.591574327746994
Ni 3.9992769679236475 3.290371616129763 2.28410666137551 -0.8529598742121697 -2.237297352076779 0.14696888468479205
Ni 5.276095965115267 4.843604726100232 2.9467713274603393 1.7355979922150626 0.4140687079259256 -0.298424344386028
Ni 5.269660734657826 3.4810221547244025 13.675128147216158 -0.9775246801701486 -0.6712024210932827 -0.40816005575097447
Ni 5.830227643867605 8.192021027149227 12.267900025159676 -1.4194695456810522 1.480517562032308 1.5474804012061025
Ni 2.441367833555633 5.5709224936505315 11.374759312102519 -0.17432079433518363 -1.3131248622755256 0.24349992443400648
Ni 0.7690392078474587 0.6407046700252477 0.7600936906081788 -0.6352234318955124 -0.8782124781313714 0.6304990298366497
Ni 8.195530324211713 0.2762482187358968 6.71923103241395 1.1079711417198854 -0.1846265471365659 0.7265145634020262
Ni 8.67989535435039 2.7968550684567104 1.5075110710220774 1.2540676511020532 0.1168358127448375 -0.8109285081727325
Ni 1.0441662745348212 0.5100950138996697 4.755023687702998 -0.6784339058447155 0.4415273183575105 0.48876979628424205
Ni 1.3721442664889385 7.427750817283826 0.7716980700633727 0.6062635543280527 -1.101407886680071 -1.4426845503449348
Ni 7.848620358234786 4.618736262382038 3.268778045373849 -2.445242262224311 -1.0196668607558377 1.4893529009357513
Ni 7.3776818075066055 3.8755674101780726 12.688068618203868 1.6691442314672027 -0.4754892771252521 -0.7010999799836635
Ni 8.362554634271389 7.1403439453949575 9.39307566802039 0.20921246400604615 -0.34248199682687464 1.0057548786604358
Ni 7.123116487088214 0.8942673341400725 0.15784180133046152 -0.2182735457670499 0.3640298982009795 0.058855893795943796
Ni 1.8851670367950244 6.548685575717292 9.169496984910875 -0.45242339644472407 1.4138180038222294 0.5285874425018122
Ni 0.3723236572494308 5.215608444838252 1.6914547504515831 0.846380421222439 -0.3002629402566635 -2.5978794009384742
Ni 6.3097981538637695 2.5294648624099643 6.767004870761732 0.7636544056771171 -0.5923909101110184 1.7537396961210958
Ni 2.6070248850195354 5.460128972106363 0.4357699251276985 0.20457805055782832 -0.7310939552425925 0.10680465376108059
Ni 6.256657369774711 5.980753700204948 4.882015577584159 1.5815845419786634 -0.3188293904049412 1.1986696339477227
Ni 5.194479742004901 3.2571654623670803 9.269980465137184 1.4716233448664722 -0.37234818825868776 0.4279860893379661
P -0.23753292433797793 5.714038008398783 12.846277756343728 -0.22090558407325828 1.5472284330962967 0.11455138758603499
P 4.034780116127229 6.499400460868316 12.570896379557551 1.0147881925072975 0.3482968037364389 0.12836078266530151
P 2.816516247063932 8.647837697808155 1.7598523174580112 -0.0332307370286718 1.1818301937928808 -0.5332907615147525
P 6.723621755517844 7.99440658477345 5.82160844567985 -1.6981215925361592 1.1028806145708554 -0.9535350021237706
P 5.094268801992017 1.362227084140929 12.811217599925177 -0.6304249820656046 -0.12912542874546795 -1.0133663724591064
P 4.014827255686243 6.505662505236957 8.169830420139826 -0.2735093263119031 -0.6625020651058073 -0.5272988055973757
P 5.09904509201992 1.4004556344787524 3.7205111703600666 -0.19836086600352287 -0.045260671610012376 0.09546686015075817
P 0.45442024387977786 6.046619104292005 3.5441594221600257 1.07124601838471 1.1488241711805052 1.6915449677599064
Ni 0.945176752200829 8.295103210213234 2.773486796043483 -0.31817735864323915 -0.07147281122900594 1.308529272485043
Ni 2.127144463074996 7.1736959400745235 4.616519480445424 0.29082853431664113 -0.2294092506688952 0.8682713077582596
Ni 6.281696432191973 5.830373484784488 9.325104685695845 -1.1192557134947692 0.17251485147469647 -0.4241980830504437
Ni 8.87061881340347 2.5923496427582347 10.5005633341484 0.737451007808872 -0.19124533800466417 -0.31813159300696825
Ni 2.32977218696861 5.615230787210894 6.794873246966516 0.5726340391990655 -0.36459785488930757 0.9926417383172453
Ni 0.14758918487362221 0.10614484231853968 9.157877109858264 2.296249405130955 0.38554617500620053 0.594327207901783
Ni 1.8452248556838315 1.6578010473752172 11.686347519516234 -0.6030100803877615 -0.8947019911459624 -1.0796612390315987
Ni 4.364845456204227 6.719255643068674 1.5528165518516237 -0.3826428853164765 1.3027561174466917 0.00787451765207031
Ni 5.5906383626015845 8.084208129343844 8.12000295938119 -0.8818349053753072 -2.1468623979229737 -0.8541366681290903
Ni 6.906688566434593 0.8197909354168359 4.901012268513834 0.454092813727347 0.7110051549125175 -1.4414164822657887
Ni 1.0272487281764522 7.757123413005632 7.050723790464935 -0.6486705585393538 0.5719866354230537 -0.06381812289722558
Ni 5.29475448741892 4.778523216941419 7.355934192282235 0.9359676826639687 0.8276172816823231 -0.15255589185426627
Ni 1.0456337987609514 7.314332159235772 11.714229568306976 -1.4359024944260947 -0.10335808997337684 0.22959539853777233
Ni 4.976000933457621 0.8014505286131318 10.33370947566033 -1.8370267263762103 -2.388898336216944 -0.23136920260874347
Ni 8.709701591738249 7.598494070724006 4.854520007223156 -0.4968731421176668 0.232973828091702 0.4040892281157105
Ni 7.535253803140835 6.763864733520107 7.186746879124046 0.45191097558467985 -1.9435943244258203 0.22442465297011027
Ni 2.7126319389570708 5.60504015314373 2.7919511676265367 -0.9601944164218175 -1.1272040218075685 0.6822957027929669
Ni 3.421172688458749 4.775123300566596 9.345662785941892 0.18852485374970757 -0.6219570538039095 -1.4094628121773274
Ni 0.6859800711656872 3.6994645030424618 3.7175761219078063 2.5522119808083463 -0.6699117273063172 -0.19294997940059672
Ni 1.8923588170087922 1.7249790197142156 2.7967402187346657 -0.5542455093895486 -0.1505889979358826 -1.30773917248358
Ni 1.2836461751131807 3.489125440668686 8.370263238234358 -0.5632592828523848 0.9522818464429599 0.28692225728369936
Ni 5.988519729028941 3.1161008355124884 4.57392299464697 -0.14009015528708776 1.477090024407998 -0.5849262263028572
Ni 4.253450340877918 7.291325754597559 6.139559874598295 0.20171101342267841 -0.15489199618661068 -0.837456636370248
Ni 8.190161555458976 7.761398374881751 0.4095869230186384 -0.3082981518563142 -0.8910777641298138 -0.9204631592704663
P 0.29340366808993057 5.873004607800701 7.923265385518169 0.4316295996278243 -1.258697950785213 -0.02251463616274832
P 8.554116678596543 1.9382440154829466 8.29985033205776 0.12256191659533731 0.5484281313768231 -0.6133389731175953
P 2.114620374337712 3.492106064407472 10.571789303436617 -1.1988015315398968 0.8102613069023786 0.40569256804708836
P 4.334328244346566 6.32795534801564 4.060141851573095 -2.0005355176975548 1.4804483993572697 0.06373713314764506
P 7.116416919968924 4.180083244628719 10.52877899403651 -1.5719542179777506 -0.42050109381483064 -0.24591984672940873
P 6.407639178977311 7.9872056895023755 10.25090282606591 0.09878641144229439 0.7880099517033461 -1.5856635971440434
P 2.574092182976007 8.947932729465801 6.092479692111435 0.5358405245197997 -0.30722754449995476 -0.8324129032987536
P 6.8416982078488315 4.3112853794791315 1.4654478160759747 0.6808939373494338 -0.9057353661419886 0.9116666440247589
Ni 2.869502075178803 1.5965843225137906 0.32294374580447965 1.2873927476167442 1.111671473389608 1.4727044937457927
Ni 1.3207262282305545 1.3795548080780302 7.21249418149392 0.784324532431959 0.1927867143498551 -0.29426429947106736
Ni 6.948070926600001 0.43851902641093354 8.752383759075371 1.4729245801763988 2.4191442795856792 1.4924734488426037
Ni 3.077106620361032 1.9555626243627429 9.40102673250768 -0.6140336851917748 -0.9114221321141207 -0.21207333049360894
Ni 6.6245410826108 2.172336917193959 2.2189768424129803 -1.110993473485977 0.31923151093936636 1.2630665121665536
Ni 4.0471036736038 7.144719172901433 10.26792610708902 0.4468592720933852 1.4915185411285021 0.47260604204018614
Ni 7.038082117488415 6.438393382324906 11.479217868819605 2.473447521013934 -1.9977857228665596 0.5119719454323183
Ni 7.856987980840921 4.095686929040281 8.480817945277133 0.22080453971901973 -0.08748358483496546 -1.1223348666407251
Ni 3.316285724048321 8.597723112744408 12.493012772413646 -0.2772636511480128 0.07146355525762531 -0.0835143157745723
Ni 0.06660372372877367 4.967842957169506 10.78678980611625 0.21176042723888044 0.7209419544102552 -0.6019551567606859
Ni 8.769186455711695 2.5268397259060795 5.585622346566557 -0.42503112047470026 0.26001129182546834 0.6791736122242173
Ni 4.095495512836873 2.985846666621812 11.697207198789599 -1.0977700328171673 -2.0026224821335705 -0.5734241392005285
Ni 0.9741717494885297 3.900442401563843 12.876681029985075 0.2234915996328796 -1.1620967199196954 -0.2612274236207565
Ni 3.367402965415635 8.77651496178504 8.09636305826027 -1.3671740787114453 0.3859907187427869 0.9160791712701577
Ni 5.713254113470541 8.07990582229581 3.750314673230735 -0.6494634867542944 0.2512134910281803 -0.3789191566079861
Ni 3.409870017400356 9.19153263594609 3.9042406459429015 -0.1775498427954426 -0.05005552189549444 0.04901782465959945
Ni 3.5479813656880768 3.156544344775465 7.304878933304595 -0.10093096858912294 -0.49799157199282623 -0.49316484002814426
Ni 4.78234242595228 4.973047654890751 11.235454802813553 2.5546594139075745 1.2017991807156398 0.3968942530291681
Ni 7.82334430432759 -0.01134642333345798 2.4484247109212847 -0.08165078020327228 1.392818261642111 0.17896472086509824
Ni 4.743412016201959 0.6951188276198363 1.6177194058872553 -0.02655795299418652 -1.1353814154120383 0.0769286921372546
Ni 6.25865356732454 5.906265451907215 0.2666919926571714 -0.5305836469962346 1.0924231666829574 -0.22167100148437308
Ni 8.370484734126874 -0.049312460020893054 11.486235551438845 -0.21903999161942925 0.1974704929787696 -0.24933787127202223
Ni 0.35042746659098545 5.178555736892793 5.632115519362965 -1.186761055435595 -0.054064643054887535 0.3212706528565822
Ni 7.648663346131583 6.854359022445694 2.733451641347777 -0.14734118042254626 -0.47295905450423065 -0.6458099491621071
P 8.622251731952582 1.7617947361697401 3.5228666482951816 0.23271337534146372 -0.21492931188516531 -0.2959884812510257
P 2.1216480835199873 3.5371253324376366 1.4334165931999265 -1.144276403908823 -0.31984137660922335 0.33360526316253514
P 4.927445023193056 1.3389107675543404 8.138039834776633 -0.2617717261600008 0.6568734060651203 0.40561877738635954
P 8.973947103014716 1.8440763584633817 12.662547369255162 -1.178137575432642 0.5070305422666429 -0.768097014829503
P 6.153584301768007 7.896820781264451 1.3231790901513718 1.5770977098519032 0.9098409036699298 0.5536790953631173
P 1.7622322589203876 3.4117750643771334 5.959245810987703 -0.48226233418302744 0.597480408818784 1.0336408064374263
P 7.398774050110736 4.349823841765331 6.0187589316387955 -1.259249709523625 0.12857135601421082 0.22863843394114172
P 2.082498912394343 8.755395374008994 10.60287347185866 0.49269149993615147 0.8318014949669997 -1.538371496926299
