# total energy = -340870.9972886004 ev
CRYSTAL
PRIMVEC
9.26771970321135 0.00000000000000 0.00000000000000

0.00000000000000 9.26771970321135 0.00000000000000

0.00000000000000 0.00000000000000 13.56424458111325

PRIMCOORD
 96 1
Ni 7.327374248265546 0.8975146996741921 11.69292153570697 -0.9338928024128109 -1.8729391240021034 -0.5289790215132761
Ni 4.50046026252759 9.215190203085596 1.991719139997489 -0.42217899573788586 -0.9214134389988776 -0.38654427725341167
Ni 1.3157752278845238 7.254196334003948 5.4983341713896525 0.06178026653159038 1.5154508835743836 -0.2681460051174608
Ni 2.0817337205254307 2.2305640301919727 5.250380039562986 -0.6557344073646707 0.302991137821104 0.6443027684889614
Ni 0.8496691702710855 8.103999886209785 12.948237867761078 1.1255513166954938 0.35963254046423226 0.24060820470850824
Ni 3.6273483954322 3.2477240636207 12.367036926735357 -0.23118356896049866 0.38583516700152903 -0.9170893577022271
Ni 9.24552344946075 5.303424759683006 3.30533498920636 -1.7911034814815348 0.451419637770558 0.6347462351487778
Ni 3.9509586297516655 7.798100264118524 5.542973996569977 -2.418318441250274 0.5931948940695525 0.4019279587983336
Ni 8.166584796925155 2.9800908559147166 6.680526341956062 -0.29494641313975656 -0.5234817458441307 -1.377426352567073
Ni 3.7131118729621937 2.6620875919762375 9.887913582624359 -1.5650320369366209 -0.31210544141754637 -1.2197899608661058
Ni 9.239017510274877 3.770849766306895 1.1483140214297236 -0.3604015574197728 -0.06144370912777805 -0.1998456780791655
Ni 5.8433250349139705 4.013914249252557 13.18308929756355 0.07891898309440602 0.6612247410552805 0.1860357687792667
Ni 2.2402302617744 1.2306604907291891 12.92751153956267 1.0572998406172631 -2.5362143198285096 -2.27324111716124
Ni 3.411781236652465 6.044555031413728 12.677075512416947 -0.514438918915572 -0.32259348543306376 -0.6848446944670656
Ni 7.382646928186541 4.7228113920823365 10.741511339249989 0.9179064542868837 1.432461587065346 0.5418232244657959
Ni 3.8853802455932214 4.393204943157088 1.0652094526638698 -1.212750537520821 -0.8290804964914108 -0.28743056437868564
Ni -0.3272422536455953 8.829189680163157 3.878763093771694 1.1181421687156163 -0.9641549437314619 0.9134785004225171
Ni 5.5312716469830825 1.6806082791537857 3.133435471816925 0.9960528208813231 2.1256736796605002 0.2768031665718265
Ni 1.423688555349323 5.094363540089144 5.2685558913170185 0.758845671434564 -3.0313619946146377 -2.2875603619973894
Ni 4.003293442547416 0.7598797953303469 4.385998364366585 -0.1620949416929531 -1.1708983773717256 2.1607851786516528
Ni 2.2601280558371726 7.6908171415891085 10.255437052904531 -0.06005145676594174 -0.0786680434258645 1.575084021855984
Ni 5.737163306460752 3.1897266741261348 10.809902476318564 -0.11029724029537134 -0.4973644799317886 1.385288271813653
Ni 5.612892453834894 3.517859555628941 6.121353843737891 -0.5754195723640025 -0.7792635729692837 -1.4140370618115712
Ni 5.394498640565571 5.821675641839617 8.876265062064347 1.3754327191758118 -0.2564210033710487 -0.7906525315325157
P 1.3316786347833212 5.532874962480456 7.2001312379517834 -0.8078642674251119 1.5016648855338848 1.882879008823635
P 3.309650966241774 8.2077705429964 13.3871227792538 0.5538277051258397 -0.1993635962364244 -0.6799446860622871
P 6.9335610376882775 4.704646661591869 7.35575385934101 0.0874650728922042 0.1990211252953411 0.344676176264716
P 5.670908378768734 1.7959450500486178 12.641902662846833 -1.9739724224970454 2.5944071261191577 -1.265062716660976
P 2.3701451556597966 8.534522534273146 4.009834599067912 0.12788949945583783 0.6786015417708313 0.06705925554234257
P 5.620881228162844 3.472188233252908 1.7601911144572016 0.6313714051392739 0.3406464862800327 1.870876842156436
P 5.721296970440506 -0.22399614979048982 9.305708947561843 -0.6101163524152396 0.03775485015127046 0.7925489772242801
P 8.288890892987759 2.6095674247877265 10.382045224423091 0.11326506467444364 1.163611871012641 0.7868737812163739
Ni 4.052968419807063 2.014913461935496 0.8760951460468609 0.5060985173706767 -0.4823574649999951 0.6094599497781633
Ni -0.035192311781353645 6.146805782179713 1.0758219184213365 0.6102377084844522 1.2513548801565804 -1.615558584931263
Ni 1.7023688848637948 3.801071800046392 2.9101140120160807 0.028578325858324975 -1.8155883539967763 -0.5095749059550514
Ni 5.031241101634768 7.365909426520325 3.5509295596131945 0.9561143328151727 -0.36911091226831266 -0.8857910618095778
Ni 2.9388309680863682 5.695921954071679 3.273024938232423 0.7321334522507004 0.5922163322063673 2.4205010507238893
Ni 9.07940884266935 0.9197396181380648 5.902887742255392 -0.3718573646651983 -0.41138473333585923 -0.3128088952424742
Ni 0.3704001704558046 6.106481934034802 11.633699880448226 -1.029627057292343 0.07536366164297988 0.7847914447660483
Ni 6.192931222818008 8.729682174410017 5.225218180745832 0.9484493600707473 0.8646637929126592 -0.04500587528672894
Ni 7.912111751105124 2.953205201244897 12.511333467954994 0.592579886193373 1.6529300836011858 0.2671913545136753
Ni 5.667312503549193 9.074478415821938 13.225707833090828 -1.2689445682138856 -1.347750422769195 0.21428550765357934
Ni 0.6856101436953926 1.5191182644617447 8.217545206898592 -0.3384263387002623 -0.3616511135561578 -0.2255004025327923
Ni 5.784354534857416 5.026069714076768 3.7503097192732096 -2.1988696442282003 -0.2644436165652091 -1.391128532644514
Ni -0.17104596041077635 1.1700588720163483 0.06744675643746328 0.261328210864679 0.5487862860471904 -0.22234514473326225
Ni 2.0823639254608146 -0.1182171781583206 1.2788276100037343 -0.7258579036546338 -0.48859470415895845 0.5446403821996169
Ni 0.6687132372514024 5.871591579809851 9.315882123408471 0.9727365147528861 -0.46907951694416633 -0.09127493355659765
Ni 7.642801086144663 1.0231377125952335 9.24495533824694 -0.8044524135300856 -0.70689138985446 -1.3093347991054742
Ni 4.604777714772848 7.705849382841935 11.120360889699752 -1.1353346213345028 -0.3112677760075994 0.07985820707922375
Ni 6.932689872042307 5.880636874176533 1.6406903571290188 -0.2150020741046297 -1.3264925418316833 0.543844882881515
Ni 1.0957595636785524 3.1597456010972254 12.613404424960002 -0.9685733845141319 1.0184656413588848 -0.9398683032699555
Ni 9.536205475906423 0.8571130026843221 11.19976578478612 1.8763880017826522 0.28600823010986226 -0.2921886478889613
Ni 2.234289653486446 7.2764666642940465 8.00165645824742 -0.7448686404291818 0.1386271975883161 -0.4970482342429504
Ni 2.4158628166340193 1.3986657123267399 2.926458562369647 -0.3833725643936494 0.65993173327547 0.11777477961933909
Ni 7.729352319843887 6.246155736699007 8.594142701476322 0.8277216684706713 -0.15480920666481723 -0.2118121064124223
Ni 5.888236404279688 6.496912426944203 12.87482826050853 0.7158033476321092 -0.46028480147067186 0.13059095754740088
P 9.197377645941373 3.371318372712984 4.5135156991816325 0.3286695164238146 -0.2691127399061043 0.3671090513469355
P 5.932480497831469 7.687369549883775 1.3677235767713702 -0.18221510948159586 0.8884945767836698 0.020774770653506157
P 6.658495118832624 1.7091343201995304 5.276165615911776 0.2865497044356291 -0.6815236005136327 -0.8197155103367431
P 3.631620814185315 2.1048196101436734 7.081362630475002 -0.33877703717146174 0.21365404471716753 0.41366735872244886
P 8.531473454512245 8.192562215070453 11.461176645527155 -1.0216520095066661 -0.5131513104524001 1.9444476735650513
P 1.849076886733236 2.4793281607150006 0.9559106011131906 -0.1940794650193496 0.45187857968484757 2.1670956942507127
P 8.042480763252781 5.120934092291272 13.303227674002827 -1.2536537034930864 -1.0677981690454255 -1.9683473630007844
P 5.033993614367252 5.4487796744853 10.909125463078817 0.5585747328925219 -0.6930534555301031 1.8624243405137086
Ni 3.821368106053599 4.632376983854793 7.297346836638447 0.3448594959201157 0.41339662155956547 -0.6896156334931478
Ni 3.9690121476064766 6.555549289093789 1.4395864016163376 1.2073013414807918 2.7973126740705694 -0.6850174725995041
Ni 1.2227180549994288 2.8042822143819754 10.106108139921464 0.5908860434307177 0.9785451510148632 0.5618924844118452
Ni 3.264804470913522 5.131415883201843 9.532028514665578 -1.2874899353162406 0.12433932021073425 1.167162821588693
Ni 7.818044396779488 7.971388085909732 0.11460462104343065 -0.3526314265560508 0.07311317504590634 0.10010281626087277
Ni 3.2473996934333704 0.11612730737995301 8.691751251475637 1.6376045089877087 0.9054587154418342 -0.008866192141378279
Ni 4.613118662447042 0.768332882412161 11.050735292375398 0.28556034393916624 0.3143898665763489 -0.4935317364492597
Ni 7.112390955823006 9.404418502654153 2.744222757267957 -0.671206791968657 -0.9470391099867818 -1.0748784729309748
Ni 5.675356884194971 3.198883181128473 8.55529427429778 0.3285548452228213 0.1786631304642794 -1.0069324439083045
Ni 6.765398264856882 7.200526969580326 10.56270737073025 0.8196106093277626 0.6240807850151316 0.02305071117187643
Ni 1.8082340462885975 3.664910463124988 7.819678295751665 -0.19180378161129547 -2.2355091498281046 0.48780126172338567
Ni 5.613652406845208 6.468349315019906 6.183844223712955 1.131634032554464 -1.5103521288952375 0.7074122953549365
Ni 1.1382057196205637 7.242185369353107 2.637947035863191 0.9932780863496635 1.8150718193716742 1.021273543121325
Ni 8.257825496761205 7.214345139560574 6.2203321626997 0.5077111132734353 -0.28078297715518097 -0.6030363056400065
Ni 6.702878228178975 1.7982341767992023 0.8237278962323772 1.3650824862897395 -0.16602512998529473 1.9506846556136985
Ni 5.849923651296221 1.1097445526122849 7.18843908285649 -1.066896997387395 0.5295204958390428 0.4966206597872286
Ni 9.234411453614795 1.8688263972818004 2.609869552447925 0.42423176450185646 -0.7772339441337647 0.42531394182244175
Ni 7.48820625486329 3.395331034295026 2.9040232666699914 -0.3003084487826183 0.3440819943241429 0.2725338497725113
Ni 6.973504909328031 8.291152216579428 7.736054734686084 -0.7781016914506986 0.7238398447833404 0.465075795101412
Ni 8.627765061551 3.967501509305484 8.73682480593502 0.20645367031398637 -0.5233722168494599 0.042883172516771303
Ni 7.409884756202605 5.094724981155025 5.19255595642565 2.4766847970043084 -1.016816535791236 0.9630496264824252
Ni 2.013189666082829 -0.0040787234126810476 6.654672184481951 -0.052191594401890765 1.133043768417797 -0.8052281153538455
Ni 0.053194857178156495 8.312727467896678 9.540872699516116 0.5152840405246868 -1.2403163629542318 1.562795177186302
Ni 3.842581916304966 3.265406872689992 3.9372386975995792 0.4411082285422209 0.4471729466790621 -0.08873879739830524
P 3.923387163828634 5.132203639371072 5.148905923702665 0.670609010483658 -0.008234986315282591 0.11004115842050727
P 9.169157439643682 8.70389937837712 7.651034528271057 0.2348785013135826 1.2325557451722065 -4.235896571983569
P 2.4939896931823067 0.5978624473909041 10.69120152319514 -1.1328884737868554 0.7769063855910169 -0.4557213504697054
P 7.319533757451804 7.022503343054105 4.227540747540095 -0.17358623016200428 0.36738184539234797 -0.6896948234705154
P 1.9907525168392464 4.720828100079805 11.389556634936701 0.454442740867598 -0.3328550152600719 -0.741332345141149
P 9.019391090293702 9.097434557365247 1.6271937770202087 0.6725882456972159 -1.6943623826040433 1.0906442204056637
P 2.00884310557261 5.609055617904764 1.3595309126113837 -0.7913935234635984 -0.4612312245443411 -0.6170902126299115
P 4.281899630304784 7.2367544856452435 7.769463937209088 0.15978429128190544 0.9804022588282598 -0.5291145186498758
