# total energy = -381167.44348975836 ev
CRYSTAL
PRIMVEC
9.24508380149357 0.00000000000000 0.00000000000000

0.00000000000000 9.24508380149357 0.00000000000000

0.00000000000000 0.00000000000000 13.53111465088199

PRIMCOORD
 96 1
Ni 8.710588293153913 9.292233479853234 0.12525054296921265 0.5697772864765606 -1.7968419266272087 -0.7236698948643795
Ni 1.6631535509816708 8.441667302743038 12.025101442027763 -1.7896178980749438 -0.7302056391003682 0.9189261538006497
Ni 4.150672712282269 3.973758793398106 11.129003228415451 -1.516453613807285 0.06906703000099074 1.2054594031760466
Ni 3.4716860408457335 3.411842615002444 8.862906591751734 -0.4643183481100971 -1.0113172032395616 -2.129552960110249
Ni 5.973830924328331 5.149640970596925 10.432029322416781 0.27122541537373285 0.2156301946069319 -0.5796312964525049
Ni 1.2551032981707244 1.3050452395279697 1.5916650178941043 0.7627468062611831 -0.10980204582650768 -0.4764634681130632
Ni 5.470528575663312 8.800302583959303 8.29535830845514 0.33523431412552585 -1.1424259809636454 1.5282516348834776
Ni 8.147109695637672 1.2810819829567035 1.962281927396001 -1.6719269364186626 1.5707936220107463 -0.10837482646167788
Ni 2.666725860906084 3.084890235124811 5.63656195571309 1.6830628984308238 -0.3518539249600779 0.22415031626280105
Ni 5.551940781437452 7.262632552052398 3.902806475156656 -1.293506573823966 0.39904986591959013 0.352711902084999
Ni 4.490420287798263 4.525348213464252 6.616822787456776 -0.09463150873365639 -0.28468514042306453 0.6734570214554144
Ni 7.130242955562996 5.67686035041544 3.1687976889501015 -0.7192167441890323 -0.593133701814314 -0.4466183597271728
Ni 4.3163815898993105 7.007135422961538 11.295693009397546 -0.6544254587452599 -0.4559545495264341 -1.3529664197524955
Ni 1.9789656051770608 4.8766336532553005 4.05020084225376 0.557023329245002 0.45301603572340043 0.6372918843887669
Ni 1.0132704025722756 7.913310777647414 1.8694862502421548 1.6321465711969312 0.9361826268882523 0.07217240839919183
Ni 7.863137709201325 3.940032728594102 1.8024529229191304 0.9127058839225507 -0.546772083830639 0.1025762175020298
Ni 8.365118010918161 2.3033108714925428 -0.1898995632437303 0.129129542510526 1.5344683052171508 0.645903794427494
Ni 3.1269091398765103 -0.09773532529660377 10.542443355298968 -0.19495389720450293 -0.11683761251705038 -1.137954575455853
Ni 1.1115733759990782 4.62121048483287 8.483386666787597 -0.34168212663339864 -1.4228420616977109 0.6719374994870945
Ni 9.481572791033607 6.210042809126112 7.056692768842947 -4.545497244701391 0.2885960454416965 -3.9873410874035264
Ni 2.709992851937537 2.941748606462421 3.121966718208686 0.0845368435018157 -0.8693822814342511 -0.8389674165878197
Ni 5.644095774301024 6.787176395051212 1.475811177848902 -0.30116205503216514 0.3121185540436689 0.12310441936236863
Ni 5.778805886762412 2.5920255857919523 2.559248066560561 0.6268701748348107 0.12051711825116662 -0.6866979456257206
Ni 6.179025553803351 7.490264999312319 12.695161985293172 0.8803153834069872 0.4927377797930546 -0.38272618905890216
P 8.493800328902518 3.4287241375715536 11.081157147499837 -0.10494111818978055 -0.1025798170464556 1.3169990005189514
Ni 7.207004884309609 5.549370648209514 0.11337245961938136 -0.9447127758464505 1.9831862277858299 0.6150909228116955
P 4.719467232841905 4.305703518394753 1.831896665021047 0.7400660768342158 0.5716284807526865 0.24391670025645087
Ni 8.12632674780889 8.526518679599166 11.326003015828446 0.4332200840433958 -0.2768774714531877 0.7738704269781704
P 2.0641867853753366 0.9906846634505152 8.078630437246845 -1.459486966614254 1.0977800601194965 1.873520707537186
P 2.4320579050617757 0.30895774924865516 13.60282949646462 -0.9701582125027486 1.802005473106019 1.3877727287984034
P 6.538687039294079 9.23064273321829 1.54870403912828 -1.8774005022075668 -0.2564454288510809 -2.160247303870312
Ni 4.7616063236798025 4.194744025582895 4.21396825232452 -0.0048496147828174544 -0.894875283499033 -0.8545197625001218
Ni 6.354876288078834 3.4518368464558766 0.08000510405726187 -1.9277337032444797 -0.7524186848622978 0.4181117676470476
Ni 1.4468555761586221 5.754380376013461 1.212079452836735 -2.1416654271030664 -2.3644396889539476 0.9627094695341872
Ni 3.5112180181214794 0.6571655007246676 6.663816471668738 5.603466343471537 2.725069303224126 1.2565513367558552
Ni 0.17232928194986794 2.688710669596852 3.2674390324349707 1.1235144887711233 0.5905263460984539 0.8961906598763469
Ni 6.600240805594807 7.2954525986681364 10.145236660988193 -1.8253009532988502 1.3960704500308214 -0.26200261122388424
Ni 0.3916245128610356 2.273162654023832 9.439846955430562 -0.016168125119430218 -0.05632875649871589 -0.6067708329817744
Ni 1.4884676972339574 3.17012066040664 12.279527065934747 0.3938336118259733 0.2981978301975187 0.9915114813675441
Ni 0.15896643818130773 1.38943436220641 11.62420133683727 0.06457608410917266 -1.2315571287043627 -0.5622418973314639
Ni 3.129747380527505 6.667110494938931 0.36531392957547765 2.005973915104306 1.7808836035257396 0.2677441416933518
Ni 1.6837978225571482 0.8606488652338923 5.632583796259921 -1.9149789746819728 0.16049468708536876 -3.1640448016940605
Ni 3.9910655898106873 1.497047134771818 1.581435332941903 -0.63028382850205 -1.351427614510466 -0.8312425371397363
Ni 1.211928757974809 7.628136930349083 5.035238608669658 -0.3438056007343047 -0.012395031230243169 -0.6671236230382188
Ni 8.636267066465484 1.3427004648423089 5.340906957189896 -1.2478268123986638 0.2104033989903538 0.5776116949193149
Ni 3.528580285035383 3.4810143301514467 13.86600928998863 -1.0944731072334506 0.5372698007671586 -0.4658774650671009
Ni 2.0996971513052105 5.430608304878309 6.506381943832282 3.0075710628426267 -0.528124901043097 -1.2156340297162032
Ni 2.5753197198103637 5.32641621322778 12.260447987004914 -0.7894451414879758 -0.19785127335695604 0.42282279996947175
Ni 7.785146184342065 7.480825769003961 4.7130761065812115 0.5578298843066973 0.8885241444700246 0.7245260722170878
Ni 3.5574526809736797 6.003119349026544 2.676170638264574 0.24580851796252506 -0.6239666280347705 -0.020212727502449058
Ni 7.795528413172903 1.3335200968734557 7.607828255306605 -1.3440128101036335 0.47187841984554213 -0.44302935682433375
Ni 2.350201935277058 2.1691554640443784 10.444869818964557 -0.6190290815238372 -0.8807175039414122 0.4534623792321997
Ni 8.377275295791314 6.139835644619092 9.099904308651583 0.12419430999243773 0.3835083186405653 -1.6677054421381474
Ni 6.339289077207247 5.569118146680281 5.483809138188244 -1.3817460629883493 0.3993226599650026 0.09312407095019445
Ni 6.3178589735297015 0.9234035678882508 12.98916581189367 0.7444492935035759 -0.5913197885340268 1.1710642135256284
Ni 4.759969943890792 7.0842671550503 6.959999364462849 -1.2418739372493386 -0.4564677417174267 -0.6153714301665918
P 2.2866697210958304 4.749467528973756 10.23896701608932 -0.6114445843083598 -0.10577646960688236 0.18272804456227237
Ni 6.5110904648861965 0.30579038362314753 3.615784535655934 0.4840351098127341 -0.1891735430773 0.799280639521159
P 3.5017418074789073 7.740020931516313 8.94264543740265 0.5470749597830384 0.3490743053324117 -0.5094054702567227
Ni 7.534364047863607 3.6830101607168757 6.5112670459820725 -0.56814823551357 -1.0990260167114556 1.2027288916187608
P 2.1771247260676927 0.30263226308119356 3.3760539720576035 0.6883915312780596 -0.45693491116183244 0.7692879498138105
P 7.816755125012266 8.3552997321841 8.729097874936835 0.5423436157456403 0.975003713520508 0.09702494866649741
P 4.41016371746834 1.991243076136413 10.318679050997929 1.993881759826463 -0.9487838605920307 -1.4113638858547823
Ni 1.020666469415259 6.527722370199355 10.79118510183712 -0.2835479414948278 -0.18543593041173873 0.8844337764507348
Ni 8.008340991496196 7.820369952681774 2.0512224047079424 -1.105997305822966 -1.6162381274967907 0.17166767298305274
Ni 4.441486060548375 1.2740834547065305 4.086640339080784 -1.2241600649093434 -0.07113291139108395 0.7159920666041476
Ni -0.1737918541680679 9.279382813713552 3.576137919344122 1.9848721001286849 -0.6413087188576438 0.7547265070598679
Ni 6.070673174553645 0.08691025696354222 6.086931578491233 0.15821591835352108 -0.9837673186457508 -0.7625524308621899
Ni 5.570551134631109 2.2940380526881525 6.073034368893266 -0.1621085685397079 1.3971760243901745 -1.638614695419778
Ni 1.2938217080937422 6.975249129784725 8.625733218264367 2.3191371083624057 0.968675714419951 3.036863898269473
Ni 3.7439260162523977 8.271243432513595 2.1907140743833193 -0.29393031317041635 1.2957375200370136 0.29653098401805705
Ni 5.259907082142253 1.7200755304219815 8.174457577297959 0.09804361973899889 1.7406206422406345 1.5713633784712873
Ni 3.5982050092785176 8.303850842207597 5.175529053564078 0.020736975437035253 -1.2881028863098913 -2.166613355297656
Ni 8.078723812590736 5.829265552798667 11.191571180382024 -0.3437726906138402 -0.7845420477594036 2.8222667729127457
Ni 8.063672816565266 3.740727217342807 8.981804837811179 -2.3673833449633035 0.683865361272932 -0.5641879653142413
Ni 9.085827744432676 8.812006859738323 6.862290849908551 -0.3980412221494177 -0.9528379760567461 0.0022021498576413685
Ni 0.10202042152375726 6.006983793952004 3.632156654121233 0.3558244795720517 0.23366108396671373 -1.3136028303532088
Ni 6.217059827543392 3.026710924321193 11.246453694390384 1.6506050350124346 -1.6374317308552704 0.3121213822571463
Ni 4.124546106159429 1.644164149362311 12.384528102396226 -1.0449981404317743 0.8207015283990962 1.2022115856627102
Ni 9.08546718617408 4.683845925909386 13.058688840217714 2.1381062489968987 -0.500748565912673 -0.02977491726958743
Ni 0.62219134964091 2.3188888372805763 7.157986526799381 0.28007335268266603 0.046454434807797415 1.083980692342559
Ni 4.0510846722414975 8.590124854448822 13.024590198546495 2.11313698064607 -0.3875043271738358 0.16080270524409082
Ni 7.37734554878707 1.143644570846965 9.81640383111573 -0.33153886755180967 -0.22952829274526276 1.012095990387115
Ni 7.087345767873693 7.224145269218223 7.042132686754179 0.5306836629092085 -0.08249667314333535 0.17903748308456263
Ni 7.298586681992851 2.7660642836909046 4.24174695487841 -0.747280592304784 0.9773436745075942 -0.06662679599061429
Ni 3.8973944032443026 5.662336324152531 9.001275908283688 0.13060869815921378 1.0031192408098015 -0.19610343742791386
Ni 0.5083917671613464 3.652482894822462 5.452741034905936 -0.7092377785994495 0.7225563500852266 -0.9586260434934327
Ni 5.318539402040003 0.12313711686883015 10.996033040678876 1.9475571657283104 -0.821512968556798 -0.6656907472464342
P 9.0547735087757 7.100094738094284 12.97177858325417 -0.21713711816976153 -0.35285896918582454 -0.11643549198262527
Ni 2.0727015073283215 8.313040455260005 7.111981142019315 0.7664497090340671 -1.7071029700991631 0.22715413608613136
P 0.866161708556981 3.5204168762574404 1.3822712714689807 -0.048085028432684924 0.8005538498066277 -0.8519309187270231
Ni 0.5272008896514084 9.243299252603345 9.712728539635856 0.8123603555232525 -1.113994722206146 -0.9432256497779626
P 5.503921817459381 4.1621181257217845 8.525657037811957 1.4008002514063231 -0.3962810449252014 -0.6016111431577058
P 3.7677783318210194 5.944588725047885 4.9799372923763165 -0.05070395411277074 1.23922930053764 0.3007704760207014
P 8.337207103669453 5.205860323687152 5.337267167794793 0.7876093738308177 1.543164547439568 -0.5140038882606826
Ni 4.891841815701185 5.338582743184489 12.962117470940525 0.7349745212439214 0.07650420300532632 0.3095423086760605
