# total energy = -340864.0778041664 ev
CRYSTAL
PRIMVEC
9.31875055585262 0.00000000000000 0.00000000000000
0.00000000000000 9.31875055585262 0.00000000000000
0.00000000000000 0.00000000000000 13.63893339222804
PRIMCOORD
 96 1
Ni 2.585468636814619 8.231457163895085 6.712401152263365 -0.692659305415478 -1.0998402850826348 0.08418383103777115
Ni 7.557198985004907 5.085064989495827 8.500042185413605 0.8860548569939257 2.840334171937418 -0.7851123184405768
Ni 7.598937667656404 4.871227626065617 11.02560430396669 0.42714148194948365 0.4052148570797215 0.08882981445021476
Ni 7.387467266805672 5.555140030279962 6.061905786671094 -0.5229994068910735 1.0885780819052544 1.1047017269399944
Ni 0.05378223555589478 3.031072639277068 9.825133068657381 0.3577466362954291 -0.245116634101823 -0.14739028849292682
Ni 7.700223164807359 2.8035273941365757 0.5507866009942599 0.23329367332496598 -1.1999721548092304 0.8529753008311374
Ni 2.2579704758179173 5.53360439830684 7.446952577553064 -2.759159817149932 1.284231576279943 -0.6945822334698037
Ni 7.2293560302466275 0.8564043362562631 1.9238532064739597 0.05799663111944206 -0.08765816273961678 0.6681014135704558
Ni 5.59941341301657 6.009009764269957 4.413599640074428 -1.4049947491036447 0.16191367892008243 -1.3684092366701273
Ni 8.423861401605615 6.900432100452051 0.621852322755498 -0.10122535990109019 -0.6779412824790131 0.2933950094922366
Ni 1.8029358980388097 1.7623341029254864 8.275204037239012 -0.02588920906193606 -1.855596776068914 -0.15917545405331296
Ni 7.456770812882739 5.028518812597126 3.6549611089759355 1.2547801037880455 1.3755515041418633 -2.6320043676466414
Ni 9.132515087900721 2.753886411219735 2.4275801183880534 1.0113475422568647 -1.2550955781459352 -2.545290571098165
Ni 9.050966703912497 3.640742559748506 4.354038847449501 1.0032909905009753 0.7722400904635991 3.0910002751025605
Ni 0.4463439112372933 6.217796365030574 2.7849607160131455 -0.3266733119293922 -0.11642983555567045 -0.5554688402736885
Ni 6.356720294695348 3.843350829051668 5.125770222737623 -1.9141438803751871 -2.2178932365185546 0.8234940035425689
Ni 8.15799745517846 2.531382609998524 11.81366212980302 1.2378578741114101 1.1834271059663555 0.6010218463131392
Ni 4.075704549353619 0.8151343867455046 10.691777779632494 0.4535163723985866 0.8399184676471794 -0.9966853122589997
Ni 4.169059789988292 0.9756917952616861 13.23826235638811 1.670460636285781 -1.6490667439910376 0.30984415618719546
Ni 2.1895615297708884 5.404036493956222 11.556759093676755 0.39269769844931723 -2.9090764716091386 -0.20865222062720196
Ni 5.857002309165865 6.377827264154075 10.010730891139366 -0.5196412890521179 0.13309495491617723 0.979912463676035
Ni 1.917379470631585 0.5272642114544274 1.7656692836624748 -1.6587101806180722 -0.412485936819838 -0.6938695236734954
Ni 5.597596256705554 7.6140060869123705 5.943574431447775 -0.3777562466481365 1.5440171252478505 1.4322535848195979
Ni 1.7994506854217835 0.8304553441349504 10.525083042160235 -2.417640955567275 -0.07098687273152289 -0.9508895940811236
P 6.9702481777963285 0.2260915200916795 6.375505963451132 -0.9312980451024413 0.6586225275457432 -0.40007162231588517
P 1.4030496846114686 0.9870233956421774 3.8747662001065297 -0.4818465868018476 -0.2835785376224471 0.7783228063225692
P 1.3624012957465808 3.1383314553785944 11.677627012735247 -1.2688669208984147 0.023149698643585938 1.1922233641017466
P 8.975689838884858 6.355704550911241 12.126566195934684 -0.8125945830212457 -1.2338312694505202 0.8220241038652617
P 3.6634057605094896 4.347737508487915 2.166640199626238 1.0118314238718185 -1.8727822867092647 -0.7249217649936095
P 5.929595374103388 2.5712482238371277 13.094275549678336 -1.461260256464593 0.06968435187001547 -1.0506854206245388
P 9.279248130327709 1.1623277265285294 0.6148660556459138 -1.0119797765242249 0.33611517406858243 0.6151060923203471
P 8.477798328416704 4.807655111430985 1.7073078142028189 0.26669127494880523 -0.477668544164758 -1.512878494861517
Ni 5.815077251508109 9.092574924059614 8.452483011316668 -0.1554491542416613 -1.1125029681519678 -0.18332608315758753
Ni 3.2233277769825928 3.684419542465088 7.944842224271155 -2.282972742626707 -2.4570374550870264 -1.1972041051457898
Ni 6.666820348857858 4.755218503420274 13.2992694190616 -1.2998839381052196 0.6190398801571144 0.2940041038311453
Ni 8.1413448483693 7.417427049061658 9.574122278353965 -0.6977716869413789 -0.4264251726087495 -0.0073474415040067015
Ni 5.351599885945511 1.6495865428896597 4.601025801367806 -0.5444485779037849 1.1865378836811953 1.5114314780023452
Ni 0.4981477761017585 8.715603517651704 13.155364617354579 -0.06361989084349044 -1.3164431280154814 1.9901708866337786
Ni 9.039299628520741 4.296279369260059 13.140621422484532 2.1191109388413185 2.049602964648167 -0.7169917115132555
Ni 0.6903059988040291 5.46355535220474 9.792522101937372 -1.1522473379294413 -0.9547927857902718 -0.30556249809270597
Ni 2.1845853171037977 2.982764237654973 3.2670699909513643 -0.9189292391244431 0.4035415831423566 0.5739391311637341
Ni 3.475614304203846 2.957445193054813 12.52431841554037 -0.4008786915982128 1.9129724857749053 -1.8096293081998638
Ni 7.4929275640968065 3.209293739011359 7.116140668945093 -0.15836041435118534 -0.7080892668173031 0.21070370383959197
Ni 7.972545005201356 7.98802344947109 5.092955175385763 1.1470475388960568 -0.39700146803099373 0.3650282575585068
Ni 7.802626911995863 1.2471003981250182 8.712359660667783 0.07855414355581956 0.15805136775119877 0.45160372875690613
Ni 6.7139918629417785 0.12562141359310383 13.299132433432002 -0.13547168267846993 0.284741961802929 -0.4691466227366759
Ni 5.052132525890024 3.6187782652609912 10.969412239579878 0.5848406085675862 1.4141663883005837 0.24335902798076797
Ni 0.04421560648466742 1.880644956898117 6.17243548413245 0.14158730865790453 -0.5753527236818091 0.7896960811565173
Ni 5.194755999429021 2.022550886663021 8.723175002280938 0.006648615664769195 0.4283786967906945 0.11389164251484901
Ni 6.243245872135114 1.6927509943390315 11.049390414140378 0.1927376062794745 -1.1256366773204485 -0.43570274125593345
Ni 1.6731909374322456 4.3701491029904505 1.2030590522712021 -0.8995294944415927 0.9763111194780217 0.24789111152316662
Ni 4.257131299195549 5.510493897530839 6.464295016432482 1.5827767625145515 0.3780028154413038 -0.7321540210759906
Ni 3.661989310461928 8.314869297945888 2.7832833409568223 0.44220454693019323 -0.5728610676082069 -0.49757762438385916
Ni 2.760642505196591 3.0142895699635277 10.112832710817733 0.5929449828422756 0.9425234815046155 -0.08944765053987176
Ni 4.191424790739262 0.5080871551855021 6.738055671874791 1.5072413511803977 1.8932683224777584 1.2833028938180866
Ni 6.195394089278351 8.982650945368597 3.9739894578132393 -0.6516255274026197 -0.613052552225428 -1.0907383227813665
P 8.699882785873834 6.974217965429626 6.95584232168761 1.1705430509148356 -1.4967432798625513 0.5100474747160958
P 7.028276035994782 2.535333760131195 3.492589339773832 -2.0700782017833834 1.8481192367449462 -1.7266639229502263
P 3.2587297094213157 9.28342293046789 8.680498853347963 -0.00710884313063937 -0.007757532458231802 -0.1798689778469225
P 6.661480704928564 8.96129236965142 10.466435487065974 -0.624515301449389 -0.980428741190821 1.0856112859674465
P 7.3812050665954 7.27345235672729 3.1489566944853675 -0.492874562481235 -0.6926186819855298 -0.864285583637634
P 1.6638721871193416 4.481498850479341 5.227093926764862 1.3661330390414408 -1.4398172560994686 0.7225306390536137
P 3.6585693290970918 7.080256025240161 4.736269756534014 0.9669667021486443 1.8728437360748198 2.8105065470530244
P 1.670050518576797 7.614751586937402 1.6146179323404868 0.584656003360606 -0.2997348356673354 -0.14507758119935016
Ni 8.389465894200686 1.3541542017196606 4.2866624189371425 0.9875337276667185 -3.4373623237101314 0.36457240096801086
Ni 9.119906818727362 8.573063912865523 2.856142922153295 0.4439945489510805 0.6527902371346821 -0.6433496605470727
Ni 3.944282213690732 6.893042331453918 0.9189601752317571 0.921384385533155 -0.04601786149101107 0.6857072995776772
Ni 1.617399579308889 7.808507043443305 4.436812647103872 -0.5126818270151493 0.246064342727073 -0.19149319234941214
Ni 5.045218013157849 4.382431215902858 8.645597337801043 3.1590846294753074 2.133928463470125 1.2252293867141222
Ni 5.516644272737356 5.44930698297631 1.8820362463198337 0.7814587808483896 -0.2747833079283203 0.291042192989344
Ni 2.9599239806380453 2.4835308271417613 0.9383003096311583 0.4017163570081598 0.6882668327747372 2.0008394220912185
Ni 8.458769440277754 0.31955299447991997 11.522606805654991 0.002739253308033992 -0.8227548113836991 -1.423380193589368
Ni 0.21991691613434924 5.9148717486089994 5.163318263373408 -0.29176338742608465 1.109518174492031 0.44175871764202634
Ni 0.6223862871484275 3.544079162752752 7.583669827143742 -0.3037421570545156 2.191411645288258 -0.23620699031701903
Ni 1.7200362952552146 7.298622301322443 8.94398931407042 0.5273741389200015 1.7783829485910727 -0.9932084094539928
Ni 4.801346317469148 8.258854289815021 11.788116639570255 0.6789586679999339 -1.454449918410979 0.6659296027301176
Ni 2.3899053427480137 6.89279072519547 13.053031692668453 -1.4482039375012672 2.1773952764045084 0.37139019522079264
Ni 3.2716361786046875 0.21151140335210972 4.778031736061294 -0.4518780654642153 -0.2274495558393631 -0.3544808210599637
Ni 1.8133542608886364 1.233923685182572 12.935477521221232 -0.38365101486601666 0.9864173546740883 -0.5516993459289273
Ni 3.8017519276548635 4.038168623093241 4.778931927341521 0.3246197718344732 -0.27597090047851824 -0.9043557121856425
Ni 3.8041748027362186 1.2698474676388172 2.845817746806597 1.6713003585782573 0.9951177106615637 -0.6932033508444061
Ni 0.8123396935266648 7.69348570833113 11.104083091601842 0.9973286022699532 0.5598618271350615 -1.0031030428598855
Ni 4.092058956152766 6.959745946193686 8.310679587805208 -2.4346138359761875 1.3711554319566965 0.8550501810822951
Ni 2.3111805401046 2.4577085700247037 6.007009028577777 0.35340841393139133 -0.2520591268579272 -0.730911149807825
Ni 5.502600916015808 2.896985141024691 1.7796623191323315 -0.3646585329239139 -0.2794256917963381 0.2371932654896883
Ni 2.954509786706248 6.002113889038409 3.1965428929582127 -1.3318399221865258 -0.946493521895957 -1.0658680419022482
Ni 8.95253274435729 9.023373884235989 7.062798278403967 1.2749169837472365 0.825013782621205 1.2082161399855773
Ni 6.839720442163481 6.987907209639282 12.286632506309374 -0.15823211630343717 0.24510532124791337 -0.437369330325079
P 4.914690277525001 2.9657109245823583 6.74160145636885 0.14299138809428275 -0.1333932028828864 -1.2896031250045015
P 2.6714807022027243 8.726683511773746 11.803350932581793 0.28716342676022805 -0.30279136310547206 1.5931599055210885
P 0.2312410615145903 8.988997014331684 9.28425323112077 0.5000291712481453 1.5258540811855787 -0.09738207489560004
P 6.025485314823172 6.919982838608524 7.955930605268479 3.1439835121678112 -1.7334467502000146 -0.6115661974878887
P 3.0862303223791474 5.582676937454593 9.655695822968033 0.15473824421756577 -1.01067442744924 -0.9739876135511677
P 5.203040368457193 9.339903876114402 1.3103663258743554 -0.43261047548385495 -0.478764348332098 0.970203206808071
P 4.548957283994454 5.802813776096328 12.701283347732481 0.8426649200440648 0.4162083799767477 -0.4909125536588577
P 7.140073083498693 3.379463438475301 9.492015701221998 -0.9871102669760549 -2.469533273561192 0.71749281951939
