# total energy = -340896.62371031 ev
CRYSTAL
PRIMVEC
9.01449786677803 0.00000000000000 0.00000000000000
0.00000000000000 9.01449786677803 0.00000000000000
0.00000000000000 0.00000000000000 13.19362882744498
PRIMCOORD
 96 1
Ni 6.1974672101735315 1.9439223550118705 11.195624904978233 0.36543834851273194 0.2749213761680813 0.9873673772921835
Ni 4.490508957785416 0.2992047024094178 5.992440571664574 -0.07706753170796404 0.45937205984841534 -0.4259752295555244
Ni 2.577362098127047 1.700053147103762 4.739389324998449 0.9889889720560066 -1.0922658151694866 0.32838875195860223
Ni 3.4573213114918464 4.471461324018002 4.98758729473103 0.3755764653879983 -0.37492006275092205 -0.3127991250504613
Ni 5.176187715421255 4.3670103384699575 3.034072612652475 0.45810347754863684 0.6063496862839557 -0.22658129430179688
Ni 7.056990557115839 6.001753449300691 2.6225238304561356 0.9738426033328711 -0.008165309419611744 -0.2560553925015138
Ni 5.244499579448448 4.52672920978611 11.58864979572703 -0.7831145712842578 -0.23166436525165912 -0.27255956080412413
Ni 5.639623045275831 7.874055619607357 12.109482235720687 -0.22548060503845038 0.05243584920221292 1.3126607781549136
Ni 1.9530900992340472 6.300187412151608 0.47366137611380665 0.3238342998187003 0.350206619164642 -1.430078688655466
Ni 2.8750839156549035 1.7175863452474531 0.5324737624012454 -0.28826360180294225 -1.165332967468806 -0.676427416937648
Ni 0.6829816199059716 8.803558512662503 4.406658803968876 -0.22204972498003048 0.07746219604322142 0.81609822529913
Ni 8.55666043350695 2.481213465016195 1.3885103016098868 -0.24173717610662884 -0.3828326327297794 0.2086373082288665
Ni 6.769058484155616 0.7386434392262022 4.935670097780408 -0.4791572128951425 -0.6801855984284996 -0.6756967094192105
Ni 0.6714439642226248 7.195254923762589 2.270439182735301 0.059359572905239716 0.7812358662043062 0.31930118783503725
Ni 7.636830096548554 3.7312268259371155 3.917742193295394 -0.06420455970236685 0.30318397055820046 -1.144372563167055
Ni 7.60098845345379 3.8109871021198294 12.53529285482352 0.5811865567547668 -0.10729753423709909 0.3704034058274911
Ni 7.943539368343382 8.866110112620895 7.073064308072145 0.19100776807256137 -0.5672923152711778 -0.2753875171712225
Ni 6.74742368953101 0.712458126132221 0.4010820488469104 0.1890413883748099 -0.47050956452247356 -0.6465882220890283
Ni 1.7765772185905448 6.44101189616227 9.287061015981177 0.9916960865745245 0.44493325871526596 -0.8617707876355805
Ni 0.10597533711930335 4.861870207516774 1.4598879963253415 -0.013304173308073862 -0.22403050285548515 0.764034157614039
Ni 6.355076689013785 1.9627175828419967 7.042151792352687 0.12700401152709095 -0.2866998568602482 0.6254259861891165
Ni 3.5366128337910263 4.177183044634562 0.3214506799821687 -0.20040463590642904 0.6898701727061152 0.44530221201891057
Ni 6.090320889795171 5.7806728917305 4.912014252757954 -1.1201481434020515 -0.30113634400055234 -0.24646337793770456
Ni 5.569102629297376 3.1434004414888164 9.001670129939571 -0.7978585623626517 -1.1761105177002842 0.33445449853670783
P 0.16890374308407338 5.572960834338765 12.614309434941013 0.34940314942674017 -0.27967714568551194 -1.3280984528662225
P 4.0413706213786 6.156198839427096 12.485355241581049 -0.5730652131992131 -0.310467134483175 1.307369190738671
P 2.3004998284164144 8.484634596402532 1.2598580939248925 0.4670879404354342 -0.26559367100925224 0.17734801119728166
P 6.382606965173594 7.794854242285778 5.87041311838359 -0.7587628819127707 -0.6623061470449174 0.7816197319062861
P 4.667968360693744 1.0113635472159985 12.53524057073651 0.6039737298526114 -0.21520159170994552 -0.0629568033381948
P 3.8716907300373684 6.198783326846528 8.235621716072425 -0.07583880150718553 -0.6136009685297303 -0.3247910073050148
P 4.733494744913019 0.9526431088057142 3.8164282529679174 -0.03932219463839034 0.8323475972784568 -0.20072088159526721
P 0.2722567628049193 5.623703442231226 3.624277021609929 -0.5906207055844731 -1.0662686197747766 0.8105952932030299
Ni 1.2132161810635707 1.0316732106698472 2.492843970026472 0.7722087230050314 0.9915906713449116 -0.7609444629451217
Ni 1.9615186546398833 6.618976110945174 4.644895753676379 -0.47357791903515223 -0.7191573517060066 -0.3341963597793148
Ni 5.965334878349272 5.55279540284908 9.196671745489349 -0.3055427005983641 1.385362576695014 0.10459659036616827
Ni 8.589428132865466 2.2306194417789382 10.330664012986942 0.4728526108333534 0.8429659962242515 -0.04078103857210396
Ni 2.209895111428118 5.264295416529962 6.937698102455314 0.8005949874572083 -0.22008180262038224 1.0038874864343936
Ni 0.5474513504299049 0.1248057214906946 9.12375076875734 0.27670854997549116 -0.12613626421015695 0.5223077801406876
Ni 1.6324353994041088 1.2024618852355895 11.601117747579234 -0.6226666782764244 0.25837349911172924 -0.9785142977769277
Ni 4.011803068724972 6.694896211082019 1.545699704854512 0.7831726782157028 1.1125826723499679 0.44573235757779367
Ni 5.5011152871895534 8.139757941090796 7.92274742925936 0.5184981765866102 -1.0837554637056304 0.5611450647228594
Ni 5.179739427538795 2.718420959079477 5.123640405077192 -0.28772392724938833 0.32509825413278853 -1.430918410947942
Ni 0.8554298635093763 7.275222533393789 6.810696449310221 -0.744327423213731 1.1647740096415424 -0.08301577887159896
Ni 5.021462875864282 4.710886384530307 6.984891702579564 0.2599328731790491 -0.11991368033921286 0.09586563825107361
Ni 8.289795241812437 7.134172686939119 9.214113897205664 -0.4615950356416631 0.09714090541907142 -0.21111739433824286
Ni 4.582574023410874 0.24107561505220618 10.255090971013866 -0.39235342773602105 -0.01980417921012073 -0.01659904200926173
Ni 7.9358409872561255 7.279801898255997 4.486955442768324 0.8048319083566913 0.10086694812040693 0.11142775435538875
Ni 7.234783496441296 5.960187600128168 7.0836851893332735 -0.12804916496215366 2.6773959084075636 -1.2303942187445132
Ni 2.5367337567215893 5.020056614213684 2.590793699789823 -0.7919684221304618 -0.10770145454373709 0.31777960898418817
Ni 2.4081960331581507 5.0739452818244715 11.311636983903801 -0.5155609483351573 0.21703375982267786 0.6359538823036338
Ni 1.0871123718953994 3.3222751205455046 3.908164289425126 -0.47326450155979133 0.5693959918777419 -0.8825738404238607
Ni 3.782320999242226 2.643753874131306 2.652750342896038 -0.6922597559842142 -0.5859891203497327 0.12378550458979326
Ni 1.0122830259875444 3.3137564201620666 8.257615287707887 -0.050539403510448444 0.03303224786462053 -0.4084703879025417
Ni 3.714378729623204 2.6850943608598237 7.062510134094441 -0.38675253660947584 0.11091533349534446 -0.46314618217886694
Ni 3.8877635795438987 6.92241312005303 6.063211590680764 1.1118223971451755 -0.35845034723067304 -0.24184156289497705
Ni 0.8453786985066949 7.226192680075775 11.32172961559618 -0.20427440327448046 0.2997284079094322 0.39068246779150134
P 0.23777360452262572 5.562747408376399 7.943831438070815 -0.11358413857675922 -0.36503314265451325 0.6385388694219907
P 8.374828999184897 1.7797052493133523 8.033429235659291 0.6645008407033911 -0.2694858069748069 0.3615464696574935
P 1.7347679779784941 3.19994838593888 10.475978618331986 0.19716684569542173 -0.42067592882979815 -0.9032565655841926
P 3.9795762392320695 6.212972146321166 3.787138346845305 0.9121006462383839 0.20627857818870282 -0.09894170607323605
P 6.921241235344197 3.9628633603845613 10.454868467477029 1.1078014489112404 0.10709775952146718 -1.0222539047567232
P 6.312149650679462 7.708639585706724 10.090421337527783 0.3505580889667898 -0.5429825348812197 -0.5863873842294158
P 2.3784842485403583 8.557697100749378 5.660000317462882 0.3759485040154364 0.39131393072791315 0.8857087865084167
P 6.909792823188677 4.085992385291849 1.5969299970758026 -0.11110148136422157 -0.8192943636389245 0.5398072224770316
Ni 5.531449072152802 2.834113023334556 0.42453236332043104 -0.6071528989115414 0.032024118315080334 0.0021149894604737766
Ni 1.3524721424639496 1.008947661816251 6.99187072674555 -0.07023251106400162 0.7138215413153901 -0.5288334970743473
Ni 6.924026715152115 0.7095437390063315 9.281110546009634 -0.5551993886623858 -0.2482387246705725 -0.7209203571437004
Ni 2.702870950443041 1.635229893709787 9.054892626165877 -0.20490278088709873 -0.7678697293100454 1.1746293051690673
Ni 6.427913830916624 1.921557386068684 2.6128269352154323 -0.34661350249674494 0.19262087819595214 0.4537675691774443
Ni 4.077599887877055 6.613711644253186 10.403822972459823 0.2941830526111708 1.2464864963206854 -0.6912559973100482
Ni 7.975099125002025 7.239272716325901 0.20318046936765713 -0.8333269304725905 -0.2423069325671698 0.9737549287150713
Ni 7.576604237012307 4.062644836092796 8.133568586928606 1.0908537653133086 -2.274633883743708 0.5262323120060745
Ni 3.1209092695769867 8.33954625495127 12.283703631033532 0.22594957425506895 -0.3644196774402304 1.0547315656694547
Ni 0.02343859562643229 4.822927577192484 10.092822799731115 0.3503428876321902 -0.632975002180968 0.6327171205338911
Ni 8.416115398926854 2.3083063834767934 5.859448784757794 1.6125473089087645 -0.21758140479603177 -0.40264272547717106
Ni 3.6829812339242447 2.6664253359983405 11.468640688494565 0.10705842164309949 0.07460415776913604 -0.520257325369562
Ni 1.1452198244579865 3.3635795492829814 12.721943439648202 -0.6957315165828987 0.5601127668036031 -0.38474810458493736
Ni 3.021560489761245 8.354465248744487 7.914132273749886 -0.23641216434928963 0.0032483317339685996 0.781521515765525
Ni 5.614761060453056 7.8730189523649265 3.426490827702007 -1.0013762899767655 0.33423955431242436 2.130525608436163
Ni 3.0073716702866076 8.54952996577859 3.3529361317774513 0.5946627368643307 -0.5699364377622442 0.5211086176262637
Ni 3.4227687415767987 4.038377808122196 9.151971555445586 -0.5588680957632246 1.228765939112471 0.24043234125227625
Ni 7.395070281116345 6.086084075847852 11.350689591100766 -0.612052650206004 -0.06296708775083995 -0.139318824338702
Ni 0.513776792596706 -0.1640088708002563 0.10472142048085224 0.6754403704340304 0.7590611298794798 0.5937188848938227
Ni 4.549292497680022 0.3635799352647084 1.5886844359744996 0.21291613810987844 -0.5191579216577962 -0.2222137613617205
Ni 5.9636491672681045 5.687481013885011 0.3987364765296928 0.02613834895826466 0.2959817963828064 -0.16967686780526908
Ni 7.928503186079281 8.82205626206654 11.349977445777707 0.12585267153146712 0.01437606621601395 -0.06896932808086187
Ni 9.111493756152726 4.725616073870559 5.814735974417166 -0.23963992725796796 0.465355788235676 -0.35120652118406614
Ni 7.976929068047357 8.880470207552976 2.3998422980837244 -0.4188748710653173 -0.6562874516546632 -0.3588640377293239
P 8.419297516636224 1.4482421666688712 3.7273713252450555 0.16590788768114006 1.677766425918575 -0.21569087264153822
P 1.8008262175656238 3.2032296631236115 1.6119319242484145 -0.13711718870169287 -0.09415199799407656 0.9738343758027552
P 4.686637385555228 1.1582998607081127 8.214933443712644 0.09873138983464286 -0.2649426676888147 0.33374615961577364
P 8.496966429338558 1.6475346831525317 12.493310535854473 -0.059626453413381186 -0.3052555083752485 0.0019635514842740375
P 6.18741604517085 7.742867633702403 1.4734250676119125 0.775165234530194 -0.3036035745941223 -2.14601984741702
P 1.8916923549889681 3.2948710473543374 6.048381840415373 -0.9308848688244227 -0.6290270732768135 -0.1297275811058411
P 6.9216829457344495 3.8765675733256653 5.939626432186808 -1.2163130580610988 1.44503453863435 0.5319417036860259
P 2.4090253669520933 8.59234883013979 10.250526029348075 -0.780125920969579 -0.41338942247071386 -1.1434914461136823
