# total energy = -381172.3448349691 ev
CRYSTAL
PRIMVEC
9.19583010302775 0.00000000000000 0.00000000000000
0.00000000000000 9.19583010302775 0.00000000000000
0.00000000000000 0.00000000000000 13.45902688452880
PRIMCOORD
 96 1
Ni 4.198117029127816 4.373987275121607 1.1866556329269327 1.1516775814689004 1.221402042548232 0.632949291149355
Ni 6.038046254182755 0.5811920798026554 13.368742954543308 -0.1970172074914349 0.5823648933335841 0.2810308314999289
Ni 8.334392102474808 1.3933613355934753 12.573584144819904 -1.8019206267016967 0.6482797508588385 -1.7996464859555392
Ni 2.043157064869986 8.771304370587593 4.30344330554816 0.5004346342166801 -0.5298704229792939 0.9460651761092869
Ni 6.911870790408324 8.313581939510941 11.569432629544798 -0.3724384339796489 -0.18216111631520884 -0.29924709739763944
Ni 1.6216110284463847 1.8552678692545541 4.72615077528256 -0.034592650373204935 0.7816945510082794 -1.5614540897773752
Ni 0.33739959532733027 2.586262776158525 10.827436751384232 -1.5199400296939887 0.8918634932559026 -0.3586586065867371
Ni 8.15335380010201 1.9735446328609403 4.208502799367052 -0.031986837319241686 -0.20262606903778008 -0.10766623043042749
Ni 5.563826504344647 1.948026205010861 3.9841944391903747 0.5097386852264253 -0.22162086497272798 1.0385662687635016
Ni 5.388866645506588 1.6808505643779925 7.365559930510183 -1.4771465886775463 -1.572624504571898 1.1389611623434965
Ni 1.1662335339829841 0.9410000733228051 13.279348453348284 1.4251632536317198 -0.5715328357150866 0.8270074160124661
Ni 5.932818373141868 5.508872225125881 12.796236336039536 -1.69594721059266 0.432238693966733 -0.26869056476702113
Ni 5.507465263157931 9.461405422122445 2.3370925703834784 1.6999445046775108 -0.4234938578945674 -0.9694478166992853
Ni 6.244419067808515 3.698921405401126 8.603709451881112 -1.0831659097507473 -0.48665943480945867 -1.231119784056628
Ni 3.3078779366094935 5.247986532114437 9.370227849518365 0.46536504420705654 -2.6651060352966165 -1.5356116747929747
Ni 1.4252708651933945 7.736847078439433 0.4233171532538448 0.09334107205700698 0.11721865000555297 0.05413997637751321
Ni -0.27382606478464394 8.195268392585133 4.529770150378204 -0.4122990176200125 0.21115416111344926 -1.3173000766991378
Ni 0.12124517748386597 0.9726429238569037 6.264866915076059 -1.431662231092502 0.3808605966050731 0.7134435891506808
Ni 7.17569914897365 5.29635659715639 5.208952993125164 1.1405753009081518 0.020116568244216967 -0.621878120936858
Ni 8.177023866151057 8.454737927798769 0.05602651297996191 0.6752110280320436 0.14007447155780395 -2.014331800150699
Ni 3.710618500977811 -0.17948512671013928 0.9236162765632411 -0.8537209207479103 0.3285661580767309 -1.3361521764086344
Ni 6.312330271294221 3.2449232854161076 6.108783336183175 1.4475961287139392 0.21790433535308926 -0.7484589288836013
Ni 4.868787292177185 5.219635788668746 6.183305421752277 0.800918175124582 0.04037120472819499 0.8544675691059478
Ni 6.773354005289135 0.6213291183746346 5.857798793177562 0.3680048236883275 -0.19923632662994073 -0.9504645907285629
P 8.48230702570671 1.3805699362639403 1.2948914699136786 0.6795016849875974 -1.30800682432267 0.2294737853582435
Ni 8.249652530352833 4.28419919240875 12.634687675463299 0.10833703124520698 -1.104947267291897 0.02725009396520468
P 4.841383719206649 7.425595825307311 12.181078539081184 0.72967753451104 0.3930535391268392 0.08237197464001297
Ni 2.104447270859456 1.0943129486801115 10.962538205294944 0.7480452383849504 0.4726476939113989 0.035246481907119945
P 8.98970532966485 6.251637794245384 0.7161601941804578 1.2824492875685398 0.680412369727325 0.05062759234888055
P 3.5892059593905676 2.1459112676796397 5.5376487354939 1.3634904592122712 0.46611323522699083 0.05993318602052259
P 3.2438933524722486 4.45511288611022 -0.6331034589221091 -0.34617255830458443 -1.506677765367444 0.26570731376898116
Ni 3.985435876220919 7.740718522808761 2.767553044269374 0.37420426763082004 1.1152872157653246 0.691147753866958
Ni 8.34095792499191 4.3403029503595025 9.144519884037623 2.1421817046178524 0.25602531059452677 0.0689022222883523
Ni 1.143961234072032 3.3495810250059295 12.87477056217476 1.4258055152014089 -0.3375763319951412 -0.3457169588244046
Ni 0.5670764809738728 8.582035800493777 8.017218734915497 1.0922514169917836 -0.4879444721694694 -0.5415722847972543
Ni 1.512989886188677 4.1044850895352 3.317084801461205 0.10142513461672209 -0.431175028588909 -0.6839548356629447
Ni 5.462378109374529 3.136164205710562 12.231105692663167 -0.446744858002708 -0.04365038970009901 0.7157737799457543
Ni 1.340448530602716 7.145693156153898 2.6921555156979915 0.30010661718445736 -0.30170224380635136 0.47460353208618905
Ni 8.655179431167484 5.500283320040484 3.015750331245668 0.678092977565529 0.20604152247723223 0.3711125160793738
Ni 1.340466922262428 2.0318278024875362 8.620802660417231 -0.25584661892481747 -0.48160927398006087 -0.6274142202637387
Ni 1.1005569171522571 5.778687068927389 4.943271674843878 -0.7353576156149529 1.3486395102423676 -1.6778733838100843
Ni 3.669108525008348 6.5214710297066025 0.3653668726680318 -0.17302238723873428 0.9837570342331057 0.04876765632200633
Ni 1.561635826126306 4.469228484939003 8.310505014841164 -0.8819590896579972 0.8137698342762695 2.4712744246220146
Ni 7.062397329319297 5.717829066941144 7.633407786305517 0.5011607137494273 0.39388966187488933 -1.4650318076918833
Ni 6.920156233108475 1.4883910413241859 10.290919852187434 0.25176833509038576 -0.8722223219862074 0.13701717278871883
Ni 3.453788168932813 7.066186011219921 5.3372844770959755 -0.5616723979812391 -0.3823068421332964 -2.5778152831987473
Ni 4.567007743796623 8.114685335558015 7.277066620641036 0.6423829257584291 0.3341549650184181 1.5131780283798069
Ni 2.486313301454916 0.6150042265997572 6.76555686115433 0.2605283406712029 -0.10992520166793326 -0.661791412192028
Ni -0.2834449028138991 3.4630391737678323 1.4979225189698102 1.3160872873379594 0.5628790166948306 0.9553684557880836
Ni 1.900253868909541 6.974558762535888 9.27806080562179 -0.7766263924567528 0.7216060703568153 0.8831325411408081
Ni 1.650872159047809 5.042478126495131 0.9533850169727103 -0.15717513579383252 1.545173607449797 0.5988520923553299
Ni 8.008602242340531 7.85060868958658 6.5899431788135185 0.10363962576953764 -2.202312608471478 -0.6820910429813285
Ni 6.05707242615458 7.49254146665815 0.9100211617043014 -0.9696131386325558 0.5826747112645191 -1.6945313040817396
Ni 3.8626899393045724 3.5140576378082793 3.52909098045668 0.11834479319019618 -0.03176135157199691 0.4249529589385972
Ni 4.840123890516392 2.311546555043831 1.4226730432591073 0.2758713987861765 -0.861514191540084 -0.1719615500743877
Ni 3.225124663736389 5.781234313797468 2.994902465379392 -1.2095312592525749 -1.8735991261836054 -0.005791152760480349
P 5.135953736980197 5.945756905749097 8.417194113246149 -1.0590178517496343 -0.1385955730194323 -1.1434963312096889
Ni 2.6946540226698352 8.223720290159239 11.89378242272364 1.1558000882777062 -0.11208235722025213 0.612436515907984
P 9.102059978844046 3.853926313451915 4.675275766187864 -1.0686605170457208 0.2534506078888151 0.27924854278852557
Ni 2.963126275312383 9.253027917588101 8.969526000629097 -0.28915448904832786 -0.18452190323790157 0.3143854957009747
P 5.077413084117636 5.486627512704497 3.912633410834867 0.40318882778862813 -1.0244658248063776 1.2966983412883861
P 5.048786465776268 0.41274010975360637 9.214951664486827 1.3206641080753643 -0.28956458000255286 -0.5289497109372374
P 6.615939789816104 8.749491862169434 3.9177343376559266 1.2625404644597547 -0.026648198715147654 0.9727789379550473
Ni 2.7710989562618034 4.536698288591627 5.651997040585853 1.9593168773674001 -0.8193164751261116 -1.0558152856519365
Ni 7.242902273560453 5.322454362287391 1.0884460092320571 -1.0614632279663332 -0.9995605769242656 1.013803717106841
Ni 7.312468726420219 9.111669621043445 8.132630077938789 -1.2855122427645798 1.724077907390605 2.118028247300101
Ni 6.9450401486984985 2.7863088588434364 0.5830238891099476 -0.7229417584491034 0.01116810080167754 0.6189200667497986
Ni 0.9833008906598738 4.798761047824624 10.696547907130501 0.5285344777766898 0.09278185711942731 -0.5954358675849294
Ni 9.102473791187562 0.5637439122341003 9.789772873365326 -0.7648083167759022 -0.794440023599406 1.0278951622029007
Ni 4.812113392775368 2.5416813930171966 10.041725737254763 -2.1905156158365497 -0.04645777724190709 -0.5498640924924014
Ni 1.1757788053733922 0.3748799586539443 2.3076576385977776 -0.5047695141466081 0.8702281743743142 -0.7538479611096565
Ni 8.362641691792085 7.895217660217477 2.0866064413560546 -0.32042861657126104 0.2887945346057478 2.4710355691383317
Ni 2.9238692776576123 5.900899647712093 11.39886653821188 -0.17527673049054973 0.7236159016979925 1.8354629814335164
Ni 3.361121791475065 3.072234796552453 7.653771951521373 0.9044313026185842 -0.12558373414079663 -0.28142678138676697
Ni 0.17275929675354534 6.468466266417284 12.022867964742636 1.166442912703533 1.1752677100840145 1.4656570999807081
Ni 2.8154044645074547 6.399607892456421 7.247793535460799 -0.6468808136287827 -0.7929909498577052 1.6000897998717023
Ni 8.865653584908967 7.207737420191551 9.875964467021547 -0.41083168904586664 0.42222039049878257 -0.740812210971621
Ni 6.477459788016339 6.673330963946679 2.917567375457375 0.23252877013448342 0.06778842039888326 1.6065957193110203
Ni 6.512633837215097 7.184352424868037 9.470537800752325 0.6407073378282191 1.0255395174865305 -0.06792674574896043
Ni 3.468041705209434 1.6988468034059585 12.918108669119574 -0.05715305217222415 0.7515457953390411 0.07983172471666251
Ni 5.7963982372298215 7.334272039008521 5.389586678984304 1.7156950826435484 -0.6218745213924323 -0.21095078685339155
Ni 7.461174491019728 5.708182641422321 11.138555584566431 -0.24361742384847718 0.8166787803929484 -1.7766911627109465
Ni 2.3685331126607476 2.8905343944300315 1.4192135720673236 0.07737966363174416 -1.7993929751838365 0.547532101925115
Ni 4.402052947841766 -0.09751717770672719 5.050661495483883 -0.1380013910788591 2.4351591669566965 -0.5171894850775157
Ni 3.542767018618351 1.1587665201400061 2.956571487791109 -2.1965525660592493 -0.30057430084949527 0.890018469627364
Ni 4.205786351227624 7.300606105906129 9.967862992686328 0.28472653518396124 2.1062235413556887 0.10911633261339272
Ni 6.7616661055423055 3.9476134280236663 3.098146805920364 -0.813443304174786 -0.15000587173890292 0.10455956648064574
Ni 0.26469460573775067 5.81997634498031 7.041264392727489 -1.1736242609433207 0.15353162550397428 1.3411498867335419
P 6.997401203897906 3.592626808096957 10.694623219941663 0.023150984195166584 0.1563806649169952 0.9163735625821251
Ni 1.1665369963682284 3.4226970681900672 6.557277751999446 -3.229779681998025 -2.335697069603616 -1.828486293005367
P 2.5397042895981814 3.0960795833687613 10.130259508775277 -0.18142809480392624 0.5525442104277258 -0.9443129693048704
Ni 5.273229085068841 5.106058094118716 10.449722637968703 0.771888106440819 -0.49139463550159895 0.8705413347393588
P 0.6878866957055554 8.628585091224265 11.467333169820883 -1.6866971527493015 -0.10991414592433973 0.5068911884753011
P 8.14894899760104 2.853272891853987 7.529733080927289 0.13163919630625717 -0.4072406292604987 -0.8103075867592819
P 1.1729924689270592 7.572462423935642 6.185512420917689 0.42924567277668013 1.4582201840866886 -0.4536179309734575
Ni 4.778327913884849 0.4818348165417658 11.417130375888654 -0.1350847316526964 -1.013267384987397 -0.675571753805572
