# total energy = -340874.52660522383 ev
CRYSTAL
PRIMVEC
9.28075007452410 0.00000000000000 0.00000000000000
0.00000000000000 9.28075007452410 0.00000000000000
0.00000000000000 0.00000000000000 13.58331584665823
PRIMCOORD
 96 1
Ni 7.394094252487075 7.2501590992238265 3.4637318530156005 1.0431271486613067 -0.25833930343968414 -0.8543469843676834
Ni 6.375949563032911 0.659087317379249 0.9197279031194678 0.20437467629777062 1.98073956601755 1.4163029750276124
Ni 7.8595145891302245 7.409574543649825 12.835336781743036 0.47711292877160405 -1.0386999661278884 2.0328949078648666
Ni 4.22622157568196 1.6452635350473144 5.3618642736714275 -0.4622979752459587 0.6066690172965874 0.2800900648532144
Ni 2.6951669513353695 0.2525913911805945 2.310889140870303 -0.1110469739772023 0.4106141737184219 -0.10159945541105726
Ni 9.099339275414998 1.630173035388662 8.076177412458087 0.3070935900252518 1.2598354068237658 -1.269423307622517
Ni 5.179076188199702 5.526816613605637 10.93785679781907 0.44787537206272543 -0.5966008344273079 -1.0620910913583193
Ni 1.174961523852841 8.167941757122843 7.66617893117261 -0.17088682895297022 0.853768229046078 -1.3957202657802543
Ni 7.78946348739375 2.56419700595843 0.3974128560781605 0.30474025930172677 2.028108542219817 1.5106364929048757
Ni 2.574461515566345 4.9178416344532385 2.3396037816721913 0.0914633954183199 -0.8978163684052279 0.8770433975239347
Ni 5.279150516501824 5.358361718584603 7.9430747507087265 -0.2490861602725323 0.058727081527563375 0.03489912587003022
Ni 0.539973530251958 8.099774647656176 2.7095994458121044 -1.162937727763752 1.3929108213559174 -1.0258740180078139
Ni 5.991977089246054 8.26245691611652 4.910504273426098 -1.0926201131851119 1.126525507683305 1.2981391874999706
Ni 0.9879729708869555 4.158722680222318 8.499013027278528 0.6541310674332929 0.479914145665825 1.1179153974167908
Ni 0.5464969694955415 0.8898355351301974 3.625916673270714 0.9352757988032667 1.0428150167375265 -0.17548858939103967
Ni 0.9278095803044337 0.013229709264089232 9.81484241648737 -0.7838697042827274 -1.021597245009331 0.7294373934757761
Ni 9.058763835988412 6.269035321908879 6.6532166125729315 0.7471494660435584 -0.6983180463631522 -0.1479469323273452
Ni 0.18352590510448136 0.47835770227916613 12.282373913654515 1.7371555665101694 0.3956822349989379 -0.9794722908148228
Ni 3.315232426854366 1.7174956130567194 7.6652146612374725 1.1050822502078645 -1.8103281340391015 1.4318026133251085
Ni 8.288740000392844 8.589974587059842 5.979226266687001 -0.05155010416314993 0.1567874134371106 0.2693827057380393
Ni 2.691733073799268 3.6908986293038955 10.998492578581558 -0.10694657865558355 1.1988755793109418 -0.38934446570636816
Ni 3.998295634035683 3.034304121400855 3.2055135430508477 -0.7865099701190519 -0.6743018859542129 -0.4269288517180454
Ni 4.041219103236955 6.137647742777549 0.17198065198310147 -0.6764857809794091 1.4658576460272883 0.1661662835488493
Ni 5.201006600680266 6.178575850707843 4.103954189671514 0.8689395374698776 -1.2177477336250964 -2.5869856368441058
P 5.907652193859514 2.2006421823862325 10.747852929146482 -1.6985936470765715 0.720763776961178 0.2552462663366572
P 1.5278991693134159 2.0929019545035166 6.685219423134389 -0.8656842637573736 -0.2941905088103385 0.21765905211150258
P 8.334484817623776 4.014546227456532 4.523054302577681 -0.5666315417587273 -0.20737335391477832 0.3123494391075524
P 3.565283676733255 0.16112124629393218 9.764434950407415 -0.19705474559758968 0.5712847242600226 -0.3191744324491858
P 5.5002643875764825 7.430697530871899 7.005377459250338 0.1784499860122088 0.8127861302067615 0.9016370277028988
P 8.562772708523859 5.014036609214576 13.03624738793029 -0.13422161232145272 -0.9071062783475861 0.4585181964885522
P 3.9052189913071316 4.6269365226448365 4.762622945221362 -0.9495253667437453 -0.5623884502116572 0.12478694927111411
P 8.313668095154922 9.052434364421869 8.498252005770528 -0.2413404548888424 -1.567051638469811 -0.07241332076540433
Ni 3.2507404944263367 3.834193410810411 6.826512346844859 0.14228639160745818 0.7769943173191328 -0.8618453496272577
Ni 6.024283380335705 3.575056306585999 4.363898719154415 0.2549554745691157 0.0650036585648945 0.15513727942819733
Ni 3.635622481722755 8.650113847692111 7.474463692182031 0.4941680844816779 -0.43376798612706585 0.6940713552716563
Ni 6.673796675914297 3.6606341032357124 9.316035509443214 0.4706527749685571 -0.23716446913428188 -1.2611086171092345
Ni 0.45561708031508485 5.981127892381993 3.395462655297859 -0.6323381399279174 -1.949334312233391 1.1376149327282472
Ni 3.9089684143465506 6.831281724320001 5.765641868166503 -1.5617482239790266 0.1027471958622553 0.6435754034046336
Ni 4.308458302296548 3.3519006704898744 9.233448898549947 0.10474622857015507 -0.8123300165059494 -0.2853263735514892
Ni 2.4015982642489644 5.987967805203904 7.525034499463702 0.28683252578337054 0.5205355187316132 1.6012228850348809
Ni 7.871124807502288 2.1579043281869126 2.8476060559130234 -0.5981748637826472 0.6768483065251505 -0.13683976667059014
Ni 7.097537163869251 3.8096829498027227 6.582475023029196 0.390361851227289 -0.1644503292990071 0.8006847189575372
Ni 7.950549466837311 8.339310807674515 10.925984862294255 0.596628859451766 0.11813139162780946 -3.360397379018303
Ni 1.7724098113840543 2.1203080095416476 9.52251549376402 2.307385624253433 -0.38346872365188156 -0.9670111822333345
Ni 0.3524652552806084 3.972281691512188 1.3013560594316775 0.2100593853873737 0.366460362019343 0.12261051044508563
Ni 2.078943706356768 2.8941462334273185 4.727061895072495 -0.31713143387722803 0.16137271881494786 -0.38643886202379896
Ni 4.715753301078603 4.296495415420777 1.1994747690855587 1.0689289402157591 -0.38746550351610043 0.7507263847615394
Ni 1.442284249663312 5.8192994529306254 13.026603760503903 -2.599084476990169 0.03732341904080669 2.0663932967326284
Ni 1.6922890957917132 5.37152182222296 5.367026226875697 1.4323818828673462 0.838888226610452 -1.02986899809982
Ni 8.511310949232822 6.3155318798977165 1.3916920966564164 0.36068823542225625 1.1317975547155217 -1.9321436593867178
Ni 0.29388980103978124 3.8208848151704924 6.402373714710719 -0.5208599919505674 0.5322438083074769 -0.6567998725147075
Ni 1.487908417142977 8.434410653924338 0.31462206868274784 -0.04819687142020086 -0.6083618316179781 -0.006658128746465952
Ni 7.440080369220546 7.035383980465809 8.19478725485508 -0.8350660246508844 1.8099149577610831 -0.8410266131096935
Ni 6.336274356365791 5.2932850989004265 13.029686825686316 0.4063271163072938 0.6251084549486976 0.8505651487277481
Ni 2.5950833422831505 7.446057172283382 9.812791370715805 0.38876982414982075 -0.631097582652597 -1.5879066275419491
Ni 2.939306363402105 8.471849199817944 11.856291892449946 -0.5207226950417548 -0.18169960329775806 0.795147848299708
P 1.7400756780441125 2.540141301705523 2.544454066275865 0.43024171814136225 0.7142971954002278 0.5635511030611908
P 1.6798900136613566 6.630761837711855 1.56439015062206 -0.2559162958204883 0.03835263163626943 -0.26920967049528477
P 8.218744583156955 4.968811513989106 8.316099651680487 0.33451826189510775 -1.2583711635734136 -0.5559959164217521
P 0.9301167747786903 7.624284697157159 5.408590994262684 0.8140218023860755 -0.6498167563286551 -0.6661031521935045
P 7.721361343177765 0.21720667528358079 3.805243967031054 -0.13087557866735525 -1.0986395799063144 1.3097873132618603
P 3.5171722682274407 4.041748105992516 12.9882714783759 -0.39353407830768355 -0.07493917251105159 -0.28768510359165295
P 3.664049419271619 -0.0031053389826476725 0.2169523827309073 0.27240452328349857 0.3500497818718036 0.2076978271337326
P 0.24405031686579873 2.4339509590891013 10.791455749254897 -1.4851931131311067 -0.7316230882731851 1.2714799330412296
Ni 3.0307959978639727 5.913332012919228 11.656468062099119 1.002942091801989 0.804195560324273 -2.0729758350461527
Ni 4.735957494041018 8.138790921066368 2.5007018260908795 0.4879994937771209 -0.7054729122403786 -1.0360902964191834
Ni 3.098796053828884 2.2547303939548837 0.7751078304990191 0.8279304420473677 0.15661797773878186 -0.0032604159188266424
Ni 5.267837282132883 2.504920855085236 12.928844979351126 -0.08324075039821148 1.1013973451571097 0.38063588218877675
Ni 2.6225079588214766 7.26085052333623 3.543900828508449 0.10328378509201568 -0.06098399588254014 1.0316134915947524
Ni 5.585443111972 0.9098930922410705 3.487774564218371 0.955837167894386 1.3566389835080765 -0.6281690961518924
Ni 6.5125807659693695 1.123611133562974 6.074540498264077 -0.10370184646604075 0.031107005817449657 0.13315074785477715
Ni 0.26095798739355586 4.562732293469832 10.917400168454002 0.19855215607872256 1.0629434120562855 0.4666338836171512
Ni 7.4917648665139245 5.80479364052812 10.126525271614216 -0.47680696749541107 0.1464934877102703 1.9997819273609818
Ni 2.9957797277458322 1.6121962224496647 11.9160589950033 0.16279402464250672 -1.125686042501145 -0.16162854357949583
Ni 2.1221084750605765 0.24705449567238288 5.418616060518081 -0.5928899612346241 -0.35812047469508 0.8053247888327099
Ni 5.864784409158827 1.1142375759644259 8.727470755905395 -2.1989364929103936 -0.07326281324989319 -1.239683614466239
Ni 7.622577039139205 1.20661816243566 10.025301986450016 3.3648654420919857 0.8478066121460044 0.518835762431687
Ni 7.686428599810502 4.652245128160916 2.5972661747060997 -1.5643373248624413 -0.6006354095079979 0.7130334981964559
Ni 7.390530444449606 3.530982024372628 11.638008650155047 0.5681628908015892 0.551716829430424 0.2313486337834532
Ni 0.7944229276020863 1.5251427865344371 0.9471228212574816 -1.3838373982997394 -1.6033057357058387 0.6470960149633824
Ni 6.7566552127854225 6.10889597897527 5.941450829564852 0.38380810926917125 -0.33237370474827915 -0.6350308562687321
Ni 1.1994163003599438 2.9173481086712494 12.779631863507388 -0.21817430118502423 1.0793956440750379 -0.7547481043264227
Ni 5.35963318134797 7.722660648191424 9.2844271307609 -0.6765827115685896 0.36188148439940904 0.4394038442566045
Ni 5.614074226023011 8.093278122587874 0.1370274909656249 -0.8761111155176525 -2.4577833321141154 -1.1350667123850966
Ni 5.1716515881216445 0.42935348561396514 11.787438935551068 -0.5273602549629304 -1.7802909642470632 -0.965298313307286
Ni 8.569779674847526 1.9510549700122224 5.4000471357228585 0.4865905292447361 -0.5127589601099879 -0.4002163754238656
Ni 0.4229896752720599 6.561063404479087 9.16443260044935 -0.2232874540418735 -0.42440891350966914 1.0922344477109187
Ni 7.338047802647836 1.243657636075071 12.333827320270466 -1.034390283008941 -1.7752480025065167 -0.6264780816027147
P 3.4943137807371203 5.310046133576642 9.441083408182891 -0.5667644677921658 0.7279510387382366 -0.40825415812667754
P 5.321684194198998 2.6430276972872084 7.06932832394768 -0.45097457981333944 0.5415825692098994 0.8178131511077077
P 5.97326709704935 6.371782506239102 1.893201558128986 0.20591039621600665 -0.33205797328007325 -0.8688814305384327
P 0.8179542694744809 7.238947953105959 11.34651049841541 0.1522267906496217 0.6881246507699181 -0.4375050845719949
P 3.829126121257137 9.078903063700144 4.233648031910038 0.7873082976506312 -0.5364524470721858 0.04061674508009779
P 8.418169341253586 -0.005866362136675415 0.5154407954440355 0.09199458533144156 -0.2822539052737526 0.34500322058683164
P 6.032469001921762 7.422010748780572 11.447298516400034 0.1482130415045383 0.028259251956009392 0.9985100241725642
P 5.778324941249845 2.624661092844113 1.9442614609407995 1.3867769405440373 -0.5993616850018968 0.20625106738487706
