# total energy = -340856.5607582869 ev
CRYSTAL
PRIMVEC
9.38843963401246 0.00000000000000 0.00000000000000

0.00000000000000 9.38843963401246 0.00000000000000

0.00000000000000 0.00000000000000 13.74093040239495

PRIMCOORD
 96 1
Ni 6.965076924273625 1.4546448589214875 5.902746798279413 -1.1393589120025476 1.5688208145550917 0.649005059060637
Ni 5.381810440418457 1.2222340322621263 12.281959731731945 -0.6143126498847743 -1.2575340123840988 0.45389252479108283
Ni 8.75103982289654 8.602608590035118 9.360129874879926 0.7741529912155958 0.6468108796227957 1.2951199410576728
Ni 7.515971793460374 3.9487120507833042 5.43960849221256 0.7239516877708564 -0.010319379648137068 1.0084280546172244
Ni 8.904137110326724 6.174138426889478 6.158190284241679 2.3792045059679476 1.4781680879635253 -0.6275342907813709
Ni 2.3676424618357634 8.016891997718512 7.66906063129476 0.8314420547450518 -0.04402808475449192 -0.6944907021972619
Ni 4.565241502445336 4.819611889741185 2.6672379023774537 -1.941755471444869 -1.9899716261387792 -1.2299733291570107
Ni 4.689272180328463 1.5538618904761685 4.945580341594115 0.27833940071069485 -1.2973568008079917 1.7749793222261625
Ni 0.27040302590163295 1.2156996781779041 11.117676782832273 -0.5135994537334123 0.16347742386277653 -0.3672617748747159
Ni 2.0416382790476533 1.4221702457356773 1.2392778058318052 1.7629460452107122 -0.1804472189478957 -2.6216451358995045
Ni 6.5135117479188684 1.1758739166473444 1.5712614859133647 0.23728042588685586 -0.819633492145898 0.3599423583951672
Ni 0.8603669483729827 7.109630731507483 0.30269362566783 -1.6429565173282414 1.208915222935131 2.015461285769452
Ni 2.3016511186489867 1.5522001366357845 12.59938945247247 0.6229325303433014 0.3323035136319761 0.671398853374805
Ni 2.40115919183673 8.096186760068138 1.9956912547830237 -0.008577714366682001 0.0846376307457381 0.31949119235865625
Ni 4.591979778927899 4.865896897837757 6.884467780355334 3.0132115489578557 -2.543820414310541 2.25224677429776
Ni 1.2096159692029391 3.545046694166625 11.983259009500925 -0.4316625097482888 -0.4087575801256574 -0.8139420981880756
Ni 7.426950607502626 8.634116193923981 11.67351184902925 1.9732365727722858 -0.46935642475463685 2.387639781219494
Ni 5.111789524015714 2.4183212597475885 9.796252945490817 1.1957555456247213 -0.4010375857735803 -0.5718274841373701
Ni 6.7820117370778705 7.626210853312291 1.7097428502999903 -1.378684136233574 0.09600627759399595 1.221867412220425
Ni 9.113433598257128 3.4958512697394366 3.086171678602136 0.4306476953305292 2.562500507218548 0.24171840705355144
Ni 5.331469626338574 7.181123700403101 3.4172324750536966 -1.091712770879494 -0.2822816731878945 0.2672764580283139
Ni 7.610597877964502 7.849364678352338 7.56097434068352 -0.6162080671352743 -1.4219542597761188 -0.8100206516464823
Ni 6.744016721303665 3.632753498555708 7.942216347738768 -0.36115694752855865 -0.5098181323141091 -0.7299539281008783
Ni 2.3340412358768114 6.346510181180162 12.506445776376232 3.748932975670131 0.8232772595460724 -1.0091793309609522
P 4.422612325365594 9.283561515441303 8.587270695972771 -1.543558183333561 -0.656450973815721 0.445183169942543
P 6.277317380029707 0.7741669885679765 3.82404577552733 1.0660220509816092 -0.09019404178759305 -1.9068424616177673
P 4.907375024768924 2.7860852226601516 7.147715876303539 -0.42803699718055965 -2.059186494571544 -0.22283519699580331
P 7.9501120255905375 7.603443886855052 13.853606143676133 1.7470329735248817 -0.8739215640655015 -3.030914622664574
P 6.419702457675268 5.347918172826443 2.988254007112478 3.989002277156033 -0.48831573946595896 -1.2005866484647776
P 4.106212516468517 3.9885565891934167 10.853012910165821 -0.7139662944233705 0.7951082533110242 -1.2801869738969243
P 4.311453198415611 6.334032944717617 0.01861539838821173 -1.7432318546112364 -1.0512124967726024 0.03831020843410821
P 6.731023120653432 7.489740492725724 9.954741075040484 -0.09467958836277242 -2.001390666608998 -1.1138581966282817
Ni 3.1270827437708224 3.276978573237329 8.456498179486367 0.1934562296130539 0.6225900594022181 0.24283529426681405
Ni 2.051796570885481 5.157135688134669 10.166735800562563 0.6294052825518386 -0.6584692897973305 0.5858649360670426
Ni 8.472757079490759 3.433202211112981 12.983777525696716 -2.512615963683279 -0.10035812680478846 -1.4718981957944135
Ni 2.2884415838839 9.040635636232619 4.970067270218351 -2.183657969484768 -3.3807489460914613 -1.7539032182821535
Ni 0.3399732423310895 5.678128376634282 12.53644184146113 -3.5403499177179674 -2.0226876283145616 -1.5749883768183843
Ni 4.241509322083062 6.518506397879798 10.259157479407243 1.9366222639833617 -1.7740879207601445 0.8324666393548243
Ni 7.140105607020967 6.279223233304272 11.767801827389391 0.5334368001743136 -0.6232775723875459 0.28120952316963826
Ni 3.7088092491825506 2.35263034663365 3.0451413802482916 0.2614145999308982 -0.08849351415671856 -1.3366913367415558
Ni 2.4033279214250274 3.165331247418984 6.099503147200772 -0.19523646144192827 -1.3749498660021224 -0.29506982609149823
Ni 6.272444779785869 8.477901944488105 5.028163874397337 1.4589912579247581 0.2640332685006679 0.5904548694305701
Ni 0.8326222311464124 6.742110868029101 8.894270798965936 -0.7548720314987968 0.44004662004692596 -0.5524349385433712
Ni 1.9092143360046203 6.8657378430018525 5.396737120818607 -1.0110837470725167 -1.090393023626806 -1.1763951388202385
Ni 6.281748723604064 2.9557531062952953 3.8606653848743235 -0.03137157233274598 0.4404528543464092 -2.355081644777815
Ni 8.883351104662259 2.7878878030971785 7.141395578646214 0.6098489576864659 0.8089533867242327 0.8860875100040739
Ni 0.5065786169112427 1.0365588588085943 6.135600759296209 2.625653999948581 1.1226611396318924 0.5038742560258485
Ni 1.325572588878551 4.9300011646295205 7.020900587182797 0.5568317820594861 0.4379100333198974 1.5498360459224727
Ni 8.575278841846654 5.080300697006403 8.480875263365222 0.16409988793812383 -0.11900299559948536 0.35641557618883135
Ni 7.809980173491258 6.618906372846277 4.062616357523843 -0.6500862079399579 -0.004179071078354093 -0.6795595348087264
Ni 8.460664769059036 9.022046525475782 5.241917993533471 -0.27749479332221244 -1.6456916568712174 -0.464310120579981
Ni 2.24623115865019 4.231031823292844 3.7556434810060297 -0.45054417714414025 0.30485390206145563 -0.0815440794220789
Ni 7.03055190327271 3.4669348752287994 1.262674736598026 0.9999791525189229 0.04752375661257622 1.331530618476223
Ni 2.157472849006175 8.856462613143277 13.442312679741308 1.9642587947537076 0.08286074135097342 0.784406550622804
Ni 5.159248087084309 6.954599425483406 8.152659164165843 0.5040956280080351 0.9931423321027477 -0.7062149326127257
Ni 3.295999552223871 4.011961969555436 12.828889862801214 -0.4866998011290908 0.9038952276094562 0.3901736464758829
P 3.359925438659888 6.441859175547055 3.184048040956778 -2.6205537026075385 1.0327118668652537 0.8599766718496351
P 0.1584233493152114 7.762380783826021 3.8975873019821106 2.3930249567908075 0.3397442861807375 0.452411312259866
P 1.503774564270243 1.8542544095548565 8.258986061163027 -0.05516507520791789 -1.1935443969060155 -1.2948551174320604
P 3.320052734930447 6.223850215504356 6.786700323902095 -2.548424745851772 3.34525615250149 0.3381599724127531
P 0.1873059454426547 4.2628304688147685 5.269550988326705 1.920031449504216 -0.8992225047241353 -0.8529357058424537
P 0.27123390282182497 8.486182548370696 7.015116369436692 0.18657570044313676 -1.2099876300637031 1.2238679875902212
P 4.388935991888433 0.33320981031632874 0.3313621653683763 -0.7700695651748415 -0.09292043957982062 -0.026101325072742147
P 7.109978103779202 5.730450151506939 6.841843324927495 -3.016088613395335 -0.5721714977403501 2.415309479220621
Ni 6.1609758343232714 0.2626725845899255 7.446306753789178 -0.7989278841674305 -0.5606030761764603 1.5424793484470853
Ni 2.9463458896395616 1.8643188169949225 10.50705735400935 -0.7575511209928566 1.168044452862698 -1.1297764105204349
Ni 0.6619995431860314 3.5247958295694026 0.7717438322617443 1.3343675737043859 0.2682622189803509 0.6571953081809133
Ni 0.892135550887624 8.251434000207068 11.676740533468278 -0.8087474413610136 -0.5786779314003001 -0.7153840007065034
Ni 0.7132951615911517 3.2574975607017533 9.574859452908806 -0.22067675589190383 0.47119116397053046 0.09373985015732243
Ni 6.162205719933952 5.462766956608465 0.37865079767702253 0.03108823676437227 0.1824745337905696 -0.1103795155965325
Ni 4.285503550874246 8.051300629498217 5.628463530218284 -1.4854293975116288 -2.0464955293674367 0.5135919975342446
Ni 1.8773499714042619 -0.06332314860238575 9.600417602511502 -1.653195164337114 1.2550223017058386 -1.3610350556932431
Ni 4.9447222381985725 7.615742742961849 12.304481659911026 0.8499226300477427 1.1166635272875607 0.22357850291973108
Ni 0.09534242245905114 1.0820552379639674 13.55089374112875 -0.15999255063796963 -0.3074193487957867 0.5400252520251086
Ni 4.837008668646448 3.1462821031131125 0.5228684987668945 0.8035067617873646 -1.0635949295973555 -0.150887760123224
Ni 3.408651441098267 0.51866060005921 6.584063056304937 1.0239950558175461 2.4127987969836253 3.3067533684406016
Ni 1.0377981328590502 6.101819275293555 2.6620996092879494 -2.587297768767886 0.8876795370815422 2.152952312870795
Ni 8.410230070581393 1.83111190550657 4.403927452523038 1.470919633931228 -0.47627757735450227 -1.9699170214807495
Ni 3.4501577333487634 9.028768648355527 11.151246088095986 1.3271749126106887 0.07636330655208785 1.2387901561176924
Ni 4.528410653203378 9.324851873576947 2.4563284804935024 0.12113161190671397 0.20728053709065591 0.22343220714985393
Ni 1.1947540690372445 0.7592008767207664 2.960703630589275 -2.134859717035143 -0.8370789413158551 3.195955791470044
Ni 5.874393710155346 5.4905379614664085 5.123319466904842 -0.48025584527596005 1.7495585681602126 -0.7013686602640179
Ni 8.469283356773571 5.427597861206892 1.1015146570880578 0.3623921054872404 0.8872311366902139 0.23682199819319857
Ni 4.374074091722738 3.7669706335959923 4.918868352742925 -0.9373231682505986 0.414863178802763 -0.06797919625345067
Ni 6.6985860612267265 4.356508320901503 10.19483633965665 -0.7373031693770978 0.06288944043536912 1.0781864542582849
Ni 8.967452748177289 8.495092177718293 2.0082642533312853 0.4755327287686778 0.6375592791175407 -0.8834930098040203
Ni 6.12852938645679 0.11893932699250451 10.162064112929935 -2.218854314880243 1.4489441581014015 -1.441227506183434
Ni 2.4977756255734085 5.496602893561822 1.270067194077791 2.1483772919056032 -0.17354766361458498 -2.3870268302258437
P 8.779270861303516 1.8921273756119708 1.7871730685100655 -0.4445203395475635 -1.0958077668844741 -0.31146729361291525
P 7.684560006521257 1.0975367751548901 8.982625405699574 0.14128777513961474 1.0665290725250147 -0.933603039086534
P 8.76689689767851 4.533208145929006 10.724988390001906 0.34404779865209784 0.8169225209726383 0.8314266281260843
P 7.674392326243653 1.2439588819042093 12.382433875372657 0.36935156752420906 0.5516034437810113 0.034152477511992796
P 2.432873341400669 7.339084199637348 10.232637014727487 -2.258168539098833 -0.008706526635062425 0.4966065187198415
P 2.7854937509542523 3.366572454021424 1.416937129404434 0.36074299991959163 0.9588188762305292 -0.13872412817749658
P 6.1616611904269325 3.149014139087981 12.228823979130693 0.6825250451949535 1.8348965674070852 0.47221780546283193
P 2.5149470819240434 1.5310385933802724 4.62916832772533 -0.5073061645255327 3.433126688362229 -0.7094424384110879
