# total energy = -340869.070558266 ev
CRYSTAL
PRIMVEC
9.24940241041165 0.00000000000000 0.00000000000000

0.00000000000000 9.24940241041165 0.00000000000000

0.00000000000000 0.00000000000000 13.53743537156266

PRIMCOORD
 96 1
Ni 2.097986397564604 7.230840387786555 4.0161644169652755 0.8310466190788462 -0.6438677378340718 0.24311862983518773
Ni 2.440177280206212 0.32286888151072035 2.9192667144696682 -1.061105330406282 0.22552739911598582 -1.345932909944482
Ni 8.614643446279661 2.7331243457004546 1.5389081333442705 0.45213414733907936 0.8045246615289176 0.34732389830020827
Ni 5.847851276684314 6.98357611960464 6.523717117390599 0.22406007054183993 0.1087275818154063 -0.20836065752871213
Ni 0.42664439902542595 5.791069196769274 8.342809991116427 0.10652646039902945 3.3602369421810385 0.9665689524895935
Ni 7.1308913479491345 8.544699467078239 4.851356759672623 -1.282515879140417 -0.6426539200316287 -0.6580036630148216
Ni 3.247992317433753 7.004831245788834 7.373285805889109 -0.30434739473868233 0.45466668395294596 0.9627858312980774
Ni 3.9454804855903385 2.879153907143468 10.147823424860716 -0.3259821993996386 -0.42992932910726606 1.545777559582383
Ni 1.3015481250048426 0.7097593500140998 12.578470121072066 -0.4741906129184866 1.0097352034644222 0.8956252742911801
Ni 2.2179048966847374 4.011613711098163 12.178425152804039 -0.065442545874526 -0.7013704600362307 0.7686274334116763
Ni 0.7098573936770906 0.4516862304575778 10.088177730034175 1.3595684984500453 -0.7683302138862316 0.3356536610511316
Ni 1.1687082110547187 2.5885191921914568 4.8872444400880575 0.20967114881001955 -1.0475558738566215 -0.6915321337895703
Ni 4.388563847090597 8.480083143526118 4.213715923309859 0.28488722913154163 -1.3534870681426558 0.6524963600433472
Ni 8.679592748309863 3.839269600484554 5.505051783379991 -0.7164597502691855 1.732223933536507 -0.4706568887336153
Ni 7.290055060472023 5.249812680648027 7.326568000474077 0.3848967143476597 -0.08543390139478835 -0.2999004147109222
Ni 8.792814680259696 8.265654253043893 12.000015284248049 -0.05736259707986895 0.05395228584673935 -0.8767194385256126
Ni 7.616512710024287 7.657746544893362 2.3293592678800854 -2.0814638179125056 -2.1501932620684197 1.9701011124670973
Ni 8.684975900372178 4.005055884960394 12.39058423999401 1.3566250995510054 -1.1390508938438255 1.2146374701308889
Ni 5.031406547233164 4.866064234061432 10.395856318362869 1.2437791246918515 1.2942100276488937 -0.1335793507517635
Ni 3.380323514264586 4.2672024412321115 0.9659335673053412 -0.5138905026112698 -0.7813122279681963 1.7225565856500722
Ni 8.867503602773777 8.52685737029438 0.8876780753149209 0.46881572175981834 2.58431091822542 -0.9738258911623228
Ni 1.0376904293318736 6.293968442095981 1.7104410713876645 0.3985348739563846 -0.01914212014608961 0.48747138918779276
Ni 4.829917570385267 3.589609737140888 12.608672193974261 0.862363941134889 0.8608984123329559 0.6296809048107284
Ni 8.050975628703107 1.4962387912585782 5.007402498724366 -0.15176759162501605 0.7895752393079369 -0.7031154677517956
P 2.462005869324879 8.207873237694608 5.878117170461476 -1.4092270420174375 1.057434052202282 -0.7895464429525305
P 7.2540378884262235 1.0671867728485807 10.870736349699245 0.16755879302100174 -0.7851778815711896 1.1958594181924371
P 2.8828721668153765 4.866156728083122 10.260143540099076 -0.5522374778205844 0.6070629103008964 0.17900277319188526
P 5.865258651566234 6.090823822259847 12.135958372625847 -1.6432262260498602 -0.18029115298600562 -0.4402849613099773
P 2.292168346699049 4.708269433059545 7.1285022273689 -0.010074610627182649 0.9587828807862713 0.18136124612173282
P 9.180050151463975 6.11457628702965 3.7625680080585138 -0.2710942891125073 2.6818367177877365 1.2923619186965614
P 5.328284608649201 9.05186268680482 6.204910573312471 0.5458531715607954 1.2915743897982594 -0.4836674420606702
P 7.025152182353966 4.055178395313807 9.181752041463056 -0.5028918375079211 0.7276813300166177 0.1382232772816781
Ni 3.7827372544280746 3.671494694542395 4.724997901822265 0.09629089871395029 -1.552447515403391 -0.0010207279550305003
Ni 5.829130486694407 2.1710936723077996 1.483418194912229 0.20256359123096082 0.20951662551002626 -1.3512985451317694
Ni 3.0329067193975345 7.5854994645518765 1.793967797674156 0.698221629994604 -0.8602422668061959 -0.9970498946872699
Ni 6.690323823838823 3.2495832146068087 11.217605579957896 0.3635354750630643 -0.6862901686643407 -0.41679124906341114
Ni 5.408060702356193 1.5459820761230652 3.785811755709026 -0.9262810515038241 0.12401664676399288 0.7282035210686749
Ni 4.671725045090116 8.223967197468541 13.271762760404826 -0.024411596075145054 -0.47572067640976773 -1.1041602526142273
Ni 0.7639478975609731 4.385409800950994 3.247996017194621 0.18954661014600258 -2.9701851659950007 -2.3786283217495034
Ni 7.02760327392873 5.916657579418959 4.245001101206037 1.760036070652769 -0.6478421491007875 2.6718317840562245
Ni 7.177693322923902 3.012345298376011 3.2551439551907677 0.36630840982251106 1.1799201212543615 1.5043172355550671
Ni 5.6896957489978375 6.082647350742516 0.9986487027768346 -1.298387556065351 -1.5538482524056594 1.4998342600830492
Ni 1.7889083746877532 2.3495053907442247 8.994109419662044 1.432706098975984 -1.2997127026346775 0.9540823899868085
Ni 5.022212641477251 1.1100300036950486 11.977028669977832 0.9201350865070864 -0.3742328068759103 -0.27293622741725254
Ni 0.36435522505900675 8.510717163509602 3.567696053522267 -1.8399328442794118 0.5682472229852794 -0.32458249083863455
Ni 1.3540199835091629 6.234328296910742 12.140547925982068 -0.0916243464762164 0.26315215144729515 -1.0011459191335146
Ni 0.18053538117441048 6.278771674332435 6.133879789356199 -0.08719767816343046 0.11069036196873194 -1.8910240065282726
Ni 9.150544558545098 8.82483611056852 6.004799757387745 1.587410918852453 0.3183704484906517 -2.58920424176198
Ni 3.47946785611331 0.3857305934713961 9.719701896308912 -0.5497419650922404 0.43496483464864444 0.6421417562819005
Ni 6.236353915985737 6.609400804262885 9.05227983484264 0.4660620702740812 -1.4921795717512687 0.27281692823056886
Ni 0.6952507377719216 4.438408875378943 10.256691663209633 0.5055416164259422 0.35093244158707304 0.6556086804200838
Ni 5.292517170461961 2.4492786919404357 6.208511365576834 -0.21796192806390202 -0.34346210135195687 0.2903775628221515
Ni 7.947817046313069 8.778505855104365 9.365373948141238 0.2005211068796353 -0.7149803375101815 -0.45887763671049997
Ni 8.706869235306028 6.236908880115873 0.03186419047195209 -0.20508610054249843 -0.9610747621442416 -0.2200897730401823
Ni 8.618629938614468 2.513469542992786 9.570302777655758 -1.466378808638081 -0.9243221280052404 0.4039514169862656
Ni 2.189472234417457 7.061261848421455 9.685073984468884 0.22070786624015537 -0.617111295675834 0.06159463288334553
P 5.661771803849849 6.769332217165794 3.108737018139262 -2.183381061674298 2.2423562546569253 -1.616366682654855
P 3.088014657519999 5.425347835009917 2.986845621536497 -0.25424764986881376 -0.3956290131634993 -0.18691302917789746
P 3.789914790511162 2.0043084523977157 2.220924826492892 -0.63235125255404 0.05894382552405978 0.45919311106838984
P 4.137886549508349 2.027293216787498 8.272144558545827 0.2911895172004856 0.9401817207453164 -0.17834354234133157
P 5.9164448431690735 4.637835235543169 5.597987001552714 -1.0952881469355782 -1.1219653991164482 0.785222618766196
P 0.008372558843312346 7.044982900604144 10.223064536684282 0.12845308526879168 0.11326763577760493 -0.05159252736531115
P 7.979727483795864 7.452631802395246 7.284385176942472 -0.3705720701948715 0.14135590937338882 0.8533105726833692
P 6.615912383389809 4.073797441879857 0.625503770836697 0.3259369479839999 -0.7754501127604645 -0.07399892008496933
Ni 7.92367610665217 1.883058039365257 13.107512801629243 -0.8845764726761862 -1.771359208975072 -1.2856569958725599
Ni 6.836593869738228 7.484579237486718 13.357807173961698 2.264146611059139 2.079762776060999 -0.6118791007426171
Ni 5.5547654701575375 8.697305353463358 8.49040825116729 0.2081372286639964 1.7349295053931282 -1.7053605334867596
Ni 7.723232312249362 5.583910336391825 11.230236563559782 -0.31936906495849515 1.7210478623150296 -1.9199905689639514
Ni 7.475311336513453 2.8738262514941657 7.288446589434847 -1.73680024005328 0.635884462518279 0.3591926247133362
Ni 3.9960192190413535 6.0076716967611965 5.142370700113559 1.3257595203204007 0.8460767739390913 -0.2862540275720812
Ni 5.2545853721671945 4.447880263199924 3.1163446514232045 0.14812613821768686 0.8376808365659122 -0.8320367509062574
Ni 0.45134400257732754 3.7420491342869666 7.952485219587726 -0.44316613951251416 -1.413208652373005 -2.6791149479811986
Ni 0.8362393750328695 8.309662908563645 7.863828774858347 1.4249750488803137 -0.6743612784372386 2.373246231501984
Ni 7.427741661158664 0.48069420553976533 7.149593639134704 -1.7799762612201213 -0.5105030741962757 0.5869761668533504
Ni 1.6519062297616127 2.2484371732443638 1.0529389937475662 0.5945724911433695 0.5793500177666602 0.30597284615724724
Ni 2.637476277871585 2.5594390717723514 6.654421344379918 0.5489294964932739 0.5627270644979986 0.819077362532112
Ni 6.208096992359667 1.7712420165451035 9.12941614917062 -0.7414891824339875 0.34304558263982854 -0.4194168596117164
Ni 4.47040255748126 5.175586228242392 7.620749861157872 0.7639529107541424 -1.7547563103110684 0.12203766866075111
Ni 7.437879005935807 0.6902560606007013 2.8255600961560567 0.5829670456939573 -0.1770965573081079 -1.0731704891009326
Ni 6.261771273145948 8.1157491920921 10.914841199001556 -0.8381222949787049 0.1595559773211833 1.2301203962578364
Ni 3.2410275176005516 0.4652162559502836 0.6282795164275918 -0.5832508954829632 0.9594372265408186 -0.8906489041225113
Ni 1.9386746946070126 4.988896294864778 5.019410072620066 -0.9317765274007567 -0.07813325396831705 1.0716895336800316
Ni 3.1608999466111407 1.1595328041031436 4.749568013743802 0.8326332468396758 0.6032900735220255 2.0685530233881084
Ni 3.485017497414666 0.3059739235089591 7.350245545086313 -0.9783034673177021 -1.3587760844557375 -1.4427735105143151
Ni 7.9098852480183 5.178666279164644 2.16566427323464 -0.4322029556327911 -0.5189722880095514 -1.0905501180299604
Ni 2.646170715910376 8.348704635118684 11.693650111027344 1.0257454628497495 -0.7668644279739825 0.1955766183901664
Ni 3.8175705029962526 5.943212613045947 13.011018413501919 -0.20032801703222272 0.8090055801184068 -1.164825174594452
Ni 5.071650696070163 8.939621191484898 1.9956075397774065 1.1020180094602439 0.08791167351131957 0.23747428706521678
P 0.7458181443696602 4.330163121795995 0.5993103888345137 0.47158685674705236 0.006469409774427568 0.48744233572207024
P 3.2761937446468106 2.176994790891575 12.601334643233653 -1.217263080679194 -1.520669965881478 0.6369987786283804
P 0.27498102672131985 1.4862401875139686 3.1656208414781606 0.29749720458606826 -0.02475766656065414 -0.25436514928328446
P -0.06535165102455079 1.809858270600372 6.865604619641066 2.2941351870014297 -0.46748851830796256 -0.38925344865445866
P 6.487669422317642 0.31596605267205047 0.303104758956158 -0.05596880205613587 0.035617234982977364 0.29010759699021654
P 1.393459434357466 7.8995814140021166 0.04403270396539191 1.853039813975015 -0.3673373653076577 -0.17163116331816247
P 4.340966423529301 7.666968198855781 9.795891071854793 -0.8233554210821755 -0.9068987903224703 0.8093858462759608
P 0.684054336446436 2.2941107211545235 11.257933898354633 0.24236169706450514 1.145006854316944 0.30050565239508886
