# total energy = -381170.1110573656 ev
CRYSTAL
PRIMVEC
9.23317583995305 0.00000000000000 0.00000000000000
0.00000000000000 9.23317583995305 0.00000000000000
0.00000000000000 0.00000000000000 13.51368614548405
PRIMCOORD
 96 1
Ni 3.2171432160605664 5.572701846093185 10.643230638770705 -2.296739714503812 -0.7557014693786275 1.897619400357603
Ni 2.387246890092716 1.211549656266253 4.671573413857376 0.6876330558454803 1.033542590296665 1.9420310937037586
Ni 1.8593769845286665 6.591684383532694 9.038344914602892 -0.7771239009184616 0.7532586642650898 -0.09193930661347392
Ni 0.8992744104933658 1.8543818363082374 0.7599411679418223 0.26587803501889046 0.531410256662588 1.3566387263977604
Ni 5.62044659923152 2.3707749040941115 11.618108141054307 -2.3080037174534054 -0.9343414599144554 1.281613679041122
Ni 4.141060973319783 4.270934827050938 12.235399509622447 1.930755777900255 1.0299078217575555 1.0802821604450492
Ni 8.336745415904 9.029529078150274 9.037318185430781 2.028102885792862 0.037665889981889966 0.473973611811674
Ni 7.705131544711962 2.465728886162305 11.986964289405364 3.5316207653750853 0.1795725296524262 1.1789523580244534
Ni 4.412017756456034 4.547874708240495 1.3427549339777898 -0.8080463015289309 0.5746708671234361 -0.671384969417734
Ni 3.2127943901607106 0.6094367057379734 1.3215814147558158 -0.5985417602037627 -0.8672981452117127 -0.08185132624985259
Ni 1.124471573333043 5.56875927993769 1.261998806657385 0.7262170867662654 -1.58594873248463 -0.6833082032178812
Ni 8.542562142302492 5.768168182186502 5.952009026367908 -0.7630738505832987 -1.3780686141367622 1.035761966545487
Ni 5.360200300264765 7.851735913369953 4.140999111040528 -1.1241516081344898 1.378790322794135 0.31962668949525597
Ni 3.2182696635335653 1.9913006033336402 10.708785265111231 -0.37401503443814943 0.35154513547040744 -0.518687666889597
Ni 8.95306914762648 0.16594233248953721 11.77738042719553 0.8231582174697049 -1.3367859533378914 -1.8266515537894734
Ni 7.500164270506222 7.140532064987345 12.95444971097681 -0.7594213414323759 -1.6587330634362079 -0.7558151121383564
Ni 8.651504386023088 4.340026683120201 13.343157187745469 1.2333103639500436 0.9294267962216574 -0.7418277967203288
Ni 9.276756598945486 2.2897537846222717 9.76792185992419 -1.5630062647558436 -0.9086635955323771 -0.09429957931553437
Ni 4.31808865692475 2.370267079413661 2.2000285501275143 -0.40504799248455403 1.2148745258423592 1.3816784429752074
Ni 3.058923511984277 6.533404576569019 12.943408679106222 -0.4423158756970769 0.2671340189131787 0.4195721542426581
Ni 1.612758853349996 0.47102401083444606 9.757179059638664 -0.5949699836921043 -0.5589004916630569 -0.25471559064416777
Ni 6.733801428650706 4.661184244212964 11.603796718241618 -0.24123144011480394 0.7876348277521146 1.079425725982025
Ni 2.7450970926420144 6.985673236978035 6.80295145372882 0.1804742155310892 -1.0536038798229144 0.2295583746522498
Ni 1.431243846205051 4.565667038408272 6.0034821359783495 -0.3947324694911589 -0.13726168469935715 -0.17567987946623936
P 5.654036893549304 5.417630655035688 -0.08102758269504529 0.8984902545438009 1.7360016554113844 -0.9491245317609008
Ni 5.115844297208101 6.905233807594711 11.494836008169006 0.14810556939239652 -1.1049464959609487 -0.4938017022811947
P 1.7528261333941904 3.6008740109608115 10.310131811146555 0.4067132960021189 0.8715360945524603 0.0053520083405327185
Ni 8.041920872786585 4.03546113931415 1.9990389281461016 0.6041758185610885 -0.5989058284114008 0.9785631487369921
P 1.4800504145843265 7.655641721308081 0.7834617605050773 2.8646755768962597 -0.4000150580463369 -0.5721663555340275
P 1.228160139904981 2.3490400077708395 6.216890379690772 -2.708110820992917 -0.38126888778708534 -1.0228933381129353
P 5.327348660027637 0.3448988265626138 2.5007891021005917 -0.6153860854546112 -1.0019812705506164 0.6975989088089405
Ni 3.7250971609749572 4.474969550479852 6.119199684253752 2.4562954347146797 0.7195502162690511 1.7823272779508013
Ni 6.661930386602979 3.447187796304542 0.37382636699626315 -2.4241183357615026 -0.7032237111948857 -0.23097325272190547
Ni 0.66737950177735 7.459630627830282 2.7797519721535413 -0.21671031504498808 -0.6375705919714504 0.44870840948698204
Ni 3.2903992345095205 8.625753058136254 8.134806623428945 2.1868638780165757 1.155577687854255 1.222693764776462
Ni 3.4973147088529877 7.637858624316313 2.2290558088620522 -0.6499743649524419 -0.31503521346983165 0.43382557883787864
Ni 8.207167023805104 8.091761556878778 6.239999172604063 -0.7871895126845797 0.703196457501376 0.27188593177586723
Ni 1.4456568339538303 0.07598442195937363 7.181159886058568 -0.7540076266159723 -0.13196264108394692 -0.6025010019618269
Ni 8.997785419034129 8.699470735385619 0.4351392722786279 0.595209096286104 0.7812417797415772 0.27200111719749287
Ni 3.233144310082754 2.3857049496993494 6.363500288254368 1.533316965221527 -0.12157152765760999 2.0251152639194476
Ni 8.457764653843304 3.474000939432316 6.601611894376696 -0.5325605682169473 0.5975878809309256 -0.16027254377223366
Ni 7.332092767629197 6.91913897066304 8.122347375723498 1.3890569948274658 -1.1790621441294404 -1.0735975493360221
Ni 8.259122105203172 6.387058736839257 1.5602636311554496 -1.3508426885412737 -0.05732763007687546 0.23131418100109194
Ni 6.579118030985551 0.2894785342086739 7.674246570964577 -1.6070130093540969 0.13773759589451118 -1.015179257298129
Ni 4.344357042668041 6.505649649488409 9.104913343669116 1.459150923431074 0.840783643860952 -1.971948192978165
Ni 2.312208868674182 9.298177567284478 12.719703597509467 0.008999118174816759 -1.2958570763340134 -0.23296740033379876
Ni 5.99885908475105 5.04593068847411 7.480825383357074 -0.19524186075856698 -0.5739995520880243 0.623175756702359
Ni 4.903176554211534 3.818232207369538 10.0913858683838 -0.5591012948199533 1.4186408791321696 -1.716172022279967
Ni 5.167587015557979 1.362715213872288 9.561676714158917 1.097589284264929 -1.6623891721315562 -0.14844829744379595
Ni 5.357347248878235 1.2172095931592717 0.44992066375013423 -0.5284023230741997 -0.413141825236282 -1.3487063589245611
Ni 9.29282232519973 0.45766083519779727 5.0375100319546435 1.2836664478050925 0.15408698378681204 -2.361000324255095
Ni 1.042148576044049 6.998544284333447 5.265162296294898 0.697012183067535 1.0065892016362727 -1.4914717470509669
Ni 1.005622131755662 1.9166503753074495 11.998262003568982 0.5439317861683665 2.196771366938275 -0.9000879380482241
Ni 5.068524270166143 7.623140941759263 0.1337222414913684 -0.047929733801743264 0.9563953543907013 0.3966867650040523
Ni 6.734179988867042 9.19464596470468 12.034288933035326 -2.5471263387553233 -0.35462557416794405 0.3159582395047333
Ni 5.220816275245177 7.372284782792835 7.028940823069998 -0.30640222038518194 0.8282623714654896 -0.6605050892804367
P 0.8625531461912059 7.859870341433165 10.547243464307195 0.2837790836690274 -0.18264114127542094 0.7290157325573251
Ni 8.210417101759987 6.7898837397244325 10.602027590834174 0.21356791276126444 -0.7330035135604795 0.1397155455564884
P 0.2903178299078181 6.91022895581514 7.496393441424479 0.7465401145943337 -0.10799096075969788 0.08111470519414418
Ni 0.7880940449083847 2.556306342802618 3.383881448322009 -0.2980859872100028 -0.06297222995716252 -0.5745171151543912
P 7.453065839688461 1.1472128858412072 0.2529003841346409 1.9789086834563985 0.909707206305543 0.9382901601495582
P 3.252247751243693 8.39407420573883 4.621194435603906 -0.7008775795602123 -1.0331610385875305 -0.00100247312258537
P 7.068707188819658 5.600659903045975 3.3762326853168276 0.8130774361949352 0.0376661470922061 -0.1779843592296999
Ni 4.927155112304795 4.833179846893469 3.5130175712901113 0.4378940924802975 -1.0719201616335992 1.111895673585272
Ni 3.1033258554076473 2.450826540085091 12.978003542973696 1.1688942024575033 -2.3650539254991787 2.453482647856233
Ni 3.6150100034293455 6.156386300626726 4.80399377753159 0.5571503417411695 2.6406113925893617 0.06765986524081896
Ni 4.41219318680019 0.43712717507319054 5.946454347681383 0.6766557308983701 -1.5485479232386685 0.8015563229292132
Ni 5.727135948006119 6.6820587103008275 2.212487797832962 -0.13285275699838411 -0.6261155560569732 -1.3446486439154197
Ni 7.1206992029217595 3.6803347236872677 4.378286194545325 -0.898054709668279 -1.1297812956164415 0.8548419217262311
Ni -0.190630921817828 4.808342603431446 3.8777797293991374 2.4291826376582875 1.2615300209173694 0.27951850862046057
Ni 3.000689870900642 4.445220257381473 8.56923124788454 -0.02379761664022998 -0.3625908517616078 -0.7015473519337272
Ni 6.4252933186891585 6.125510560055349 5.360703508357212 -0.9203731706598214 0.0011634241804818674 0.1212210862967267
Ni 5.065615819723565 2.875691134101809 7.903330900903701 0.11432924427289987 -0.10820616209429752 -1.5722738061006987
Ni 6.713017549456277 2.0597092043782963 2.5733840251473596 -0.19935434026504378 0.20168298839822044 -0.10698128854826092
Ni 8.644293275560695 1.237938073297651 6.993319230030415 -0.8624390173471985 0.20069337079144148 1.310862291493594
Ni 6.96283035953378 8.492038203185693 1.366625463911755 -1.0567876768675348 0.9507898352784657 0.7284701444665003
Ni 1.9024312842548419 4.25988271536914 12.737528243793271 -1.8232674678085892 1.0624587591103833 -0.39413237401331475
Ni 7.264616717361368 3.530969635402829 9.455039994487565 -0.7011616864595344 -0.09726791791523894 -0.6139336692788007
Ni 1.683484981572707 2.401345949857218 8.30363340010344 0.9790699131700815 -0.02510707948027289 -0.5147438517505005
Ni 0.6164132935297595 6.382728377291417 12.419537662071317 -0.12343737722175514 0.8585412249546891 -0.008390538056540388
Ni 7.6723353035308826 7.96393746822144 3.6832634871170646 0.9836547043272865 -1.5482283351157207 -0.08605328014634211
Ni 2.237835635928237 5.504154747408407 3.2645010991241574 -0.8413968519649186 0.020100884514933123 -0.8417640054963501
Ni 9.012207639958916 4.30260462075902 10.943842536610052 1.1175639276146432 1.0377106056314256 0.4446458093818342
Ni 1.7155148691451072 0.11007330778159945 3.1049582809258944 -0.5346305633720987 -0.7583245088237714 -2.552782765710152
Ni 6.927190300142179 0.5303637864038613 4.822913478489966 -1.0617931005019263 1.480262508598709 0.7272319011840249
Ni 3.5338226867893585 8.530614412547898 10.450715225729608 0.18445145501128232 -1.0083200682844504 0.4317445279391338
Ni 0.10244208781083304 4.774244484433211 8.467986703001968 0.3448690090018125 0.4738483990877194 0.04212443997387584
Ni 8.607000477663627 0.730024754357696 2.6133710638036156 0.48661983982077484 -0.19938493639266308 -0.23223180771935487
P 6.492926332949128 2.371910584743118 6.195970772809024 -0.141082343997028 -0.365478457722048 0.4493416721956068
Ni 6.363061712393979 7.9798462304835445 9.768976288624325 -2.1805682748158506 2.0105340236711635 0.8184091328204938
P 4.43958802001648 0.48011591924970765 11.944423354265243 -0.056649115952612114 0.010302924587904837 0.8163779613230777
Ni 2.8417038132156733 3.5209978053139874 4.140296466346305 0.19554833625539222 -0.3648932746425393 -0.5713533727144289
P 6.3231005266305464 5.708106372253246 9.781503861832233 -0.1690466904204379 0.00470460456452093 -0.9521442924238311
P 2.5000393682087267 3.53249310944418 1.6273860507821656 -1.646544491789816 -0.3589146884616012 0.1363391728850878
P 7.398359271839954 1.2271906564241215 10.373213792952088 -1.0001565586370516 -0.6403702662037746 -2.4775738844774815
Ni 4.833881568270091 2.312661294298583 4.623978238170375 1.3607355221749533 0.47076384662512477 -0.29376293435461664
