# total energy = -381163.0432880327 ev
CRYSTAL
PRIMVEC
9.26999476062764 0.00000000000000 0.00000000000000

0.00000000000000 9.26999476062764 0.00000000000000

0.00000000000000 0.00000000000000 13.56757435761403

PRIMCOORD
 96 1
Ni 6.561608067041894 8.184070326809202 0.6300676259862665 -2.1816800198227906 1.3841598146361647 1.6148646441880317
Ni 2.0244555743305908 4.344123395763275 4.121815020963337 0.47800047358287995 -1.5930187519575336 0.41415175455803516
Ni 9.265266873581343 3.0966880363527554 3.0110249435233345 -2.0475507101048285 -0.4293145783414025 0.7496784031129992
Ni 7.909650677529442 5.65905358564388 9.565668463644178 -1.6670834922834321 -2.4685860791565744 -1.273464053350794
Ni 5.804546150432782 4.282839461655635 12.465710251167375 -0.10839076730127783 -1.2909627243561896 1.4231073995439556
Ni 1.4729557873292456 7.142595706772995 1.4130085864387156 -0.35409129893102886 0.516416354356917 0.10429654262724619
Ni 1.0226565310574596 7.683268140115631 6.861461800425594 -0.4610628172872769 1.6251045767484849 -1.1620563536000632
Ni 3.0024956215187304 4.891683435072026 6.858029121436021 1.158761227788559 -0.7118443629843612 -1.4448000540260408
Ni 6.957473915193869 4.988230428527038 3.0298291275102276 2.223517524683867 -0.32772900688741624 0.4938724076181301
Ni 3.6681275816759187 6.088931043876166 10.073706808099725 0.6104421111857745 -1.6949354814986937 -0.768733105751605
Ni 8.92851578080744 8.49938919213539 3.4673830682466034 -0.1500593506846577 2.0551143813846995 1.2054817717735498
Ni 2.4336516746753944 2.0710929170163483 9.372493827781387 1.3194832003933856 0.33806329893388876 0.006284290346814984
Ni 2.125331655250172 1.1297620483286266 7.069954175317194 -0.2300008615063071 0.7379608575657548 -2.342229214295179
Ni 0.012135349892650589 6.0429055208320825 13.145907226794224 1.968106964855204 -0.7236794079460762 1.184493856667973
Ni 4.400967002471497 8.292232623461443 12.680729629236282 -1.0241822321276877 1.9605016417041203 -0.4782233882269635
Ni 5.262464677915382 4.929087863165254 5.157116751614842 0.18602548436662159 -0.7590948113308926 0.5407467035721655
Ni 6.63422920450964 8.480079793444387 11.932328668554682 0.4709836759454147 -0.5834923220698081 -1.0520108243041817
Ni 4.722357714241565 6.203202266950573 12.059918092828973 1.7666533188589704 -0.47285286794366943 1.1672458682208025
Ni 0.5884879923383444 0.005029899054122839 1.4326683909244944 -2.211391945064927 0.13882080165636093 0.8665931487248882
Ni 1.5905363984654306 1.7016743633749012 4.429487067768059 -0.7679201229320065 0.5356453777898582 0.33922595178342224
Ni 3.4173556885463 3.8319469257313163 11.225064235780518 -0.7062190463777838 0.7038412901742266 -0.6388108921364547
Ni 7.42004664427741 8.025627579604876 9.42478308615697 -1.5021006875197227 0.5403381552798371 0.9681609795670617
Ni 4.4550388808030466 4.0109597908882755 8.429181034254427 -0.8272822669404075 -1.154578300055463 -0.35801634501704793
Ni 6.0689820155597785 0.3021897720155441 4.848128365581064 0.19979245624372688 -0.807378843148261 -1.009964802976725
P 6.789585043521885 8.512626744382509 2.7101496567379315 1.1226194877606797 0.741458329196052 1.4499602580707416
Ni 1.9964323807430249 2.885990329752759 1.968207101273815 1.609165022700093 -1.5045807736290993 1.9388113012148802
P 2.925202406787296 4.573370361499467 1.018760352339347 2.1677734370440276 0.14327652343486938 -0.7684024618850638
Ni 2.616622827514091 6.755406573539299 8.258826344026605 0.6467833688189699 1.0828998005735544 0.05361572844292701
P 9.4324975756388 2.219588960046193 0.9099009520953822 0.28712100355806686 -1.0217700231417695 0.1617010486886441
P -0.0366118435574238 3.5786535940784363 8.75411102995163 0.39581567525300865 -0.5267948693777638 0.21452102070315313
P 6.791068242653215 4.773259254429896 6.735676317094782 -0.1947744342038452 -0.32784367808840953 -0.34904448053574083
Ni 0.33296893498901264 7.173001288965259 8.931221692222659 0.8425299371280973 0.6561496405252184 2.3206450603664996
Ni 6.479661315035912 2.894991494481018 3.535560170317101 0.21464700475805615 -2.5297279407732174 0.192594652943707
Ni 8.568617511590217 8.219333386156574 13.308962723296986 -0.11762822673914582 -1.8055785351692584 0.8651445892038198
Ni 1.7346477340632813 4.535011123965445 9.151830877017767 3.2548507660340396 -1.5660507080091224 5.346430075113992
Ni 8.110373869971243 1.544149345633085 4.670488386620041 0.6745628529250834 -1.1016117751607608 -0.5001232736238483
Ni 4.7467563399519435 4.172053756539855 2.9330652161822592 -2.9511561743880077 -2.5100137501737416 1.4506117756118115
Ni 2.7382636962722917 1.0399450709320248 11.863663037770301 1.1293406085345972 -0.7295044992682855 -2.251285181715439
Ni 3.7048831101491904 9.056645645765208 8.239750549198789 -1.1712961270307765 0.276654299698788 0.7310381623039925
Ni 5.6676376006164535 6.78177043809869 3.4323795687472156 -1.0408136700367816 1.772909327071011 1.2661986300376322
Ni 4.866496859823128 0.13608166630061272 2.4815497366227826 0.5214552023324053 1.2924655341539613 0.6268259518604365
Ni 8.629743855790153 1.1323761867975957 9.498807700802734 1.00870727642054 0.4290991198964868 3.3956590304340746
Ni 8.462995193450379 6.951930458440524 11.230030171872102 0.6833164307479974 1.944455129764219 1.016818592673765
Ni 4.160197433483785 2.288789469517308 6.698230174025985 -0.7273974802276117 0.05926007121289795 -0.3057260202537638
Ni 5.677398904899519 1.0213031118501208 13.271719593109289 0.45708094982139347 0.3772461397809374 0.0065406293319951875
Ni 6.212694741391084 1.2941654020419857 10.838863283968072 -1.0097580862825577 -0.05699698621033409 0.38297070096954045
Ni 4.146060691763297 2.185262170150475 1.1632499037156867 -0.3475984921178336 0.35931398078254895 0.18873259888513946
Ni 6.69481788902447 1.0771362891501242 8.62920805010396 -0.7075537060288072 0.2051388081573048 -1.3013062723740427
Ni 1.0268280286143252 2.4213596618744972 11.36426803625258 -1.43538878801447 0.2920032713510326 -1.5064944457120442
Ni 0.9911292795221263 5.352467055203401 7.522107430503143 -4.220464039478583 1.0589710576720988 -3.72252671776246
Ni 8.192200112047805 3.693805466637069 0.15052709884030974 0.5964164863306438 1.2729955983548076 -0.8908065127462982
Ni 9.034592328681246 1.7808493870042104 7.382862842054967 -1.4345472659497809 -0.6834498710020681 -0.21138761728049402
Ni 5.722553048453946 4.128206682219911 10.205054288173024 0.9944229985873841 0.5867082579039444 0.6967031364675484
Ni 7.068333780266215 6.23204122006037 13.413365110151306 -0.5185562835180553 -1.8093395448735872 -0.9137258405466328
Ni 6.210321622780956 3.2251423511205037 1.0395650011546214 -0.4446468378230987 0.1394278391127405 0.7786069132218912
Ni 5.661528674194288 9.143663084801425 7.147031399175128 -0.484354697935682 -0.16031650963629165 -1.3179917034495237
P 0.5148100754895268 8.872552823583444 10.850708483030656 -0.3443115938364457 0.2179483012171472 -0.16923900893690208
Ni 9.212400094544 4.731219829051262 11.276281882783712 0.9578207739833182 -1.5398383112798126 -0.33217135892948596
P 4.166593729737646 2.4256980193336375 12.512302170879735 1.5641992566226803 -0.2329936255860439 1.2668812579269537
Ni 0.821552341838797 4.823743644862541 1.4383258686110614 -1.6865212892930697 1.403741336312518 1.0336518621810198
P 5.872699150517396 6.475350767560484 10.334977897080245 1.5335964441351586 0.17830934666928647 -0.8480385256511523
P 1.794402119066738 5.989454732136779 11.236542343058098 -0.4060736055355909 -0.4740157779035191 -0.6235611650662357
P 4.733314847824266 1.5966267848984543 9.182683272948346 -1.3022118149074478 0.718122482683589 -0.2063076316544253
Ni 3.6202851396959552 0.09979519955262442 5.361213295080963 1.001906708558939 0.27315759939943923 0.0037378697758774335
Ni 1.6932479383100325 8.258026343495144 4.658250139787654 -1.0057055134797388 0.026612974601838042 -0.3123571524170362
Ni 0.8862782249305808 5.972323782169917 5.254517511569825 0.8493752421847048 -0.07551741361202478 0.7245836649279005
Ni 2.0960848223792587 1.1091919303759938 0.3371923445154748 1.1859179907090092 1.695665417686183 1.3176924270415502
Ni 2.781999530657385 6.293760843912839 13.120468507693 -1.2085043606499575 -0.25776620454503346 0.81774990196994
Ni 7.937553361187587 8.668066013345891 7.355823194891364 1.1954403283771478 1.705212695054986 -1.6777751676693233
Ni 2.9538744999948188 5.820193901268314 2.637156792487897 0.8047244362445496 1.3956791281296739 0.7844361183091587
Ni 8.0616044285342 3.7269642372168654 5.2048739096447525 0.28760617072460143 2.200477097924636 -0.0042477195327604265
Ni 3.2622130594091825 6.519281271831564 4.986856615331643 0.8856884747934425 -0.6871908261017391 0.9055826426142082
Ni 0.9616970467597968 3.1802848473923424 6.232821753603232 1.3657939105344672 1.8883965962077542 -0.5995920558451481
Ni 8.171351894258049 6.898748499587772 2.1287254002625464 0.3609389179804816 -1.5363794061969347 -1.5192334905452676
Ni 5.348555117494517 5.564193731200757 1.535157450899397 -0.023835411856700885 1.3759939909959205 -4.305009881841463
Ni 1.2351062666313393 0.15007935810253953 8.737965480407647 -0.0688410300331137 -2.0515909416124734 1.4824320054462017
Ni 8.091147901231379 6.743809810331213 4.829214795658234 -0.6315189864607317 -0.34626151847396497 -0.9008939788892871
Ni 2.4264766988775857 0.4619312454592414 2.745290352156968 1.0285466797439704 -0.3618146357172156 -0.5484960085002811
Ni 4.848494530366611 8.49028605746685 10.339278247561648 2.4570235711299557 0.3905667681492435 -1.3101588376686664
Ni 6.190502374388559 7.1344659215343915 5.975553448278387 -0.8869187476561177 0.18775455124258633 -0.3292187040590652
Ni 1.4817066622040924 8.537071720065741 12.928337673218882 0.9828602334504493 -1.8210450062359733 -1.7529997326312778
Ni 7.20907083784029 3.350704427582158 8.456533080235065 -0.994770868845106 0.47492209176787237 -0.5054377438582263
Ni 6.326317064845533 2.3091649175839537 6.070281668798606 0.6835848539180357 0.40556529844060474 0.6975935094923019
Ni 1.7165434346664843 3.433921168844342 13.266224340327712 -0.16594311179444968 0.5207499487352645 -1.481722638084003
Ni 2.78411308941953 8.149029747331532 10.654602674884574 -3.8102851535253675 0.18486514550993324 0.460469149567336
Ni 8.151949795621338 6.435109721128588 7.351928870172167 -0.7484936387762786 -1.4213495363125845 -1.3998983084173438
Ni 7.5834859185554055 1.149127066987054 1.7236516665033832 -0.22579196563128212 0.22867725759887714 0.14525061644210469
Ni 5.645667713483627 6.189807124795748 8.044458646576025 -0.1484493258850605 -0.33354844178267073 1.342854013908842
P 4.1403781850913886 7.318586553699868 6.885326474448693 0.2180370042762116 0.6489724060504889 -0.9318068664180598
Ni 8.671996491043917 0.9074045425574624 12.487147113612377 0.12053742996614081 1.8143071732915077 -0.6703662983452325
P 3.560011634996533 2.520965753537877 4.177320040455533 0.8336303206456224 0.3704823386945426 0.12861557898858494
Ni 4.18262155035058 7.655819686191455 1.1955743747841097 -1.1019473041233088 -1.254175380324511 0.8800397611480971
P 9.236186900612704 5.2397531912168915 3.511667686310289 -0.8013313514026006 0.08297644099323129 -0.7417848592975353
P 0.3017577902685442 0.4147655130829476 5.663485570048186 0.45770418522768913 -1.2975110669976686 0.9833914233635708
P 3.5024449687117873 7.90026944302378 3.391309784800688 0.10686096092031273 0.6649271296075322 -0.882410575373119
Ni 7.579870620672788 2.890894156880719 11.608592648158197 0.7362371900064287 0.7615620419244625 -0.5174383678635283
