# total energy = -340864.6551289138 ev
CRYSTAL
PRIMVEC
9.26547280579922 0.00000000000000 0.00000000000000

0.00000000000000 9.26547280579922 0.00000000000000

0.00000000000000 0.00000000000000 13.56095601963138

PRIMCOORD
 96 1
Ni 1.5139689821333087 5.464442271855205 2.8724549925698453 -0.9138276562318197 -0.02330782148800502 -0.26501517279796294
Ni 7.262184887950759 1.2192898867424693 0.7409403984500408 -2.8033624798090755 -0.15044578748979895 -0.6442606023971162
Ni 0.37613279289714063 0.8897837323730398 0.8660974778309337 1.914658615228077 -0.872205095595027 -0.42277600589193637
Ni 9.222286383072023 8.172387869173702 8.655836147121319 -0.5446311262282362 -1.4573488372253287 0.5978722449405639
Ni 1.7648223914092358 5.707327374564785 12.252283135384037 0.8011791420954525 -0.7363634311716478 0.8809869555527151
Ni 5.377596995754767 5.004921150741236 9.503572237600471 -0.13814742973842012 0.03159320142524882 -0.1421094997099617
Ni 7.118968475629787 2.3406993193373844 6.422699700956875 0.36435874229530796 -2.505608936237827 1.988941899322684
Ni 5.828834784228835 5.411647608116776 2.9477582692636566 0.864149572280402 -0.9887593725437035 1.164575006256859
Ni 2.2781573782643063 7.384062916524872 4.344618161648083 -1.357911936683229 -2.0210014988613905 0.3864103227787087
Ni 8.11289426863589 2.1101465608601404 3.9280526987576545 1.162917673159094 0.7348554791675538 -0.12705646203158116
Ni 1.4143744155267142 2.826830878193854 3.061887582975634 -0.7320380643234167 -0.7682070580448059 -1.812826217870607
Ni 5.211522662155679 1.301029887356794 2.5939126445231353 -0.36205143431837 0.5163474487921946 -0.8730422467843416
Ni 4.833259737072953 6.9427762457859865 10.744888006167965 -0.10825115639962002 1.6835894603582553 0.9530174390574038
Ni 8.885403059297795 3.9426346997740707 6.20268641773454 0.2858506214860755 0.8770691085555476 -2.2585506050286006
Ni 8.956951039885395 1.5606021064919458 12.170835923708664 -1.6785169309313543 -0.7700248279798351 -1.5070914558660946
Ni 1.9565806154756678 8.015838441563224 12.53905692942324 0.46509173594101194 0.5476431735816827 -0.630807562216004
Ni 0.23365205911264275 4.314597103385731 11.20467226670808 -1.6206421701017573 -2.0863167751294327 -0.3760161240285782
Ni 1.7682691472728185 9.001175141328625 10.12893605549474 -3.1059183298649735 -1.0154548795570189 -0.625599021431871
Ni 4.923690751128248 3.193382245718599 6.880774481774326 -0.10063349195336216 -0.18645820102866598 1.679199815930992
Ni 0.255973509518443 3.6156746973167717 8.212582416517275 0.2146565178397529 -0.05950818266796203 2.7314430679609543
Ni 7.3661064303323345 6.98844576097846 7.6782537215017035 0.05487942564669903 -1.0458982836485406 0.02833329972705443
Ni 0.46918222955202815 6.663440773271742 0.77233182013235 2.0876699467232176 1.0085848919100628 0.13499782836584492
Ni 2.757673389576157 1.7259815296346666 6.628609081556776 -0.057337400268888346 0.643888306659362 -1.0923722588403637
Ni 2.400267043657209 6.741307806275913 8.411888294687135 -2.494402783109362 -0.3391153943474869 1.031282847728211
P 8.722877401762556 1.1449066714928888 5.657535650545138 2.163966918813744 -0.8349302704039686 3.0642299489872515
P 8.261679230080553 2.1923035077482855 10.022766709423633 0.7148450974838979 0.3814069560268463 -0.4663510622694097
P 3.0317924009312693 2.412414078434513 1.4884907851610494 0.05317247025792132 -0.19785178757758828 -0.42779377082150194
P 2.9028633475932133 3.235095404046154 11.946727301530133 -0.755680386332705 0.6189807447844049 0.5275209489105108
P 6.254712973781864 5.6148764874496475 11.502687858836758 2.0664827711226414 -1.1253006341372684 0.9761640523771962
P 0.06629816372656305 6.153534011334751 4.789268198995788 1.0684144624731857 -0.07743211413623438 0.2777948410611345
P 6.552282896671192 2.9709275104262254 2.785868223159176 -0.7044102753038191 1.8188999348685126 -0.47016220848538387
P 4.046361667227864 3.4710684640830642 8.919637128020286 -1.1984392631044716 0.0001858907585609702 -0.9831381697021843
Ni 7.405920166745818 7.177313157546404 10.49155515638372 -0.8333248735900616 -0.9354681173197308 -1.1706767482792226
Ni 4.9677573395347006 3.402550293085226 0.7103022597024339 1.0398559341092026 -1.6908415139349784 1.0582282659688034
Ni 7.682550121216605 4.6671298106373555 9.461451398471848 1.0288675534184992 0.6642961808917527 -1.2506390850364784
Ni 7.284208916681233 9.17141893766592 4.704160199036267 0.42424282024544996 -0.42286136651689105 -0.40254733754988736
Ni 4.726956968194224 2.4546553687089077 10.740439652699937 -2.6574554607298944 -0.9936691511404951 1.6400470569909302
Ni 1.814855944267698 3.831087673317955 5.028944668491499 0.18324020831200055 0.3386479677927652 0.38864615408776293
Ni 3.068567062282239 8.87650820545629 5.924280272137278 -1.0087378725481593 -0.609647383198621 0.6096008462314018
Ni 2.432427499577898 3.9279581909355885 7.397922210666666 0.8018028917223805 -0.3924501012148854 1.2229470184378486
Ni 4.238129156767048 4.2999020636017455 5.033745109924086 -0.16494243844407722 1.3086452292376172 0.6595807776939544
Ni -0.02000600876518363 7.816482529840507 6.453292438888 0.4533644202017547 -0.2769494623417037 -2.4619276932997924
Ni 4.417480912819132 4.779714570041646 12.435491181195323 0.16850238788119368 0.5444786598107719 -0.9983141061116743
Ni 7.684727507313223 5.687249095112138 1.0585330079555053 -1.8884673015446896 -0.5044478691411313 1.841070300317965
Ni 8.358901835662747 9.214688695415738 10.355023782653003 1.0312270547896112 1.9106273825814966 1.4848365011226363
Ni 2.7019415709754813 4.501685529185373 0.6129277003671149 -0.7581429889405846 -0.7688529191589211 0.42421273833846296
Ni 6.486498040135066 8.792618615163601 12.139970780878642 1.3183151482272133 4.634603966962076 0.17119253311884708
Ni 0.9250935224819867 3.031125286893156 13.160907280050113 1.3961686661715826 1.1619745925195342 0.5979262381069509
Ni 8.552883773189556 2.7722294472688693 1.6057119871302252 0.4150297862876143 1.0404496018291434 2.2894861182651924
Ni 6.043200761809091 0.17212376075858643 10.117639591116028 -0.9130133878606405 -0.7428384973730303 -2.0502416266734302
Ni 0.6811697602769567 8.96495640834275 4.123371644002514 -1.5089781313658464 1.1312116003050647 -0.08161761297249169
Ni 3.5954203738818458 4.109802359157844 2.947120804738349 -0.24651531422156253 -0.9271125462661839 -1.1444571524610612
Ni 7.817372015224658 6.968571321926349 3.409875575842615 -0.5831318534065957 1.288105971633685 -0.0646663298301338
Ni 3.189296172235158 1.4211752725263642 8.934852887372909 0.4061648796978166 0.8778021300668303 -0.5256633268764818
Ni 4.021344890798633 8.657870844937563 8.040860777276107 0.1982881037840585 -0.42672984833336186 0.7267865861164903
Ni 6.656880818563633 3.8601534613396207 5.051578365329028 -1.2278418846363048 1.5720616900898925 -3.596622881278084
P -0.02725253500418424 8.653136188361511 12.581326016115888 -1.034823513891618 0.386906802799153 -0.781379590871022
P 1.5584710477590853 7.900066359532394 2.3281724001772655 0.4878971638713016 -0.6467347749692216 -0.29078328290100247
P 2.7661605626165926 6.7827985932574295 10.4682311818262 -0.9051442695252089 0.662695412063536 1.9955984854072533
P 6.856616614669164 4.458953168855146 7.087606703460282 -0.026104924617167943 1.1563006820632087 1.0693110061455262
P 5.662769716102498 7.50343000198331 8.797643281036777 0.20591399576043246 -0.3793657572271015 0.03982227420326045
P 5.6893894193177506 8.338415875409032 3.5187022594988706 1.3084865921725657 -0.8241756029906258 -0.5376276983272096
P 3.0464689097697515 2.1250917684084185 4.290537450291737 1.0250378952597639 -0.46196218917309473 1.2638365575633588
P 0.25664803593475705 4.511460602938277 1.0162815256610844 0.9079048629894815 1.3382370839621212 0.6558053698119222
Ni 5.459429651096608 8.266904956712438 5.936660796827922 -0.7168173907189204 0.5971137695079844 0.0076582878762061655
Ni 7.3993046192011995 3.418338658653896 13.355276514337937 0.15131276347578454 0.9488036580863725 -0.2429083135965946
Ni 1.8204244933913898 5.824461481090095 6.339909922279799 -0.9644943293487519 0.7952226674017014 -1.3052035505459199
Ni 4.913665509611052 8.417385499670639 1.4476458016303162 0.7363459476701512 -0.2865697590402871 -0.6565826142975789
Ni 5.185264312377738 1.5595087807072607 5.032592485113791 -0.8487939157599382 -0.06000363424714183 -0.14210590016553593
Ni 1.7775624164426402 2.0484848396984616 10.574820253812952 -1.1722309801402198 0.7905170343959159 0.7777008564678541
Ni 6.1217441743241245 2.1733926778623376 9.026687620550065 1.363199924555046 0.8205480335403676 -2.119486834123498
Ni 6.136531868835626 6.182210649500852 5.544356047790196 0.27263926500212404 -1.5638071633905843 -0.17120667418623417
Ni 8.384650584439353 4.699540434322337 3.510050161043457 0.26957013915849704 -1.1864329826722146 -0.4412414116859756
Ni 0.6003702051469161 1.2922462191883086 8.161593593418127 -0.1789796332634337 -0.2463430503097564 0.28285065831748707
Ni 4.222350056671129 6.030136445229381 7.5877615553262485 2.282569336540701 -0.7512210650097708 -1.7056834640438172
Ni 6.626721704757283 3.5181741275520313 11.202258611056296 1.330723034973263 0.09736973360042586 -0.6581440452474279
Ni 6.129601295217453 7.12129410929043 13.17620457556295 -1.4108918313143701 -4.3377369397608385 2.344946356116026
Ni 3.7768383303575295 9.011302303046088 3.7533874188233134 -1.0990998073721845 1.3635709347412195 -0.8179825868060364
Ni 3.7683140954260876 9.16173651864053 10.713630007293279 1.8621574600055673 0.7989975610631014 -0.8289018048217015
Ni 2.51136932742125 1.1243743838754163 13.03084505939454 0.14827706197325433 1.0113945934447162 -1.9569283225305654
Ni 7.997261168696332 8.380583041901414 0.7641096396126094 -0.47789788656674465 -2.0862478695647106 0.3064140474597239
Ni 7.435578945023585 0.2641901307545327 7.587354801072454 0.5142805389608368 -0.5508920195362835 0.08993101793419352
Ni 2.7641499550295023 0.24547294924909202 1.4670653059703258 0.11284006132188308 -0.6999067310065108 1.2270098756533128
Ni 8.344688600461843 6.012819276656702 12.512436299660713 -0.05169100061638839 0.370393121414846 -1.6679694944328114
Ni 2.18712410848016 4.740790319012313 10.017465005915186 1.336613432315769 -1.630764346137424 -0.9244730517608079
Ni 3.392867874059838 6.7204048997483765 0.2631236748408273 0.4414748678530203 1.35853748608237 -0.9171266386980658
Ni 3.6706560126245704 6.55049466043014 2.53874694630758 0.27685407441442 0.5813454509301343 1.0614532006640043
Ni 0.5859420109781758 6.497329377781648 10.411749786479922 -1.0733918610831192 1.0173914344580992 -1.1041633379380211
P 5.047690572962469 5.545153804994106 1.021435908152781 0.1296522477832154 0.5131582524309356 -0.6017181010492154
P 6.050001618808741 1.8540025666430688 12.512965358154828 0.18134890482655863 -0.14477599079853132 0.6384421959431262
P 5.373585046053338 0.8130628383482389 7.149051612559575 0.15031157590477986 1.7623652330065775 0.11203762002524574
P 3.900337816663167 6.523865691742136 5.3599268126702535 0.9733396955545237 -0.6972448679036314 0.8108058665519391
P 0.2091967703321566 5.8502102298667005 8.05111209632844 -0.12141571880603606 0.3729300289040868 0.3159947491696235
P 8.41030667848844 0.4307935228477354 2.577788868840858 -0.17103466738474413 -0.9595513835211796 0.26725408943081075
P 1.8050994014602977 8.686223191557357 7.8980631643235055 0.7811337934088031 2.426590708561395 -1.7204115142826113
P 4.252601825204996 8.65939964794157 12.57092459640498 0.32231734895354164 -1.03919464637612 3.660165639026735
