# total energy = -381165.62975374307 ev
CRYSTAL
PRIMVEC
9.36214467691445 0.00000000000000 0.00000000000000

0.00000000000000 9.36214467691445 0.00000000000000

0.00000000000000 0.00000000000000 13.70244507475313

PRIMCOORD
 96 1
Ni 1.0120103644696643 7.27485433051318 2.743928442287774 1.2976229099851846 1.2212274646435808 -0.4262760486253949
Ni 7.687958953554031 7.983240988924195 1.6045423579694973 -0.5158501974408018 0.7390312078117982 0.019553496651895357
Ni 8.82053501401282 3.8926485846042764 8.028153068191086 0.3980311948470887 1.4204761325686956 0.6146474075163737
Ni 2.099161300146714 6.329755212295594 0.7833849250230419 0.28398811435603993 0.17897937615311757 -0.1678287588529368
Ni 6.271092015287685 9.210861539651782 6.325980395660805 1.0589602590388214 0.058010515076512996 0.46801585156634234
Ni 5.916341638488502 3.4935310053441166 9.583133169754557 0.26189899576648445 0.3938881192129926 -2.099073046353837
Ni 6.892429454774422 6.759290398813765 10.784235446379862 1.284145187213724 0.33341320175638706 -1.2272574728877443
Ni 2.644197262516556 8.629144695399242 11.380086320080668 -1.5601626246594613 0.5801977104789362 0.44013198067188075
Ni 2.4063332589449087 9.23830198498057 8.855109413398425 0.6721843253905778 0.40094991115578044 -0.06365202963300651
Ni 4.7807509675227635 3.4785422121092515 2.707233517188428 -0.08475127350546693 0.5387237596048657 -1.0218409855890207
Ni 2.677002216604605 4.683628081190168 6.980518807945042 1.6607272110481013 0.37781383935894935 0.4676965205537106
Ni 7.929689522775898 9.183383645745268 8.405271480466059 0.8944433381679371 1.1057458519337924 0.07026953494952415
Ni 1.6147826715486946 6.522596663296057 12.057479599351135 0.48382710756698605 -0.7028318750731056 -0.1501002312249221
Ni 3.9635574665286146 8.144859688245537 13.603486085476991 -2.2021575709508525 -0.6665258415532198 -1.2151730309193844
Ni 2.7249083096606963 2.1485559741674174 9.828543997952451 -0.8930027490666684 1.199028302838722 -1.3829398261861343
Ni 0.12434800233945828 5.458336170754077 10.034793912207741 -0.8679121246466278 0.9269971037342423 -0.15756620058466414
Ni 5.956992069610164 7.931711745973106 8.543720744748274 -0.9702595139673031 -0.5817750822683851 0.039170242441558346
Ni 7.308024408234058 1.8482745536708218 12.109755005213417 -0.1488840994296339 0.3756281445615402 0.5629882885791853
Ni 1.8335853490577656 7.1733405984422 9.729558044877983 2.0371318287643496 -1.0297029048356008 0.23903751778727864
Ni 1.2118359752160428 0.6490521956473667 13.031957126794833 -0.9533519395786871 -0.874900897259635 0.3017580367449513
Ni 7.0650205873695056 3.0101915747779957 6.643822390467604 -0.5214382330515407 0.07241306365508819 1.4094720681487078
Ni 2.7640139869511584 7.789697377091367 6.786067068102358 1.285936731896508 0.30440910121455317 1.396959023283362
Ni 4.6936174892986005 7.824402846499015 11.007913928708868 0.5910459660473498 -1.1265345065443695 -0.6345755138988683
Ni 4.425279705602353 5.976081482106036 0.034620273893320494 -0.2573607415764987 -1.7119199318718323 0.8783762574027452
P 4.4775017472413765 6.757764369271427 5.892283735942823 0.3095003996945315 -1.4642861877751105 -0.23996954268324477
Ni 2.1376958866268536 6.241404655295334 4.92354894789342 -0.3293845402129682 1.6562349796047025 0.4176967915968161
P 2.9030792803369674 4.487060496705959 1.4903326218349329 0.4643630853051035 -0.7393592805751783 0.432114766794359
Ni 0.9741592145330261 6.277439549212256 7.2691883607032235 -1.1851073218822556 0.023364642867869437 0.840979561921842
P 9.33667939866699 7.603194097871043 9.129623403776147 -2.1199511753544265 0.5767586028904003 -1.0704497477356596
P 5.517411302116972 2.186304140515309 0.724880884470469 0.5943968847974537 0.8561611547582869 0.2821448904997141
P 5.574426761704934 0.006573161605370702 12.121634630282573 0.8529423907106729 -0.0008978292239210343 1.0330047155153244
Ni 0.1258187952296502 8.438522072629048 11.329646830741407 -0.20446183669493823 -1.1462854639190516 -0.29010913965211327
Ni 1.5012011353054853 4.606577632518753 3.327597293654286 0.3732341904080669 0.7077619653848713 -1.4285599380180947
Ni 6.75944019312467 6.866093742488553 5.887926593924393 -0.5719521826406924 1.123450211192091 1.7650209254618698
Ni 3.2820308004916314 9.056610847998048 2.336376507109257 0.3189916270144184 -1.5722028436534472 0.48564256350917007
Ni 4.698935187335705 3.080332760858949 11.310025648441826 -0.4953708465405275 -0.584168007980594 0.963076880175935
Ni 7.800276600298986 9.00343386762701 13.029668082481326 0.0211879469315248 0.26598190758660645 0.2595073556058563
Ni 0.2862719075692681 7.542649109832398 13.629904184633856 -1.2403179056161284 0.057396535641597926 0.7100553894047384
Ni 0.6246507024010511 4.284341983330241 12.000327452454473 0.3831151969672047 -0.345977668684959 1.180731304301747
Ni 3.6612350985459474 6.371079717816326 2.937941097556621 -0.2443501882494437 0.08323997906726309 -0.7506507943285975
Ni 8.167179040570282 5.140865853081209 6.135941034488695 0.13831815098832953 -1.0929615556849306 -1.139972120106514
Ni 2.3234033835704984 2.424074522642641 12.106973512102812 1.7472869985172164 0.8634936838639581 -0.12393282880093495
Ni 8.223071042826462 2.0436905943899535 0.8803767413335967 1.3959300677982152 -0.08276072543799941 -1.6297006807595997
Ni 6.464635627120513 4.040036824389707 13.087876279269862 0.4506267095556175 -0.21319510280287796 0.8751970883438154
Ni 6.371510376460177 7.061444248196665 13.116131231164191 -0.08279440688941224 0.5670575735525525 -0.23851764072806664
Ni 2.178037366982276 0.8257149248557197 4.436207200582825 0.448606336691479 -0.8460865441311041 0.5818457876053205
Ni 4.135596232602239 3.57124616627017 13.503471232729499 -1.0029719165986597 0.07396935239861455 0.8806257155585543
Ni 6.89623984755805 8.805583669355682 4.027792075687722 -0.7073539313131753 -1.559616008127372 0.7109994984855627
Ni 3.167812638427079 4.782117840609766 10.44009799650825 -0.6190486219078629 -0.19966261553408193 0.6265482727190178
Ni 0.1175791719154688 4.874344325404676 0.8152854959590057 0.05094666625119613 -0.20870492824200831 -0.999289582651066
Ni 8.361977179756934 5.934419939385769 12.388187989250174 0.09716121713404557 -0.2227881458079518 0.525823763713746
Ni 2.796706595306029 2.1795353100913197 2.753053724465177 0.13277716656544228 2.0456524646408516 -1.0096236175872224
Ni 4.322005890378248 8.537611009292263 4.67442415699954 -0.29545934822043307 -0.5516695211322564 0.5549175957559088
Ni 9.254414235547216 0.9637016992030174 5.330196499919853 -0.06997642918913755 -0.5571004623398406 0.519585496113518
Ni 1.4886745860561108 2.879093466303411 0.7279451143429058 0.0532154076807148 0.24793379183564396 0.0952424028447779
Ni 7.874143919863684 2.0047440735548276 9.803400086652717 -0.7233202248344446 -0.10760143863076309 -1.3219555731932782
P 8.577287777393048 4.243579206475399 3.938110221749298 -0.1598845643051956 0.6623467704748658 0.6959937691053497
Ni 6.246694266899142 4.062721300347282 4.6037203060382526 0.38198776823098085 0.02433394875967422 0.2945484063703895
P 1.8722229191266515 8.626972677891128 0.816672965763757 0.6764497855351511 -1.3331828093676652 -0.32751303422186817
Ni 0.5670669606460966 2.5118727131214422 3.5885605161818246 -1.082821381927135 -0.15624773888355672 0.2026803193144832
P 1.7698478697679725 4.614610352440997 8.85409455694205 -0.24371846820271573 0.3172759298748923 -0.20460761824418308
P 0.24525822524366214 2.149230048566487 11.923758218006837 -2.298055347991442 0.11738114372534622 -0.5287237109693603
P 4.7926877016729525 1.4072052052130173 5.628978104878518 0.8664640793461916 -0.1264136862412597 -0.7912482561349856
Ni 6.987492669332083 1.762685829277859 4.820328496892574 -0.6736172011823625 -0.4795781024826451 -1.337555227403748
Ni 9.111575997955505 6.683597461084919 4.589647130528791 -0.16074279854043286 0.37694274960790564 1.094409858095683
Ni 0.5082530331128403 0.8793974610260596 9.876873259936849 0.585429648301837 -1.8088680045538073 -0.008549946452540112
Ni 7.245972114941939 9.242168550630787 10.691044660708505 -0.2652206039405497 -0.8140212881654432 0.0647113241354563
Ni 3.0994502597881146 2.710640401547059 5.681143037436509 0.21618298178660833 -0.8349960906448974 -0.5743767329217849
Ni 0.6037637581743285 3.0592679358880277 9.862498623376693 0.3173795453322921 1.6537759765412483 0.31426568229365875
Ni 5.173230786380976 5.345091671710402 11.572495240008397 0.11271176327413492 0.3001652383365347 -0.2390773698862786
Ni 8.691786803790547 8.053288553560833 6.616992356955752 0.8020854559598057 -0.22472855736377426 -0.9523337827268178
Ni 7.186765913557002 3.471932538140598 2.397283810137401 0.42027380829537303 1.5005500552031512 0.25781608394636246
Ni 1.6901479342224366 2.0947985408416256 7.470586811714098 -0.5946074581463631 0.05820283359297718 0.43443801561089695
Ni 5.903403154884141 0.9152507293410113 9.037146013510473 -0.21195068887281565 1.1080960973335237 0.47621741354052816
Ni 3.740626083325243 4.638109334964114 4.661571805123948 1.2026854399753353 0.22560221821797918 0.19632043853472642
Ni 5.121888786318516 5.021058490791038 7.177888728207033 1.727983155982282 -0.9756503459655714 -1.4494018144641103
Ni 7.678980657044203 3.9434850288674337 10.961818474385833 0.5707774456063008 1.3838281423283587 0.6064090787669815
Ni 3.3339345292199822 1.101053720157858 0.3419017697813643 0.6199176547763775 0.8844646296886702 -0.08350685957540457
Ni 8.513531573814392 6.002201865069978 2.469509009568811 -0.4024979723691907 -1.235026575310202 0.8350323431994716
Ni 5.578499294532644 9.309061072594004 0.7535234291442634 1.9675019842813533 2.24502043175265 -0.7289154595340349
Ni 1.0949683262773695 0.7138831734067616 2.1533531369741286 -1.6527853304932052 -0.045001504411354754 -0.2578415378676592
Ni 6.7619773342656115 1.2038594281603872 2.3830739473192386 -1.5827122278252033 0.5098315020505477 0.10949788432252755
Ni 6.01390454560938 6.306228143339182 3.968872355922389 -1.0656700669588293 0.3235309096456686 -2.4263053161104926
Ni 4.375922480159376 0.47080164674342795 7.491441924649753 -1.9298342945272506 -0.7396413305919713 0.03342922619272307
Ni 4.128284397801221 0.9152413671965798 10.774479155667773 1.7289437201233384 -1.6344945026038173 0.6125779265818547
Ni 6.530282983874336 5.725934345040233 1.408022520421889 -1.0262817949691938 -0.013263035657493287 -0.04652256904157149
Ni 1.0363238535583237 4.100413293828584 5.659561422092967 -1.4679212134245365 -0.5331544930472044 -0.9470414239796271
Ni 3.8935286261808395 6.231883354408477 8.58704781296291 -2.719662016165626 1.6548548114277242 0.14733398133369463
P 5.701237008029882 5.701012316563525 9.284297264358187 1.6014352581560034 -0.30122221884613926 0.8102875321546239
Ni 4.690312652314273 1.0449370264353228 3.409825944410776 1.0674595547590842 1.281082489128 0.8415840282750603
P 8.918453682622095 1.9521662704274072 7.368845579533432 -0.9117579181869845 -1.9550599018632586 -0.16555127567266972
Ni 7.693604326646239 6.233006811740259 8.162738575466413 0.11619303695451602 0.23185514110622651 0.918392907004999
P 8.45625397418235 0.2588492503149008 2.963729124393245 2.6882017407738155 0.07056752580591717 0.015753920400147062
P 5.186843344384408 7.719443845277236 1.9847165741869186 0.3657329969350153 -2.2762914739517894 1.1832586987092912
P 1.370795825518833 8.493740000486158 5.441090164496772 -1.923808914268777 -0.9272822390748289 -0.6269503932534428
Ni 3.917682958814163 2.7958078294406024 8.025453025737036 1.1621615117193598 0.29854235802113105 -0.30876017909439724
