# total energy = -340874.3459964663 ev
CRYSTAL
PRIMVEC
9.21815231026163 0.00000000000000 0.00000000000000

0.00000000000000 9.21815231026163 0.00000000000000

0.00000000000000 0.00000000000000 13.49169769117945

PRIMCOORD
 96 1
Ni 4.922152170097322 6.675656724256362 4.759466533903905 1.2548644359717358 -1.0254441295592467 1.6583247722541958
Ni 5.691471493083769 9.187769108617417 6.758220947511364 1.604235960829592 0.4771610084007202 -0.20232962084328382
Ni 7.451336572218072 6.972472004949899 11.692269142942857 -0.7277720899582112 -0.20223269025410334 0.4054783951537533
Ni 3.571287283176802 1.070245899533562 6.443189676377797 1.843290190787419 0.18826851476452738 1.791216095799999
Ni 8.883514779148461 2.849220208050073 7.512500855284559 -0.27238318312725995 -0.17188544542081363 -0.3276318191879196
Ni 2.756891196235219 0.022685872411776678 12.605455244532862 1.5672169604030817 -0.26985681716098037 0.6219452267293676
Ni 1.472857912315666 8.694736241513038 6.20793505929268 0.8510924819861279 -0.19600110752209468 0.17738349242090742
Ni 6.289241004780836 7.012110059143576 7.254890375634209 -0.07858216858027757 -1.1149200622338928 -0.3523771444533996
Ni 6.131647475828486 2.9892162845708583 12.338899470047735 0.5047836552139953 -0.25956829075077875 1.2457321346531642
Ni 7.5557044907252395 2.9584829653425513 3.9524468123032017 0.8948110059200008 0.6388206623284676 -1.465200986279896
Ni 7.836175987677988 4.694906283589757 12.603768322691597 0.2251111375141736 0.14311711503886967 -0.4226381947624915
Ni 1.2332043930302659 4.033540740292183 11.98872215025737 0.40212619085206874 0.5873656889822853 0.2133254577331552
Ni 6.865744239495389 1.8692015816438863 9.839157845855963 0.8673511099368354 0.6896264321264253 -0.33692815688818106
Ni 3.4191232458337715 2.62172543143478 12.309110089598366 -0.28933009539424365 0.22894439521733476 -1.411549005282395
Ni 1.3384756904469621 1.5102559555397936 13.28159103300126 -1.304534035282721 1.338636633393385 1.2078451297994037
Ni 1.5322965573019058 4.32302759003596 7.871069458966204 0.7801632019654177 0.8800706143860327 -0.806483070806869
Ni 5.622860786720156 7.5265013847518505 0.15538485970007004 -0.6771550391322918 0.29192819513872303 0.32051140609305445
Ni 8.750506061948329 2.985187952086524 0.9665739515128198 0.1739839798210552 -1.6146998364753933 -0.5840307110717813
Ni 0.6730569256542812 8.816037905497828 3.941545425584727 0.7122593390345927 -0.5608200772832729 -0.6700009445860139
Ni 7.147146769814083 0.1946744677429285 11.610981633758978 0.43406340588029757 0.718578339274085 0.5733773451229932
Ni 6.331985576245041 0.9875037659422952 4.579608402092488 0.39254111826679494 -0.8224323950472738 -1.0317559307098876
Ni 0.406055914420885 7.547011773259044 8.367685421806648 0.13074908039181998 0.9616324344199244 -0.10906593899143152
Ni 2.4885784419525767 1.4159358228631178 4.618086812747197 -2.732349381825307 -0.7894117171468792 -0.6935401653585346
Ni 6.326417812353651 0.5155694054515186 1.763459236652935 -0.24894115005423578 -0.5615734105095297 -0.044231201904233505
P 8.657467252418844 7.9095063879362915 10.324413358001458 1.4755594466960844 0.8033165001534295 -0.356900743355366
P 7.371009594486979 1.2873333823849804 13.596932955861877 0.4289466534790225 0.9172405385681107 -1.76174611136534
P 4.846683158542989 1.5017015103556697 10.85664733888817 0.7362492741912869 0.32447836116060247 -0.8347019564432463
P 7.804401017258081 0.7067898315883143 7.658683233705199 -0.2338911976996488 0.35799217664733185 -0.9064596459025228
P 3.894862859527141 4.651866731257134 4.284666249913404 1.2355922180056849 0.8048645613668396 -0.909555511219027
P 8.176878890700852 4.103534169476506 10.124209842606117 -1.9659287262569625 -1.0222001687006526 0.18684926581949757
P 5.861675454160992 5.542008374317192 11.666001096610229 -0.023697343616939835 -0.7655778479520751 -0.1917402753632117
P 8.31067115083272 3.984573916134784 5.632770300268575 -0.3021781550015054 0.2716383345414354 1.4145430549137121
Ni 0.9138737757395052 6.642416067646501 11.953063572341696 0.7136379645496742 -1.0090106665935719 -0.8952462936852066
Ni 2.357053847246673 0.2371572436864124 8.32329817563144 0.036760347448485074 -0.7479994727486795 0.6320162378121245
Ni 5.470788930898506 7.6414240874571 2.888248942387424 0.5399782008372571 1.8061747739923601 -1.7926134903681579
Ni 2.557087748642672 7.022250026495448 0.3539079059606405 2.4220614532324736 -1.0405287918065111 -1.2115210359890942
Ni 4.780054354889058 5.743176108426174 1.8120158530401895 -3.5223074583939598 -1.3878511474448225 -1.5880590939594135
Ni 8.060435192892822 7.244278438892868 0.4244839223600897 -0.6778042426805165 -0.6155339238863851 0.23731025068352676
Ni 5.256706565644096 3.604380449352453 10.273131855842191 -1.7962433738112613 1.330432757426354 -0.13235216321288173
Ni 3.0153866184908233 2.5193117611808837 8.656273501716964 -0.29775765733630655 0.570583841538256 -0.7372756585732722
Ni 6.516744999548268 4.159009009043379 8.240648223561555 0.9040104130310819 -0.7488376523792587 2.453284158692181
Ni 2.404849966082537 5.1685625948999245 2.607270447067081 0.4681966001185807 2.8709056169663723 -1.2848602110028775
Ni 4.294884571558449 0.7913000067596618 3.1556537086844676 -0.16245489613553313 -1.3174625704189311 0.9844481467628594
Ni 8.23279620157035 6.038728502276796 4.929110953146347 -0.518249550910914 1.3330393418112656 -0.8161725301804911
Ni 2.564655851548023 6.47053440288015 9.54686038152529 1.1283787588419598 0.6832614091403458 -0.3847169942366858
Ni 0.1845169859019952 8.61099854749086 12.531763492710748 -0.9349140445884737 2.222107017489586 0.4668267163542476
Ni 7.982938187868114 7.8741271200304 2.8637480158196627 -0.47341002599872023 -0.8326895539989079 0.19852413105426456
Ni 3.7818759687708847 1.946799986342113 1.1856802096824743 0.7432228772956426 0.3561132144570641 -0.2742359200652825
Ni 2.2844793354636908 3.7620200690654935 5.400079251293055 0.13640936400139086 0.20248388703296094 2.5946015015181505
Ni 6.779425462874553 2.2664855024901893 6.417973421204121 -0.19252934692341037 0.6345775707813974 1.1599033118128026
Ni 9.026184119789285 0.4379912806879956 1.2561999953538814 -1.1713503773074794 1.0377954520357484 0.7349758067955019
Ni 4.843336969316871 2.840094237433389 5.097311809763968 -0.6678754136025788 -0.2464847180939432 -0.7889748867197768
Ni 5.147314754221686 8.060840791586896 11.324350567547574 -0.5493881812972473 -0.3174402233668984 -0.9094704077043885
Ni 6.04952295843047 4.76137837865734 3.5130082817295305 -0.3214927961697173 0.3598755097129738 1.8668381533106884
Ni 7.535396901565083 6.185075885620708 9.165881528180797 0.40718303654968585 0.3766486154062546 1.4584271578911723
Ni 6.919762611024447 8.652452577655737 9.19641296987728 -0.5950522589932655 -0.022725723732289895 -0.2321503037491421
P 3.0785586150929793 4.337702888239758 9.747481479212484 -0.4038778834358528 0.9545894115302139 0.47152797848465894
P 6.651311584459733 8.111540628346251 4.685073280704083 0.46093297657763194 -1.0609461791205985 0.9700589679207229
P 3.009062966124111 7.448137873426164 11.572584342843085 -0.5087981756900269 0.11559139881477513 -0.5592416770525593
P 4.0824522555367535 3.9677507884828165 0.37819773684444036 0.7186374746467947 1.4095692558482047 0.5226461373167128
P 1.6190117144646785 6.3572340949512 6.9694466074181864 0.42703478116829036 0.1885143122267463 -0.09585072585273814
P 3.347028077961969 8.641824048240547 4.875656732528139 0.08797003755308076 0.09049331819556673 -0.9893900641491671
P 0.4589404532369609 5.454491237918408 0.11624458572184829 0.3786450770109931 -0.9505795190398726 1.2006254721225127
P 0.5049639214166755 1.9937849077898278 3.1409479905786135 -0.2662045651203738 0.052696816173083444 -0.56113040943484
Ni 0.8276895841398851 7.636160522586265 1.4291887601920132 -0.19309421828794485 -0.3047600567960687 1.720191684962321
Ni 2.060312311770239 0.6841417536003037 2.143223137545632 -0.8106963375572683 0.10742017585789243 -0.011761768521618452
Ni 2.699268527220178 6.3620644066715455 4.860397925294 -2.951896909208774 -0.2707705872245014 1.0946505133515794
Ni 0.575942771064558 4.4626733767754985 3.9281210306260634 -0.2768507319803103 -1.220128575152447 1.2268733500754483
Ni 3.8753480314508586 7.658984667280113 6.658853876539097 -0.441628105601433 0.3838564460086034 1.9766255438491767
Ni 2.6009016257548923 3.1512345265494797 3.256139863326295 0.17406419823968733 -2.4678983090609306 -1.9057109191164856
Ni 0.046252078352738514 1.0290499776285518 9.248073338089421 -0.702306855807571 -1.5828556953816029 -0.1977042062561305
Ni 8.701152075401131 2.4158103489746954 11.726605837841934 -1.5190116043424484 -0.4746485263915116 0.23611031683815467
Ni 0.5228222475537477 5.4461580283855975 9.889009612618617 -0.014587153785555524 0.9040176121199334 -0.29680609205631464
Ni 4.822043037877942 1.1580672349529022 8.64181022101234 0.8070538557086746 -0.08267356504083181 0.5923903958903862
Ni 1.4978206683055446 8.87226863354002 10.601816132107444 0.3305186538174114 -1.1372745186696929 -1.2342891829235452
Ni 8.426423487230396 8.410771064899961 6.023516707618563 -1.540492914144676 -0.3226027414044444 0.556985276918215
Ni 5.30093525960253 6.193455185914209 9.556020459304886 -1.3431561185302934 -0.25137727029955415 0.10831260576517475
Ni 2.9783757376564948 7.649194989709489 2.8561918965120916 -0.12395314051590911 0.28178313628492113 0.04248310886487522
Ni 3.8001371281563903 5.394831357280855 7.3203116013580525 -0.0912952452715718 -0.5088444555469301 0.33935579249306713
Ni 8.642404791825246 4.974732509892842 2.0740787001732244 -0.5240790131084975 1.9758585837761646 -0.835902918729883
Ni 6.572238275419417 3.789646871023273 1.5081827931239429 -0.9047930568333773 -0.43779690478080086 -1.9252693008643873
Ni 1.9717719604841297 3.5176652921896805 0.8585196939656418 -0.2554180160278311 1.0256097086028337 0.28120566651489637
Ni 3.630790455228008 5.456694376279406 11.892364805958183 0.3148416094017868 -1.4681325581043942 -0.20169764368623974
Ni 6.153061243245211 4.756492758024166 6.223854808035118 0.07933395914463756 0.7963675796394221 -2.7067471078761702
Ni 8.850393958516394 1.4170604374239617 5.102303439146731 0.8162195813683427 0.16155321025687014 0.8776167535289014
Ni 8.594793036032144 5.568353853127781 7.290831950820522 0.6998686786797237 -0.5488865590704806 -0.9718502554931907
Ni 0.8149427233633695 3.105706073139579 9.669027629995844 0.7617175936657203 -0.09705605901474898 0.9481642247301606
Ni 5.011918535617794 0.8733996351469054 12.822509542036585 1.0716944187760382 -1.5295986358296754 1.485891681860028
P 4.70389398192437 3.3049564316038427 7.280956544435013 0.2333227267906885 -0.6471525792329306 0.06404103754130906
P 5.760248126185869 2.323684136506879 2.8534937433812795 -0.5849822763517731 0.5338111527945968 0.26993677846929637
P 3.7919882816663413 8.781119545198841 1.1886991545076906 1.19629290618543 0.24643612424419498 -0.8090410613420324
P 1.4983000122167238 1.7342386161904841 11.200564611561575 0.7142524582052215 -0.21078829313359826 -0.4044162724378261
P 4.590630546603972 8.258699209078312 8.977240341012232 -0.3178300026061494 -0.7490484828384841 -0.9368495710482898
P 0.7963008542945618 6.609009484298156 3.3383049405937184 -0.4508804774376364 0.08021301931548121 0.6049057547485777
P 6.735980311847856 6.138699362214106 1.70285449542123 1.6490407758491084 0.4471264097118428 0.29868942512195656
P 1.5694180559618913 1.9806398228409476 6.731682809321089 0.02713413721263069 -0.17617893058984496 0.61719922740395
