# total energy = -340892.10136797494 ev
CRYSTAL
PRIMVEC
9.08228597926539 0.00000000000000 0.00000000000000
0.00000000000000 9.08228597926539 0.00000000000000
0.00000000000000 0.00000000000000 13.29284358218923
PRIMCOORD
 96 1
Ni 6.241510344630118 2.1321392709222944 11.66958755102467 0.5962277673586054 -0.12841091917694658 -1.083077463801999
Ni 4.794293499516797 0.3063582182638644 6.084879058631465 0.14162767497753673 -1.965337115419551 -0.3487362052667026
Ni 3.0085980238616754 1.394975536675078 4.846916263962412 -0.5249004805685282 0.8819171806764682 -0.8869655417336532
Ni 3.427137004522237 4.2319728509345 4.6630363038371225 1.6158738021788366 -0.024065782699952104 0.43347539458731155
Ni 4.8982220969540045 4.721153851246078 2.270670469371125 1.229640371297624 -0.18935891961522872 1.2597901554081272
Ni 7.596741798251345 6.015624812264412 2.7257638342810333 -1.3734460277630862 0.023002888653076512 0.16080064836156177
Ni 4.683471447089217 4.90191858731116 11.194541312243418 0.0803171489935133 -0.5786445070592035 1.5003731633056547
Ni 5.564017228679017 8.166655237837531 12.580772424063776 -0.842519395605136 -0.44105552092741457 -0.205387176722685
Ni 1.837709726946119 6.6308951875843585 0.2720326269718798 -0.44486023938548547 -0.024154485759016468 0.6110134103082122
Ni 2.6919441263131114 1.7631804889342586 0.2594600186146024 0.5983067613748212 -0.6138899605250588 1.0116465615545223
Ni 0.7992684051618034 9.042841522200218 4.709016284382924 -0.5544632818273096 0.6368712519115806 -1.0787798648679099
Ni 8.66943242012617 2.341240738963613 1.2576105037344998 0.9366235710804127 0.8167803389678192 1.046938809097913
Ni 7.031414913039518 0.45530044102819567 4.859836723869271 -0.29890256957402717 0.4596191428622149 -0.04060311823334297
Ni 0.9912134351572531 7.455666651524775 2.7228929237112607 -0.3831594199415788 -0.3710855194961803 -0.37959355696719144
Ni 8.035843074166458 3.699414853213142 4.0732599050099 -1.2094500123926781 0.29923449899214916 -1.2037804728117267
Ni 7.624115807923261 3.845993865188942 12.757434691592428 0.46980225404280385 0.6999530108634138 0.08634252925198678
Ni 8.037632284486753 8.795440054561528 6.984206099212823 0.15250421268072445 0.01061222829820753 0.46652152640900296
Ni 6.989164119080076 0.7250234426982943 0.36413063880900753 -0.5306543523331699 -0.5833766224275502 0.5319643293938452
Ni 1.6051033030219466 6.5748302367865 9.277952840572802 0.94571164942461 -0.56545320517991 -0.9582766305738141
Ni 0.16792601673123245 5.037716925935745 1.4707999086548267 0.7374157836955623 -0.9258894724923602 -0.5192180854717703
Ni 6.378825424998302 1.781844586437838 7.127343833064971 1.2203046957189951 0.4082235619990582 -0.364007015382844
Ni 3.4127506636727625 4.532569267029863 0.23970967971860044 0.18082799932608212 -0.7077550234063359 0.38624885750017995
Ni 6.177325830246762 5.2451109242297775 4.831549944465427 -0.6057899571257438 1.2282730586364523 -0.4659911078268297
Ni 5.45958002323198 2.8825358957109777 9.182310920781468 -0.7103412960762734 0.3613644355536745 0.8171158679303671
P 0.028202314145068144 5.595441937857793 12.545267043834704 0.6997180120344724 0.0461495019728689 -0.004618215498301724
P 3.799801359153319 6.405536427800262 12.507874364597727 1.072745742858688 1.0028215070637245 0.6974842376079471
P 2.3422852018409426 8.54101797993001 1.3589270357497945 0.8782302187431843 0.4161109351669349 0.22798383107627834
P 6.427942427090446 7.59249128845491 5.949996214424575 -0.24788674064779245 0.6032972726108771 -0.3959845967307051
P 4.598406757445166 1.3873282519558496 12.758737091389028 0.25493284886129647 -2.078226799032447 0.10238158499272046
P 3.7218844285045556 6.196752839765086 8.322676194224387 0.1738407693749716 0.208996234230182 -0.2782118739938951
P 4.913571160107799 0.9363836752404116 3.6425978891436075 0.49211994370339757 -0.14494954026191811 0.5577388672547878
P 0.29442227814746336 5.662396549437544 3.9205376348582264 -0.30843493454449467 -0.903642745279018 -1.6157455041310882
Ni 1.642358839741987 1.2678507810752715 2.5117361343730757 -0.8328911284867528 0.20518560223484017 0.5764117610739428
Ni 2.018901330448022 6.375256086643603 4.877064911973669 1.6096813002148795 0.6460688592504487 -0.5333067023543525
Ni 5.743510444719524 5.7429291784225756 9.414829246532507 0.7748474461794591 -0.058454544592467066 -0.9287212855142006
Ni 8.410260309974275 2.488882378388522 10.465016688658128 0.5131986187505677 -0.4644474174887937 -0.7853156927006346
Ni 2.5268100042644095 4.96083537587842 6.871004487882111 0.09568514680915134 0.1937709326399953 0.22905520976358615
Ni 0.4131304794131738 8.91530806373537 9.045567116195754 -0.1748635542125311 1.0455876943866573 -0.2357763305375036
Ni 1.2597947934910014 1.0160988984953592 11.494853452790428 -0.6067356088684648 2.1011145022638975 -0.7753773505410001
Ni 4.130378400970977 7.025865636360837 1.6996226522773001 0.6785082107260766 0.6721696701025586 -1.0566766052109673
Ni 5.6128345153367984 7.826932334128825 8.150054635688118 -0.9487095557106694 0.8271238869856722 -1.0203955113917458
Ni 5.676301529134858 2.668984107583647 4.750476919469951 -0.5374832023295453 0.20487244186979556 0.14238357930695478
Ni 1.10471476192233 7.417539215359312 6.7956206067680185 -2.1823330800257574 -1.2072506907485145 0.6053135317099575
Ni 4.949155556224112 4.557545553226866 7.306610900186821 -0.6044699527627396 -0.5476048641445794 -0.1403362098596228
Ni 8.016061855498432 7.083928690054455 9.172141485270636 0.037858208498354154 0.37090040006856767 0.503213739623714
Ni 4.57099641862969 0.4720835971239935 10.615319437848754 -0.35884578289687874 -0.20928316934298152 -0.003365574038123236
Ni 8.369598916045552 7.316217233972484 4.866364162738283 -1.1110171276350607 -0.6770977035317951 0.512613178560743
Ni 6.962307799703878 5.914103020588008 7.237620948339162 0.8476569739420177 0.2592440746421406 -0.8084317098928077
Ni 2.585772204261119 5.506898732717941 2.465596305595614 -1.144352251452081 -0.44076910003524733 0.9641914533963523
Ni 2.213144178773596 5.321211397700577 11.495544614746644 -1.372428385131849 -0.8015244412500131 -1.1071617584447127
Ni 1.358991519979612 3.605930884549228 3.9172017112508954 -0.5314971599494395 -0.4972269259126598 -0.2829077368076676
Ni 3.7507025216329533 2.618059730599428 2.638921741288344 0.4217403655385704 -0.06305347681705915 0.010560034904033426
Ni 0.9912588465867023 3.48137641585624 8.01098485768602 -0.7503798000553981 -0.4163906711908829 1.3902301891999607
Ni 3.826367045381042 2.2627425420179015 6.910803064651301 -0.8545051072121026 1.9915693096432023 0.34999835980857785
Ni 4.293732394985273 6.69574270883767 6.133716326318203 0.18758125888951566 0.7058171829536748 -0.31904459173954086
Ni 0.649273545462842 7.414333168440206 11.244163289431036 -1.1825346760590731 -0.2979288928068482 1.232041010319317
P 0.05414949670369406 5.667655192967749 8.001759979907732 0.08047064385224206 -0.7732752165963328 -0.19089181131998736
P 8.40850742879754 1.678024976431309 8.15748576200317 0.36715173165941284 -0.6037263897284958 0.13617462228276547
P 1.7643521038140453 3.336895411920988 10.42022012996377 -1.1108168386987967 -0.3086372803632878 0.10011644310762759
P 4.21635131920401 6.194373280861953 3.880353969167308 -0.17353352254719792 -0.33577913088540234 -0.30036706993469564
P 6.695969765984916 4.106119615359268 10.679670158063892 0.2449240584750427 0.1048138485832969 -0.4645129806194065
P 6.212301713208458 7.8373224691867795 10.214087661179834 -0.4252599486560547 -0.8432645013012767 2.0869916897092704
P 2.6148173545367626 8.504425450079925 5.696541403240321 1.1970069015333191 -0.5349095280650982 -0.07508932493567068
P 7.069333456629514 3.9045927737500588 1.7965805952940705 -0.1573098615994839 0.6211996068125947 -0.0509806048129251
Ni 5.433250476437393 3.0659072478264378 0.5298941632698739 -0.08548043836200762 0.2565433878815259 0.6271529961825522
Ni 1.340717960769295 0.8641749612734 6.845256207384471 0.0004448008469024598 0.9856066858473348 1.335509914838945
Ni 6.733252549562627 0.6746367370387526 9.476481619609782 0.6635945268390377 1.0265371055131094 -1.5093064612395426
Ni 2.7388904620775896 1.6142219180553257 9.315744232160341 -0.4213613849325969 -0.6662278506968268 -0.6563273037536632
Ni 6.831422977745687 1.6518134993532894 2.556147604145705 -1.9105638763334127 1.440389840773487 0.5155838311532928
Ni 3.9380973263976036 7.166759137369611 10.350765165078553 -0.29857963901696966 0.5024506362054444 0.05822468796984811
Ni 8.285151821842009 7.5373981422472625 0.034093084773205204 -0.3295418917264389 -1.3869875138929468 0.7155603783833676
Ni 7.552293091106566 3.8320979677775178 8.38541844160844 0.5103565213160823 -0.31858693537683197 0.2191649472330677
Ni 2.7610239927910802 8.574540697149335 12.415834479390295 1.7401583578922353 -0.7151045217928717 0.2546744529935872
Ni -0.22550044344397752 4.837080148343738 10.27223063898928 1.1990020775864771 0.62615695081787 0.20775079185885514
Ni 8.683818760975644 2.2345965380453503 5.87431988370483 -0.45409847015430177 0.35060873969906714 0.38075543848577653
Ni 3.707534416798641 2.738926791221149 11.294078624452897 -0.38666948997736633 0.2351520666899434 0.43734079107998874
Ni 1.2149010543376226 3.3238986608126564 12.933205986875285 -1.2110222419758045 1.2472287738033487 -1.1161109972182004
Ni 2.839912728030054 8.3788356007955 7.8890497202436585 2.1427553177331355 0.29961116560527756 1.670595876312065
Ni 5.917835840088724 7.7477983771708265 3.50957691354413 -1.1458895140322136 -0.18549378023286764 0.6439659539748329
Ni 3.2201062976637966 8.514443211416397 3.4054539551888814 0.2570861477588734 -0.4090350021567601 0.8089109635220714
Ni 3.3444518737813183 4.180912239661933 9.162411632396871 -0.39216213766082136 0.2546047760979163 0.17169209846308495
Ni 7.176431771842268 6.218504914471205 11.541550933921524 -0.39003429268454115 -0.2790901628337903 -0.32757705469058424
Ni 0.5810628537445292 0.20151049349460776 0.3329229962629981 0.2683897456971507 0.2533259093854927 0.6934805157651928
Ni 4.778290511778935 0.3604023604512365 1.521020408482585 -0.35156364741316876 0.07977413200584971 -0.5453687757252091
Ni 5.799965933810643 5.820664463353543 0.3336768259918531 0.27410093714931505 -0.10881602776415451 -0.3796642623041268
Ni 7.752412178402854 -0.16858629891542234 11.442785616012682 0.5932393741542429 0.14444791803515122 -0.2306220400300738
Ni 9.315609814329173 4.883508793812496 5.926467644598407 -0.6562568555270439 -0.30867456135912646 0.8248304629658052
Ni 8.026379332269265 8.69513528919436 2.712312060649621 0.9761398840074803 -0.14320247566382435 -0.5472829620287865
P 8.670068180138458 1.580199675112061 3.6220474008607124 1.1441277941461006 -0.0495317881815405 0.4025270258349132
P 1.9820181674494644 3.569383766128593 1.7501492251395452 -0.3562003748542317 -1.2666663137026701 -0.8954712652118191
P 4.747982923764606 0.9918855243130998 8.323686144415337 -0.4992475558871144 -1.167502464316299 0.7667500138833053
P 8.449414044445287 1.707142784994071 12.499606759752224 0.4231169341711229 0.36631946556610456 -0.6543272426044989
P 6.600914561862064 7.696111088171862 1.3790660964818808 -1.2666897107414379 0.021513448591743593 -0.3479754158412781
P 1.7854956653655454 2.888175995248556 6.089624553008896 0.6963560375407749 0.7357450808613587 -0.9932981409543216
P 6.707813066785241 3.843986680007292 6.363908678652861 0.9641999380367847 -0.6096327279106016 -1.3246583168364219
P 2.122884421600568 8.608599269236159 10.273001725061327 1.8639862856841898 0.06179235071644842 -1.0359599414889062
