# total energy = -340859.3418776385 ev
CRYSTAL
PRIMVEC
9.33550432423541 0.00000000000000 0.00000000000000
0.00000000000000 9.33550432423541 0.00000000000000
0.00000000000000 0.00000000000000 13.66345422575216
PRIMCOORD
 96 1
Ni 2.4928223080122422 6.472463670669238 5.902912969719706 -1.0292401062665695 -0.705025797400631 -2.561651786065007
Ni 2.0007478888346144 5.284100680928844 8.165156729321588 -0.6290512416465296 -0.9681787201788745 0.7385434695421023
Ni 7.523464053621932 5.396985596062517 10.815921762829118 -1.451884214566332 0.44755552682946154 -0.8608642166609108
Ni 0.7836408820832566 1.9414207605122122 11.207365983056995 1.230881442793577 1.7831657146916966 -0.8284904283158957
Ni 2.708929891574051 0.4008581425253289 6.942291583663972 -0.025992053188387494 -0.004842415693965854 0.33014173009396686
Ni 9.077134652864125 3.376409096597409 0.8379865854374708 1.5378397927925451 0.6401877178793233 -0.39006488881216045
Ni 7.3544914300758295 8.925992842078964 7.378059843634089 -3.0165023038939855 1.149467461191459 -2.208451374379364
Ni 0.36218768404383606 5.934365216459439 4.515197759110351 2.7090729277958694 -4.073845339044358 -1.3026797556828016
Ni 5.077412620966926 5.814114588619807 10.304102752557569 2.2849663760179677 0.5425631879556139 0.02298283404841848
Ni 4.582948312749088 1.3210298379842427 11.66756525716082 -0.9669152800854185 -0.04893272114496089 0.5949676696992593
Ni 3.8533226571762045 4.921901794280132 6.977106478967315 1.37234996648543 -1.243281873340459 0.19340095089508627
Ni 2.476289130316102 7.067349996096215 3.50005784791609 -1.4423927301361288 -0.632511175170672 -0.416954771224469
Ni -0.07149689141934702 8.436130937364343 8.092836446443854 2.327633318758875 -0.8982208029324982 0.08908255389096917
Ni 3.479024957261429 4.3061412817675695 4.577161233780235 -1.6237560331403906 -0.6543550105186409 -0.4159116746719353
Ni 5.28751747541602 3.8252507964577993 13.14585446174292 0.3942478165452565 -1.5372384117631204 -0.8647059590045044
Ni 7.2933065364448275 7.019878957934231 8.741399119583708 0.08407970135973906 -2.0275935502566114 0.39002400827189604
Ni 8.407947050597178 2.060859199498336 2.5354584886198337 0.7296950180125368 0.8993348619322834 -0.9162102975313834
Ni 5.71724006295473 4.28084206575597 5.450747830412774 1.7137482433298226 -0.5298449690579972 2.8039322362696164
Ni 3.1944974644195443 2.3367700220897754 2.72277070989833 -3.6813857247477757 -1.2398931593738838 -1.495079519006883
Ni 5.496091307198728 8.119302600463369 9.709550638176056 -0.7868709530028963 -0.0820277039267168 1.192195853297921
Ni 1.6129883920605306 4.672839881374802 10.50805644337934 -0.2695871084393615 0.2635259898469462 0.787997610408172
Ni 9.166260710156646 4.320601977561653 8.686444741364564 1.5334630038810881 -1.8232751811180727 0.3801178049017776
Ni 1.0383601104509588 0.9394317738919504 1.4705426033103535 -0.5532772319390085 -0.3001845216102443 0.6320974846720211
Ni 5.961335487698372 3.076506028563235 10.976945204665304 -0.4721357872719869 1.1474139210965402 -0.49156689941340503
P 1.2689097187987237 8.437549933981968 5.780078274355347 2.284560913049433 0.5788949325071127 -0.44387576398502915
P 4.354405837774936 2.0946350531994296 0.4163121359517498 -0.2207376910368263 -0.2913396696251047 0.14032412567476477
P 6.109032497484168 0.8345585883454196 5.7904080096014106 -0.9899654770366628 1.799702021783823 3.3061967246061834
P 3.3348100904912523 8.780452333731796 8.883663799555055 1.350915707871054 -0.22872405167641252 -0.35514827944063354
P 9.181804324422075 6.448630128795581 11.573150636816429 1.3626309394254532 2.168683350452807 0.11693917109192117
P 6.3778950145078 6.344968691676469 1.5797960073633943 0.4444671177121249 0.38588941727823217 -0.4926434203070354
P 7.090791446799213 3.19530031776899 3.722389412036914 -0.4306006441426778 2.017868095438731 0.8946096885424721
P 7.908684293290793 3.412434806777763 10.173548528883247 2.6080134040486826 -2.039258131078733 2.2450137468844305
Ni 6.833869039472567 4.30091339949211 8.704262484419818 -2.570548317223689 -0.1687528133291029 -1.6925847218783303
Ni 4.981546329740687 7.2555724290208845 2.7323078608494176 -1.8117774648911182 0.3287710749986854 1.7815986273148932
Ni 9.119611196352233 4.472518635184069 12.191244091794415 2.0545435964828944 -2.630174256416438 -0.8863011686767769
Ni 8.044534548420234 0.10652370266492586 0.13972915706775085 -0.6366588787904585 -0.5633595558756749 0.09121219863946227
Ni 8.365003731905903 0.6382852167165423 11.357309115120424 -0.022330545176400252 -2.4947475680432905 -1.1453920055705047
Ni 4.985495247959471 2.5547353709601848 3.67723171178182 2.9710405720167605 -0.585823798416462 1.216521574527479
Ni 2.66040394145291 2.8406725249156306 7.732052822211142 -0.8744337278152295 0.07515720205912862 0.1105702914510999
Ni 1.3745689537873862 4.296292324980766 6.145439096230304 0.01629899427033967 -0.21534120261160333 -0.6546026077530727
Ni 2.087222662973153 7.41091521663454 7.715533647771097 -0.9760234130342739 2.9148133740929154 1.6692290778715253
Ni 6.176210784723823 8.825804212471407 4.344267480362171 0.06741715310239356 -1.8476530957418054 -1.7545431658589976
Ni 3.024628632483363 7.575658856839958 13.831514560929593 -0.13455662706336827 -1.6622112517927956 -0.13436945075322665
Ni 6.697439983091201 6.551544725589626 5.552185550464002 0.06509647538901692 0.4428100417246761 -0.10998793658506863
Ni 6.071606461694315 5.920016546714116 12.853784815168277 0.08625614018576759 1.5598510069563136 0.7776473775220993
Ni 2.49202879016686 1.2374210635931435 9.4982863141223 0.19116486247571593 1.0150908113493808 0.650954212367208
Ni 8.798096436411472 5.9389862909707825 7.211270794488397 0.0014025367744814555 1.1307768267604912 -1.5636945490721197
Ni 2.067860827545826 0.05341775425032038 12.333248311202397 0.5208844174305997 0.9240925284929375 -0.07941931976959225
Ni 5.68924288626883 8.40373673826462 0.7616258964011339 -0.3238800654549712 -0.7427492800933337 -1.1728999811827865
Ni 4.2890759803398195 2.612671509177152 6.024366944033101 0.5848655482682508 -2.370159107936228 0.7473438414425516
Ni 0.3522743122789959 8.07938398508861 13.366082736798276 2.894103909459706 0.3937616209374573 -2.0766352861756103
Ni 8.254219305186478 4.202722567754104 5.703262012720719 -0.26707616909204973 -0.3792899096838435 -0.9006450961032747
Ni 7.1973095481617015 7.628357777277403 11.564419139866004 0.4306304689393487 1.0848952337370283 0.011260146294851576
Ni 7.498006134041257 2.1144356573177325 12.772269060788174 -1.131008483155323 2.9281435155429185 0.7792933977659547
Ni 7.564540271500543 2.369752357945487 7.049795514255548 -0.45707632183570307 -0.5390685445387942 -0.2552745484714313
Ni 5.569281659055162 4.971846741018897 3.472716957165843 -0.45619726166485947 1.7299947870956722 -1.7389283421398762
P 0.48565626013409513 2.5043609910345066 6.825728479929352 0.4442611723489059 1.6939893155353407 -0.12150879274047459
P 3.9090929584504814 5.844912416524701 12.002647305156806 0.34637567545432607 1.3088100369502558 0.3047729123118751
P 0.2450495132589147 1.5290622105312786 13.288269443329686 -0.32437217460004136 -0.3796511496780042 -1.6562660899529542
P 4.904491079202039 2.966440435656686 8.190679997430705 0.47313208974698523 -0.6134356465964597 -0.14319681923686953
P 0.32424446132887585 5.726538225001796 2.3319827756061047 0.3253126841364397 0.14589159246021324 -0.11338282119923053
P 5.963053220446024 5.743818243023003 7.452689730217087 -0.1384806447081228 0.5296678200501845 -1.1524766803314284
P 8.800159582809465 7.372284900820518 5.372784235328764 -3.7833993848781162 2.20492047840797 1.9557587277024964
P 2.823868617601654 2.8408965770131505 11.069693437534394 0.49466147917832876 -0.45175362407120906 0.2609872825854925
Ni 1.123350539443429 8.695340543186502 10.030286817077938 0.4558966997053052 0.9599622458063533 1.3415815749543216
Ni 6.374263503427168 1.142040218578197 1.4708572097972874 -1.3099912017425503 1.3261932654237096 1.034635823360844
Ni 0.14242618419164416 1.527120425686108 8.726888945618088 -0.1595698612782542 0.18551280639626114 0.49852250479563176
Ni 2.019605607042522 7.032677934005044 11.771106266277515 -1.4978779076876267 -0.5640421837649964 1.2018644867359367
Ni 8.384524270902306 7.017059635707107 1.0200802599445706 -2.151342288071198 -0.7027218318578027 0.13561155069044387
Ni 4.193312379658277 4.174211938344723 1.4580134233069708 -0.20043214671025483 0.24944662893574454 1.6391880514247448
Ni 0.8642454912667791 5.841850371191932 0.08217670806778578 1.0671296822234912 -0.659054215766523 0.8362232781837793
Ni 1.9002885296092218 1.702338501450572 4.987857130487492 0.8925206672239274 1.2403027361074768 0.9441273356566255
Ni 3.206138837986505 0.16269636416433217 1.2269372925300344 1.5842181229467684 2.0146668148926143 -0.7647977752529409
Ni 0.47885814607518506 0.4517599784305844 3.855280312378283 0.6423672420291453 -1.9255685772723612 -0.7096165020951068
Ni 5.230832294743537 0.28398229940458686 8.115230453590948 -1.217095187642762 2.436793103015694 -1.876655396511426
Ni 6.817027790142338 4.308745887401236 1.7143672984361606 0.7900130981763039 -1.8268058199791504 -0.5981877192984536
Ni 7.787369417987942 1.2970282570374454 4.5008509564658405 -0.8290313884210303 0.009798474147660543 1.7540112046149277
Ni 2.840709866931884 4.468569716965284 13.165708278234383 1.398480859244527 4.744094652195752 -0.9784309940345018
Ni 3.7005751396921527 4.28134618297539 9.561562360663487 0.0270955706652114 -1.4774857171845197 -0.7445374823420081
Ni 4.451102988862812 7.246778384193236 7.180336668224178 0.6224082824087152 1.0170029407704293 0.14107437357722802
Ni 0.45392861602449375 6.59563631128069 9.315196541331643 -0.7974919230518523 -1.0706209832062015 1.7804102634337469
Ni 8.161723130927097 7.259063907540567 3.256520686315434 -1.1439681286397847 1.0091171102644492 0.9915037680580601
Ni 9.225149069788072 0.6145319601778294 6.342547995472849 -0.12434317686547616 -0.05857975731642169 -0.8951588761777229
Ni 2.976578793069452 6.965042207066285 9.86616118724151 1.2436112316554195 -0.9413716272883594 -1.2712289933726881
Ni 4.568412932922498 8.089802407623276 12.029537291060796 0.2499323103229115 -0.2642312434440868 0.010893764094368335
Ni 3.5972404452152573 8.90813402280583 4.637499397192696 -0.29536704561694294 -0.01584313767984368 0.8445163714305068
Ni 7.013297427569589 1.6358603770156661 9.314978090536561 -0.6116890962189981 -0.3007280528185402 -0.3107432709626971
Ni 2.0227423364077977 2.6981100423646622 13.396401653344723 -1.3273525758391334 -5.285031874512169 0.43352321710611147
P 7.778771418745624 8.940677589970567 9.569842019217246 -0.40928491338403705 0.13501685452923845 0.4102035685435645
P 1.6813056107959108 8.068470780838588 1.8457551826233343 -0.6155578351457851 0.5760484641972531 -1.0508427721380096
P 7.500424029593657 4.303237940003877 13.365494600042286 -2.19181530848458 -0.3367440659018329 -0.16303699389124826
P 4.586131719634681 0.06494616821811498 2.8263677320394045 1.024734762197048 1.3867332317902956 -0.480405740590263
P 4.095691013668134 6.312471802032049 4.6210343686762165 2.8010641706932016 0.5951838994751233 -0.20237152982481277
P 8.247768471878723 9.318700156006607 2.210173118587898 -0.20687481701180502 -1.3057339691280931 1.8040857526738157
P 6.413257903899659 0.21431703388246334 12.369415921044514 -2.144269954605449 -0.570131841602502 0.11048390238488068
P 1.9382933666509998 3.8746822904730815 1.5961378072262369 -0.004016834468876952 0.1558751860354864 0.31424305658583945
