# total energy = -381176.84532044036 ev
CRYSTAL
PRIMVEC
9.12792595129386 0.00000000000000 0.00000000000000
0.00000000000000 9.12792595129386 0.00000000000000
0.00000000000000 0.00000000000000 13.35964229462106
PRIMCOORD
 96 1
Ni 7.706397434285746 3.305112410289716 8.614484572167884 0.10629737510735887 -1.5018361210044264 -2.2872243188142094
Ni 4.555866448037302 8.580925752829959 10.457073239717845 -0.3220769508079614 0.5697122375665801 -0.9762609829663768
Ni 0.7795002210380735 7.207665822430591 8.127257798037064 -0.6586515810114656 1.2147508557803015 -0.1548089495545011
Ni 4.474198895578061 7.078478288066485 4.298464416203263 -2.08899869283697 -0.7633985809125692 -1.0676107356249678
Ni 6.584995233567322 5.732802949545046 3.5949459626208706 0.3941727403329469 1.5239411804335818 -0.4475699250071647
Ni 4.683830840339317 2.4651150351850144 3.8260814750677734 -0.7644288219492963 0.13170913031224413 -1.388687270192873
Ni 8.283994325368335 3.125830818934851 1.404084935949258 -0.4298483393576855 -0.9710074478769214 -0.276734261007104
Ni 1.8791569640361832 1.873141660909924 5.971546588176678 -0.19237970871942353 -0.28121312271406407 2.099402147558481
Ni 1.2482438581425472 5.827532563876331 0.819598286445272 0.4488037974142658 -0.15556022589822885 -0.06757861838092233
Ni 8.380485629386067 7.742662683634195 10.130977176415994 0.10455313872274251 0.3778732318419751 -0.9018571141335049
Ni 1.0266725863871382 9.06466018253573 11.644944996377726 -0.6496210953780812 -0.37644626958746136 -0.25057971409892327
Ni 0.21639117384319045 6.382766036659475 3.3849863253220844 0.6430010189584023 -0.912950138722873 0.5411760778001001
Ni 1.5403739966141674 6.372378457057528 5.8569609967732355 -0.6116435876930434 0.05828896554888026 0.19300962899393856
Ni 7.479340279102595 0.31242060481359524 0.9347205998879018 -0.5430601821966906 0.10611482678290758 0.9212784560829101
Ni 6.208924689103169 3.65976884074142 2.5813235718021885 0.8850500698784951 -0.304516830437011 0.7681024141461417
Ni 8.237003763161988 0.739242416928736 8.538333938084227 0.30817293913235955 -1.5768089749668908 1.2613104487073954
Ni 8.296180106360074 6.327359526831867 12.313275295860379 -0.1597146143862346 -0.9392532953937759 -2.3720943772857277
Ni 4.0189162107046865 0.7644692655630948 8.173896935098703 -2.0132941029148035 -0.01959463430247593 2.169273932848954
Ni 7.728970794879432 9.018664564245563 4.810914387798107 1.0339655367666967 -0.2588774353313413 -0.3418950139751531
Ni 6.566867172856016 7.138823005771642 0.23266261443935066 -0.42840749314610094 1.0901742227477806 0.5022858284928059
Ni 8.237231961307902 1.5723856325228032 6.511609448219543 2.116654763991342 0.5610897860048917 0.30424197950906956
Ni 6.2214482033508585 7.993635004508998 8.735949881274303 1.038438999157018 0.704184018225626 0.11034120615942931
Ni 6.898886347233179 5.594524001047776 9.347822133872983 0.7979534360693031 1.0669785013576074 0.4823597789928402
Ni 5.301754907767601 5.244321998404289 1.1239689734636502 -0.06379652563067077 0.8517144318408427 -0.4896735390454341
P 2.9681641559608387 7.7407001795793455 8.308187892798001 0.4732074230696108 0.21658073144565926 -0.7931565289012921
Ni 7.204671862756216 1.364506249522157 3.067413919166363 0.05828767999729962 0.6402077724839813 -0.984518852099795
P 7.7597775445776485 7.601152449390803 2.608029144422062 -1.2387587886591247 0.040020763367311724 -0.8860175759980871
Ni 7.352918506266951 2.012397297471699 12.285459767458784 0.8416184810574215 0.7989895906433013 0.1498775736911548
P 4.48369193844803 4.966221481943382 3.149869211625296 0.7346186805663993 0.8150939524043317 0.3473148994391438
P 1.5386853303344135 3.247341767670453 0.6859864464282104 -0.4852802950737449 0.9298664548622373 -2.144228559844552
P 5.032855340549895 1.050952869112251 1.9460856546472152 1.3188424814855932 -0.03978653586931857 0.3444951706021615
Ni 2.7936747256701406 4.125849861879384 6.135108065655908 -2.127522817054097 -0.8477433630082368 -0.6862454314693343
Ni 6.259374735201551 7.483986393353378 5.345098863602263 0.6491133025037272 -1.8284654670697607 0.7734845043936615
Ni 0.430622680433463 1.3514168038726035 0.11439390496087637 -0.9312705342986156 -0.24015620477275415 -0.6879040501186798
Ni 8.496501566768092 5.297327863736895 7.609598519167324 1.3928180045317948 -0.1604725755981817 -0.08024232989151987
Ni 0.1592932593580784 1.5676208552361457 4.476228033491517 0.3440724812424461 0.5500322426391495 -1.8653528270144133
Ni 3.235384184824627 3.6590568625261723 1.9966917882774022 0.68700082157812 0.5989827043959233 0.16473649308085822
Ni 0.5555547757725885 8.603891614234616 2.802478610139453 -0.5793309916032667 1.67875167264998 0.5706764012520622
Ni 3.939758837850484 6.523819874611041 11.630076517982635 0.12112544125912687 -1.0238361616421785 -0.3719134147141143
Ni 0.7262223435155403 3.734891670375885 9.807300013460816 -0.5785889712309197 0.72912166200757 -0.3455549793252436
Ni 2.820620362739514 6.938446777808607 2.252261845396055 0.32108347654644054 -0.7593663198247245 0.44240200765298
Ni 3.6464329410942806 6.276087967408199 6.585541996324929 0.8722017531609173 2.2435297061397366 0.7313549222134631
Ni 5.521281524135632 7.9958165787839235 2.271874106848377 0.8394147885378834 -0.04800249602120765 -0.1526826472401177
Ni 6.341398276768418 1.3037781589318653 10.241769201841782 -0.3856739588333164 -0.4413041466031109 -0.304614789467456
Ni 3.794871271047583 4.144333911698314 12.996633812440257 -2.145769421969111 1.0431883409165454 0.7072729415635949
Ni 3.40185929623087 1.6722907808033896 0.707015361970359 0.1480034965968935 0.34076964212145827 -0.26772588686090665
Ni 0.5543307209179127 4.039399276281811 5.082274843821335 0.2896558541647785 0.374152074236646 0.15844474653487553
Ni 2.188830975965573 7.313257668507322 10.258334561649878 -0.6695083212203115 -0.16859391915373545 0.10234301844530115
Ni 6.058806820795948 5.942900418523963 7.230425392711341 0.24667780794135583 0.15924538805929994 -0.6034376548434833
Ni 4.315372986022812 2.1214942670696493 6.057582765941273 -0.5209638645182835 -0.15591683790669922 1.030614618016593
Ni 4.216061152921599 4.389464360037752 7.775953141952525 1.6566322150431212 0.15112610138627522 1.3049163583228043
Ni 5.424123881531835 0.3162680255536836 12.741210714927572 1.106394798371701 -0.49933703027712717 0.6306430116136816
Ni 5.80136280050306 2.6752307600156056 0.5301937466284331 -0.38054975023287363 -0.23726834170199781 0.7626095093523705
Ni 5.276872181937279 8.954522629392418 6.73450244363608 0.9199962469363768 -1.563410699283114 -1.3887988560700728
Ni 5.388771424767038 3.50886597081226 9.630204560343794 -0.3854124776418137 -0.7295618348687821 -0.4561687224197692
Ni 8.455517179762168 6.680135604561251 5.533898143226854 -0.3111944995675028 0.8046437036052853 0.901479676189428
P 3.1621690916899916 1.640571238521522 10.218229193902012 0.4227857760839493 0.40460319163765157 -0.007052793081723337
Ni 3.222723751689389 0.3790699808940299 12.158891035017172 -0.973854430407413 -0.7161003100472377 -0.4939605964565622
P 8.043090106691201 3.3333542128278735 3.7902644068778972 0.18108716652473972 0.1651463269247672 -0.4202712371922117
Ni 2.0010512856569185 8.786605305704008 1.0905899742647058 1.2782517045474244 0.4169210897730562 -1.6790854018403147
P 7.190286251637878 4.177340491523129 12.844119863600953 -2.916116666285371 0.49601413655148124 2.0032721999024274
P 0.10133184308883261 5.839344099908773 10.28109960868613 0.6316783948567315 -0.954425375148524 -0.4425225923912443
P 7.639444098274955 8.259221134648051 7.003952424781726 0.3201259977291777 0.03760161240285782 0.06899735310531988
Ni 9.09990310419049 7.7558251526904405 0.37465936712982895 0.15192314336627383 1.4379573200725944 1.034286410441225
Ni 1.5319580489929068 0.5332589041243327 8.229459532458115 0.48981083595424674 -0.3319803259646024 0.1223739689542473
Ni 4.7415923550327435 6.299583248511372 9.282212428545325 -2.260996495465932 -0.1959455716938109 0.44182299522105845
Ni 5.471032292405653 0.2982586278782522 4.244518374509497 -0.23135326176914348 -0.2534698911625247 1.1461854480060776
Ni 6.559263610634205 2.2495773224075375 5.28482077975571 -0.21927704733089975 0.6661208928053173 -0.6639395688832823
Ni 7.395226442519169 4.686578346016106 5.577730443093769 -0.590392391623751 -1.4238046827212965 -0.09739467330109032
Ni 5.540833541277434 4.743673522123467 11.606923534098332 -0.29344360334198494 1.1256125089507325 0.08912651975502715
Ni 4.9600875157812485 4.665264639187859 5.334986034567994 0.17561663032847175 -0.05808327729597739 -0.5948779381989303
Ni 0.9090656515318108 4.338229312317429 2.4617011909221604 -0.281424981614554 -1.1304356413709886 1.8361831474289927
Ni 2.3608193545770675 2.5807932393110877 3.9034735070651947 0.4535276852524963 0.7494894270306447 1.2866263017643647
Ni 2.6327128814691485 2.811684123345572 8.315936589040613 -1.094967530371366 -0.6812767746101492 -0.027438812937243064
Ni 3.4848138862330598 9.118715759339535 3.180476972540277 -1.0238335905390175 1.405591245037063 -1.2960545370568002
Ni 1.7987125536390332 5.358904851429981 11.961114440332373 0.2549585598929093 0.1727349379053025 -1.5620953229058
Ni 6.171819670577762 1.528069552586554 7.768284771457274 0.1951937811294509 0.6404021478829746 0.809186071560329
Ni 3.0167612331144102 4.166067503115041 10.40301948849921 1.7427340890392116 -0.42119297767553265 -0.1752325075161756
Ni 1.6042147099147084 2.4726912136293167 11.67787672721068 0.8213083087451598 -0.3353731536962353 0.09602144710264754
Ni 2.159128705293574 5.349083203229898 8.432739353629744 -0.3078235262127408 -0.05623285435079993 -0.040702877036000874
Ni 6.257530894182577 7.187867351291204 11.297634720639245 -0.5694394435211677 -0.40360508939044043 -0.9225580941262821
Ni 2.5920844835708485 5.3684344060032965 4.067503247139838 -0.2545458978355229 -0.9324735534677812 -0.3181688740028069
Ni 8.02732617877155 5.549578094228809 1.2762008693946056 -0.5487119811658292 -0.14960220854258105 0.4971086551672407
Ni 4.572725727057334 2.4160250500362714 11.963212037689605 0.0985912647123528 -1.104985319618684 -2.9320829598066407
Ni 7.6737742273460645 8.911493586999116 11.9958233783257 0.2174507927554384 -0.8981156448132016 0.5235912748388015
Ni 4.168568554794244 7.384738455733021 0.3164834446034252 0.0755076434200119 0.9433380069861109 0.6816608974224454
Ni 0.8146427355086315 8.778298893192785 6.024383586881307 -0.37384482740887226 -0.2356557457992393 -0.3154393908867858
Ni 9.118615352155333 4.179348635207161 12.51644832029972 2.622086851422613 -2.15823644408787 0.5780210145425916
P 2.160899522905857 7.281702428890512 12.817935495546346 -0.18960394574649928 1.2272417891584606 -0.37361728477909845
Ni 3.3082159050741287 8.981039253947475 5.55236119881636 -0.5943351783215829 0.042203115730611196 0.5397491155455866
P 0.5825122791455493 3.2843828907150048 7.327590337655807 0.19617568542674602 0.06457505566790814 0.10252171011501053
Ni 1.454890971155265 1.7205318688493372 2.114002978335627 -0.6340893182910693 -0.7343929377088384 1.3999497304805697
P 8.583417676583327 1.1824497687129933 10.559861899770185 0.5647109276972468 0.4581371590000497 0.8775843576290693
P 2.0777897581644464 7.827506754284542 4.170973763252164 -0.8602762053679248 -1.1819296954852223 1.0502323922475203
P 5.992382904483676 3.488309881828443 7.073248899354749 0.6109594171418251 1.0563217929747097 -0.4725631046173926
Ni 7.466771125225724 3.9265781129425656 10.661047696045634 1.4817624901830029 -0.7188408489068524 2.2162472162746996
