# total energy = -340859.47288915905 ev
CRYSTAL
PRIMVEC
9.35745644781028 0.00000000000000 0.00000000000000
0.00000000000000 9.35745644781028 0.00000000000000
0.00000000000000 0.00000000000000 13.69558337756330
PRIMCOORD
 96 1
Ni 5.1039404038891245 4.411600916019771 6.274001437204365 -0.21948967756233814 -0.6508012317291114 -1.8873460434560527
Ni 0.07275703114059837 4.994514308155435 4.75609286801285 -2.232027876147724 -3.2309094247270935 -1.1174348582359466
Ni 5.825624875187661 0.24531694980105653 8.234907902444762 -0.2474949045260125 0.9148028756608955 -1.6195800473858302
Ni 2.9928607988007614 8.139424416822514 12.10071926330546 1.1685537883989487 0.5251943576598632 -0.4381216351100712
Ni 4.9053283907244625 9.025856266390877 10.356339661604462 -0.7129365676072754 -0.11288556984783785 0.5788586799525386
Ni 7.382649483834109 0.5945933692773435 6.258334247869073 -0.8309118932731947 0.007775530180360804 -1.3971464567038197
Ni 6.051616805926873 2.1526734990114225 2.9445912954458215 0.06433182930885051 -0.5874232816930981 -1.7355499125859464
Ni 8.400235443014529 6.363959344792516 9.071639493566884 -1.905685465195189 1.7822172347354983 0.23839782732075068
Ni 2.6576205640004225 6.644149663293787 6.637796886109453 0.4852162746050288 0.04134488149537395 -1.3658041949471122
Ni 6.125054124151433 4.364083752163461 8.344376106732481 1.2647477565237186 2.4555737260573065 -0.4879352161980887
Ni 8.677496877646751 6.864246396469101 6.332454660414529 0.9981225589261584 -0.618732890439657 0.5493509003014087
Ni 0.15171244143409535 3.289108512571317 6.2862868417784 -0.14737100521921717 0.020485007327229236 1.34270206171201
Ni 3.8577704985326697 3.7236968625080156 8.203653997899652 1.6093028338295379 -3.1194109650347697 -1.0378160208610385
Ni 7.715587784347593 5.915971117218513 13.256393207327854 0.48227827502262743 0.17033378466297763 0.8683787798704014
Ni 2.52801979215917 2.8999506137024373 6.134114949232579 0.42611252646433706 -0.7046853833420766 0.16569397189812107
Ni 2.5650285324214197 4.059030671872861 9.892210757398763 -1.2837682634902794 0.3341616498866374 2.3315036003475584
Ni 5.812299857201962 9.193710320202312 3.97067850381164 0.27398343773484424 0.9510245769970912 -0.9679676326093329
Ni 2.584080313754906 6.576701117197632 3.094626880683964 -0.7719876081331608 0.32672370555135344 0.2724250921087889
Ni 1.7317563929490976 6.613578853069574 13.369573514589538 -3.3718359598725476 3.6661072013221507 -2.747039893957947
Ni 7.803313938572267 2.364095870057 7.639341357696553 -0.9848206996109298 0.06773417012218012 0.17061634890040295
Ni 6.639021777158841 0.8270241658002349 11.343668285351761 1.5073246549228234 -1.5636140735431716 0.09302714036101398
Ni 9.210450809792492 1.3974331888809204 0.9254355995458858 -1.2538151687716148 -0.17982398354159998 0.09189894029384173
Ni 5.431629171333804 1.924622927853072 5.243915787697192 -1.3758983459583207 0.06581278472975118 0.5167392849139746
Ni 4.552421278145331 6.305587531453474 5.06758481408713 -0.9247849265742718 0.7120150842342705 0.7324260437904547
P 7.051648176805906 8.425790656581205 9.381734371393085 0.9709405991947277 -0.8540793325285937 1.3406510927202524
P 4.732262233670025 5.689567458395474 1.157214181354168 -1.3602562685456896 -0.020139708172668542 -1.9154096344614884
P 1.3005180124217255 6.4077709558943745 4.902059831186257 3.0174777804333774 3.531608681190227 0.7811559048959902
P 1.5944731493618767 9.385060947161284 8.296140290220762 0.6448223884378572 0.5817432005891853 0.3716712167963212
P 5.527646031973739 2.4266036791472216 7.353829453711809 -0.06268349507215011 -1.011283778898465 0.11958457913456826
P 4.763394491281277 0.13103714140642408 12.912908117648865 1.3017497876693647 -1.243768326058574 -0.8154868169673761
P 7.845197913645295 4.70242130504896 7.077028405936955 0.22732125779161494 0.8716798192191763 -1.617058052294925
P 5.800088376533887 4.037106151409031 3.8636750535530187 0.32514916197538196 0.44916220919494904 1.2524421996834882
Ni 3.679801034298101 0.8329989017439634 7.169405216017593 -0.22903798337240555 0.7418131414323095 1.1030472220557068
Ni 4.20886226456038 2.4988432429460996 1.2401596110782145 0.07885341996379322 0.1267515291966527 0.6394948055773568
Ni 2.6569561845924277 4.694102526264348 4.736466538853294 -0.11786682511251315 0.23109126635700844 0.13200686405832104
Ni 5.90600542609859 6.274380414190616 9.958784381316784 2.3683976451604307 0.8158128328482273 -0.654851233428769
Ni 3.577074877383064 0.6909957571230438 2.9909509419391873 -0.8025855355246758 0.16550036783007627 -0.21984114736448587
Ni 1.0674424871493857 7.022462270136385 8.156555112346688 0.6263197016479795 -1.022804892164187 -0.6291929094307165
Ni 0.8557983443859282 2.34602662165083 8.490344005651533 2.1575288764978846 -0.20743300350812016 -1.15498761967874
Ni 3.5341522246440156 7.6572908306601555 0.6610621896831174 0.8324275585867729 0.2898774832572814 1.333652292804916
Ni 8.63866343337663 1.4957051965254569 9.744777480799542 -1.0285525932812416 -1.0648362582036244 1.592377775939425
Ni 8.79623364254882 4.165565313563306 8.916126053322541 -0.14483744016408603 -1.1443900466685517 0.269853988947503
Ni 8.738385846771013 8.824015930750747 7.778680434465978 -0.3632122873956906 0.13915041708163775 0.24347549895397422
Ni 4.129361314555811 5.995734076003699 8.372219218401336 -0.09231468767502166 1.1991170058977867 -0.28261205994411975
Ni 6.536239475505099 7.529926490910605 5.2561590837172005 0.798179178926864 2.3922495120773637 -0.6158244585436103
Ni 1.2378043392895905 0.7692100568656506 6.374650238787363 -0.4361321154838682 0.630921719196365 -0.45927281526638963
Ni 6.115060360662157 7.282674419115558 1.0077933810048325 -0.20737103992193318 -1.0385680685357146 -0.0062804336920730544
Ni 7.655325764805523 2.94041225539497 12.087461619006206 1.617740165963614 0.9547107675994267 -1.3320949756201252
Ni 3.555730519219173 8.905163793090626 5.314187478404503 -0.30150452597324845 -0.3713593419828572 -1.8980400328347893
Ni 8.522116313284009 1.0546040568991186 3.5172994455764273 -0.3768280784069123 -1.5104452028296762 -0.5436145120382637
Ni 6.295546980681946 6.560905730708966 7.200946394475738 -0.15350231492793562 -0.4131204850800434 1.9930487224022062
Ni 1.7932442392862 2.596787739614864 2.113941115270967 0.8170675311909348 -0.36901243901723546 -1.9269726567087397
Ni 2.775056642455853 7.993691390060373 9.825211369212239 1.0347944604258952 -0.32820440386193794 -1.6129882531009254
Ni 3.1518814137228004 1.4270401810907196 13.340566335338224 -0.9262334860953404 -0.5372217211380426 -0.8262805651487705
Ni 8.183713258203355 3.7864666803788545 2.9023405080799285 0.6540302801893704 -1.012056138288115 -0.8654142979254387
Ni 5.528272981555931 6.108173272714493 3.060634048635753 0.5877295000796072 0.32470179002531824 0.1075710996134599
P 0.4863182406870817 4.157676977775423 10.748115776788229 -0.38242794109219297 -0.5303231942459963 0.3860267141870448
P 0.6130022933526718 4.266784919989791 1.6009316658041028 -1.6491747303238113 0.5367576370174305 -0.1107366418256351
P 0.7700335130333062 6.853747330331492 1.5797987861559957 0.38211400939619994 -0.7644216228604448 0.36482539751908133
P 7.711423716227062 5.61563419497903 11.192140185809743 -0.8183854786714099 -0.15139632432852637 -0.7990312425145142
P 1.6627264367127859 0.4880390769283529 1.6076971068179096 0.48309871404139376 -0.9451889441519206 0.01092770265609731
P 8.679078287786908 0.9889521424414851 12.360675017977886 -0.3730354441336995 0.40689764409878315 -0.03469575160997251
P 8.636136920134959 8.651024633347914 5.133022442792044 0.31392655378668516 0.7697047256362551 -0.7648929060699085
P 4.1788809740925545 7.978410663676492 3.1743898394691503 0.7885195443499129 0.09139114741948777 0.12112004194248818
Ni 6.421283123009086 1.848434517432027 0.22924083961887093 0.8963395267493853 -1.6062779309602853 0.5431275450995162
Ni 5.2058618195494075 0.02466344796693055 1.4400498527940333 -0.7897768137957818 0.21860367541295903 -0.7369961796596404
Ni 5.435971031126898 2.581797094380952 11.92923638788247 -3.63597721470599 0.7280230296267527 0.6857960026367416
Ni 6.316526398044263 7.692662016043545 12.05871457704422 -1.237695894612249 -0.5986260923874529 -0.7736745089172805
Ni 0.7509237154698258 2.5777266008249273 4.146570612714168 0.5306998608591247 0.4574756141566509 1.1211734993427722
Ni 7.712256529851168 5.8010147647225 2.2090016438616464 0.9329396944709223 1.2055666181778721 -0.8237912230680136
Ni 1.0008173972208863 2.4664383712575613 11.851692082021728 -0.11567984476352335 -0.9411631108219791 1.0734911056651448
Ni 7.268123574334825 5.508772042312814 4.891254776222712 -1.2662837335522708 -2.423470931985491 -0.3106080309364134
Ni 1.2968498894930778 0.13415036716754933 13.023431843024213 -1.5276391981104593 -0.8764191336763744 -0.06598710552408636
Ni 1.3091923745514613 9.342924320764089 4.105785203028443 -0.38168386383731684 -0.6639519101784565 -0.686684575889282
Ni 8.735269813772954 8.146657730658854 2.4917746203432927 -0.5179194212650048 0.6618199514371181 0.21642775080756274
Ni 8.319284087260112 3.581996899476097 0.43271592290092686 -0.18929618469809337 0.55489625559967 0.3456727358500305
Ni 1.064382598890029 6.17950516323766 10.508566763143342 0.6600266069821215 0.0794771695907212 0.8056379491977544
Ni 5.726304832420654 4.872979663774628 11.998549875049235 1.818710958786158 -0.1349471776335676 -0.2727814470069432
Ni 1.881307261943097 0.9587556304752959 10.46237087213786 1.732779806039977 -0.5677162901824739 -0.9172423383403235
Ni 3.659570213451835 4.351404398672855 2.5847671510583825 2.2337983377845854 -1.227596858505034 2.6019653980823896
Ni 7.620151086007597 8.523791297988671 -0.015257332742755345 2.603358678885491 1.9913975599520286 0.05216896869407145
Ni 5.926722834680288 3.9639682717908915 0.8989306041494709 1.160769773578156 1.2833681998383832 0.07720945660246703
Ni 2.4650721826157693 5.237265443397729 1.0580663157858525 -0.28240945701501047 -1.166752473524152 -0.08836727299149942
Ni 0.5489345962721303 8.386377050011141 9.847316488585566 -2.845327254276635 0.9453252126194687 1.665045635917797
Ni 3.733522191781179 5.5204127181374005 12.66963390059098 -0.647403261791156 0.871037557649487 -0.15334727740731008
Ni 1.002099368754623 4.5076552064855075 12.90418416099994 -0.3193718931719725 0.15064530509511476 0.14914969438619474
Ni 6.271507675060272 2.836441556771998 9.750378854230888 -0.1671435598604541 -2.705920241099501 1.3045864857872114
Ni 7.594652017179626 2.6578170705858857 4.713444388747805 -0.22747320998844694 1.2893035914862119 2.870605826337766
P 2.0875830319408273 4.776120632054137 7.808317370536421 -1.0630853369507884 0.46885531674850217 -0.7624974092545385
P 4.562209177592691 7.9793557667780055 6.899615710361199 0.5667881219412496 -0.7166965488703398 0.6799873663747644
P 3.088007415990787 3.503104184140819 12.906813606262567 -0.23898532439310455 -0.06584415218831885 0.22825431112884562
P 4.056719380129556 2.0906429202001835 10.272975017831428 -0.06598324886934442 -0.17360371366350102 -0.5027535121578438
P 0.1284694553563707 7.805662660141376 11.86941416879358 0.5984628273367112 -0.6316380285370993 1.525859223391901
P 3.0398726600087365 2.5228638336548723 3.8037152798543046 0.09948549439184802 1.5166739573482073 2.7286243675652364
P 7.189081139696337 0.40274118265261755 1.9124105114393524 1.193667552747441 0.062453381339215026 -0.16672601270706125
P 3.949960159484296 6.238663002918554 10.525315674444327 -1.7280834290055724 0.03209276676948667 1.3590434791845112
