# total energy = -381174.8577196008 ev
CRYSTAL
PRIMVEC
9.16940435056281 0.00000000000000 0.00000000000000
0.00000000000000 9.16940435056281 0.00000000000000
0.00000000000000 0.00000000000000 13.42035012464026
PRIMCOORD
 96 1
Ni 1.2978374893821245 7.538873346811693 2.0368465485915443 -0.48101920580454577 -0.5449944231049259 -0.6486505039346958
Ni 0.6544937425259099 7.069335659099453 8.50973629623957 0.6392698340507441 -0.005470021975635741 -1.5700914537373991
Ni 3.324743486735579 7.09607364213632 8.316591046415535 -1.2063916851823286 -0.6399684027796655 -1.1066881612424038
Ni 0.58568836628721 3.0650934642201517 12.48803824625903 1.9584871823772527 0.9443463936459673 -1.9334284396364123
Ni 1.4933566979881372 7.231450727718047 4.630772005008936 0.09139243297106842 0.2571360271602023 0.4552130433747193
Ni 3.7592632192976825 5.538925398199113 10.267359811825118 0.3481785329910197 -0.23360477680748154 0.21951770258679612
Ni 1.5102192325576844 0.529696315664326 0.9419582361469735 0.9480739790091994 1.783208395004174 1.255475072972541
Ni 0.3928979724108858 8.243120277251885 6.513258050226837 -2.2097202137894585 -1.7753904416216517 -1.3533608269774369
Ni 7.554122066218521 2.8330891957706217 12.753828101916257 -1.6518075399609682 0.18575834674816394 0.4764680960987536
Ni 6.881491241920689 0.04556552095511228 0.1129221313090985 -1.8954815280789934 -1.1532508394932912 0.40340454334386006
Ni 5.4139372477273895 7.301477468613987 9.234757429138037 1.0645133276465666 -0.35019762030357754 0.34504410112709605
Ni 8.988556171958745 0.07123893614884558 12.899586787084521 -0.4497615333418447 0.1452246483001757 -0.6348048563008551
Ni 5.801573815931637 0.3802909583925766 2.5710569620093167 0.845152719462925 -1.1692510715762894 -1.242338535590583
Ni 1.9445464076287817 5.426022522639115 0.7220043988727011 1.1926082582449913 -0.03211076449161567 2.311691707827954
Ni 2.0775944645097666 5.429607759733565 3.3056069398912915 0.7350663096267792 -0.44169932515900057 -0.2683987445582152
Ni 8.536036898689725 8.576116365032027 9.560992915102991 -0.30646444108168513 1.2974254492623978 0.09588363597320262
Ni 4.133402424322827 8.4356685988538 10.994031437503638 0.2999382099273932 0.14251162024438685 0.041749830243276484
Ni 7.210709535115375 5.284960406370536 7.549000953898188 0.2695266875150713 -1.5345289832517572 -1.4652300397456184
Ni 7.83877705435176 6.214407907244704 9.568320186105996 -0.8094938326087349 -0.26425541181380297 0.8193414148267761
Ni 6.66247085000758 8.243074430230216 11.232094848336832 0.7962127992291126 0.8296955043675904 -0.13974099947778515
Ni 5.257158772430967 6.766222660042614 6.817350341666507 -0.20095228087978292 0.2819957665163595 -0.37059700989553596
Ni 5.400669119656625 6.780013444160395 0.11946266742027746 1.353459300228514 0.5867473386719959 0.8706927727155586
Ni 5.842900321263312 2.7116954517976817 2.8791214394063154 0.7722246638446314 1.1363319522507653 -0.05996558192035478
Ni 7.458109233441071 6.604813635557709 5.539343523036726 0.31514242847165724 0.3407817263063163 -0.9980461971622684
P 7.555194886525556 8.822479920668023 5.472549914108825 0.38864358298460167 -0.12397139534835423 0.642714340955919
Ni 2.1657491177732946 7.3410067706962705 10.332944893261848 -0.9514650069686195 1.5313960940497304 0.6119600904921977
P 5.807900704921843 2.684379796287795 5.153883771421282 -1.5878598334644138 0.7433892276701778 -0.8765034658600647
Ni 3.7279221952853323 8.806882763896516 6.467091933287873 0.2090355721085497 -1.219506882408048 -0.17528495802066585
P 6.125987341255501 1.2055657735727963 11.972764486671071 -0.7963722076251124 0.891108103147117 -0.9937637677368305
P 0.24293603229608507 6.710115074925126 0.06629204251085168 -0.6995575751972082 0.3627266060085237 0.3221263159886581
P 8.557355763765417 3.5945440398483366 7.730685365245618 0.7798441280631021 -0.4743183967456025 0.41360925179100383
Ni 8.627437521087359 8.131858725067607 3.5157962784906807 -0.9502367909884731 0.2485086905025075 1.4699773246226167
Ni 8.38483342122815 3.0221714825344255 2.756150557887991 0.08134661869929216 0.3344442141240627 -0.9286876040627876
Ni 5.9339800145092685 7.0375636730834215 3.0849094639255616 0.7411053167320075 0.34271519588360333 -0.9806053759780017
Ni 7.92044893875141 3.704219285082896 5.200815533622105 -0.8604510403828923 -0.25994855690833296 0.27439121469622424
Ni 8.94535910814301 7.150814986008097 11.387771161232351 0.5561946626961195 0.21732892246559346 0.5146826594952619
Ni 7.432123141559561 1.4844256981671806 4.229288719320472 -1.444258579700274 -1.6069042516903744 -0.5491159014724672
Ni 7.153409927434515 2.8429463054292747 9.350105784833813 0.028315816225557688 0.603096983674613 1.0563022525906842
Ni 6.359027752394732 0.562811619415234 9.038578940360436 -0.11832473858553814 0.07833585689742638 1.5255974850900824
Ni 3.226163220744713 8.181446863703883 3.299795371424636 0.6808911091359564 0.7066625616731055 -0.8369470437236811
Ni 3.6720896922978534 2.3331732715010625 6.74391349929889 1.6570934709502558 -0.7923057508652226 -0.8230959967732019
Ni 2.8588093749264565 2.3249758240267964 12.95116101869946 -0.1429674768348828 -0.3228536810729859 1.972286035933558
Ni 1.3599418649338069 5.180236639476138 9.484952878845057 -1.2023062022590456 0.001675845040526146 -0.059950155301387066
Ni 8.256406744131315 1.2887781179004971 11.03108500041584 -0.7555371758866214 0.1803610869919926 -0.5353455871612522
Ni 2.9303857451547795 2.3101580666236483 9.027560984113146 -3.6488864665684897 0.483994743493102 0.08086813640097686
Ni 5.455731392680079 8.625438590942625 4.622840470260345 0.7503805713863465 -1.2304104166944292 1.504950241153376
Ni 8.306031560384927 0.5362973698441068 1.8231141521576402 -0.45649345274903963 0.33507310595731327 0.8486586757336545
Ni 3.3710489786204154 6.622904870307963 12.390727025827937 1.5432907886047873 2.7826707557876786 0.4484631262453954
Ni 1.6434781857383431 1.0560311276999428 11.360030962301817 0.04248516574740425 -0.5923325460692573 -1.290971466106938
Ni 7.300102057963943 7.482609881820533 7.785212145055988 0.779082310196413 2.6367930472845362 -0.8354097811435482
Ni 0.4530941949207396 2.8015647836715982 9.549732886581292 0.41390364310297106 -0.350784346044983 0.0639775312932253
Ni 1.4802994662170468 3.0999830477096175 6.99088865420394 -1.9242475444680927 -0.5054485424915037 0.8776193246320627
Ni 6.143849340897414 5.017589745406191 4.287949066604443 -0.5747533995349133 -0.6984545719410165 0.24618724145818247
Ni 1.0624955577551527 0.993312402057907 3.2919445274341816 0.48203993375957627 -1.1939519167570793 -0.4390253778712632
Ni 1.6535736999096708 3.136293888870796 2.267542343042665 -0.2230015473703385 -0.13989577988809454 -0.1830700012827234
Ni 5.514351394584981 4.701648749686604 8.923834848410245 -0.7298870794186849 -0.4395244289948688 0.11536411329531744
P 2.405648243354081 0.5332136991667067 5.106537552144578 -0.5042717485745831 -2.3982116431980702 -1.2645312696375381
Ni 8.871160288275268 4.736611688410738 0.9311062461181213 -0.1926990397320552 -0.6868331856520042 -0.7089135624908113
P 5.5946020213129195 6.420481100238726 11.365238267022887 -1.3281197930224613 -0.9824234030233467 -0.7691210852186432
Ni 0.31597675639648914 5.057449146044485 6.306397205400556 -0.43993683394193905 1.1461733638212195 -0.25414969083836875
P 3.7594374379800213 7.590579617849038 1.1322096219633153 -1.5970854658277396 1.0075893607660131 0.3366620477109879
P 0.07548253647444997 2.12740266885005 0.7944601149766195 -0.354735360272931 0.6981216140816299 1.3364949044600336
P 0.5864741842386021 3.9780818843154515 4.201670473467575 1.0688134976838173 0.27785654753700534 -0.2969071364105532
Ni 4.25005558625528 5.5997643959527545 2.1190062453017444 0.3666745349126782 0.033636714217838835 -0.13980579127744955
Ni 3.949876796585203 0.2017259783994475 8.848573294580236 -0.4161451308389801 0.09735610675367104 -0.5081679983051957
Ni 4.215826199877835 0.3313180867870871 13.091054952855936 -0.27754698671638656 -0.9372789452762246 0.23462884719662172
Ni 8.327167037373945 1.026358935276313 7.499855697491227 0.48182344687339596 -0.6910032578692938 0.9025757374670843
Ni 7.277380274025205 5.759715485148612 12.573015700920955 0.549675373520363 0.09529613890084879 0.5185231162872747
Ni 3.5761043677334046 1.2914005675399154 1.8271404376005376 -0.2638838874069972 0.7585327681798356 -0.07298667677037107
Ni 8.906324953894742 5.740624785325993 3.155043486852205 -0.6069412971213677 0.13154457970992184 0.6024444376922785
Ni 5.734582147870129 4.2676975201931855 0.17826697435228608 -0.8936846056250415 -0.0340887141535929 1.494145180118072
Ni 2.9656145966045897 4.5883332509315915 7.871813501225399 1.157680850240187 0.7089644703334048 1.4807564175159917
Ni 6.890568952210983 5.074843506065383 2.0876560518850598 -1.0106263478201238 -0.20910756299706568 -0.364738751342546
Ni 4.205959920814848 6.400959438412425 4.540534063080807 -0.5159255307634275 -0.2373038229256236 0.8074472344923513
Ni 5.63217824027214 1.9284082560015912 0.7546869067390619 -0.06464653233579189 0.8074264085567447 -0.9474692555456649
Ni 5.896587183636721 0.4465243167156931 6.845465569234286 0.133078499855945 -0.7453972592391421 -1.0217689947005049
Ni 4.175765072344201 1.234862020418747 4.031513837248386 -0.1740279456851132 1.1103527545781844 1.585170973778341
Ni 6.728949031426404 2.6295559277770155 7.064297988358556 -1.4626201129265972 0.9670834302321666 0.1969750413995898
Ni 2.816529251544084 4.765779563596018 5.6250994601265765 -0.6293186363753034 -0.9061518848541169 -1.6359512896550017
Ni 4.049374003009432 2.176825758208321 11.011370781098535 1.3481368595743362 -0.8435591497235602 0.49964247733268785
Ni 3.9510046333182394 3.6804888666674596 3.792510562470995 0.04625054632710744 0.8518892668558101 -0.21752072676142536
Ni 4.931534885735065 4.445996587460639 6.523403996122 1.4577620135033476 -0.31507378001725095 -0.7670886281696466
Ni 0.15630441709237325 1.534334765955134 5.371415052070609 -0.20512286731770482 -0.5706357778221139 1.2042738675083775
Ni 1.6249651583887423 0.6644773899643672 7.1202744509940725 1.585646884973495 2.226176302462953 1.269591200658949
Ni 1.774243060940254 8.20591083446601 12.83248508617101 1.4167652593760114 -1.6291136979078782 -1.2405619033061344
Ni 8.464112091096723 4.570727994611021 11.040573500020281 0.49436657364572917 -1.2278693954401303 -0.49597248468026844
Ni 7.710909710919276 7.320008834772255 1.3520598449686179 0.5208875027543932 -0.3890336193341687 -0.15012542803590273
Ni 1.4673614367022936 5.5610144932388295 11.990264294841808 -1.9350276658027319 -0.9090785715826085 -2.21692727306086
P 1.3458576598773497 0.32888819463867486 9.183075915492392 0.162464666327546 -0.3316643373860804 1.3348843654398042
Ni 2.126779149355363 2.5068876366017006 4.841834270900887 0.8192863932191244 2.834546618721363 -1.0791606452460962
P 3.499814923677595 3.7045493836389065 1.3412683730083674 1.0359841098586222 -0.5577596931903942 -0.49466353606085767
Ni 5.727026558699218 3.918269859847177 11.306135037509602 0.5295207529493591 0.6592195376997937 -0.7196833994128057
P 1.976144174962474 6.353828700137563 6.604207537931256 0.37051781991816835 2.314687814341801 1.7672446725860662
P 2.297247545321896 3.8206982283330104 10.685551586090325 0.6662376208888398 -1.9438509205213168 1.215725560988745
P 4.881534123903775 2.5212927708098345 8.660178713141454 2.966433926482685 -0.011050601387206774 -0.17833222948742192
Ni 3.483979362393414 4.509008734041351 12.57740417783503 1.209159220625137 -2.4860760084112217 -0.22773854783469166
