# total energy = -340863.8828151449 ev
CRYSTAL
PRIMVEC
9.31034456769517 0.00000000000000 0.00000000000000

0.00000000000000 9.31034456769517 0.00000000000000

0.00000000000000 0.00000000000000 13.62663037887545

PRIMCOORD
 96 1
Ni 2.086578509834625 6.651663784543714 4.0707106458016415 -1.1750998170475826 -0.38102077633202125 0.4755196161425553
Ni 6.287052079776749 5.638875217661144 1.0746437015273864 0.8078110455896733 -0.5853903104234692 -2.129820611949338
Ni 6.308084147624881 9.288260196191658 1.6137200866806236 0.6051633792853384 1.9448796188961472 -0.6350002601411129
Ni 5.394422816855224 2.8879198465715814 13.460262733163622 0.4639655927563687 -0.10350155752977658 0.36821899658166257
Ni 4.189329087775583 4.012842200600194 7.120976828575728 0.21139404503839723 1.7964518902776418 -0.34765582771833026
Ni 7.85128303115558 1.0562958059504428 9.76799058449781 0.88334028627624 -0.4237005745887348 0.01386235980438903
Ni 1.019110290684643 2.222053330223372 1.2435389339336884 -0.4145109376696668 -0.2785013802098558 -0.09196913141014483
Ni 0.7103327208823756 0.8642504023602621 6.731813745802776 -0.4855461471406219 -0.7133065493521844 -0.23132806495816288
Ni 8.293570938692342 4.538932517477834 11.905382160598373 0.043436473917080026 1.0730108235946165 0.3196583140641398
Ni 4.747083885729584 3.1729374176361618 4.733223576121122 0.2777231072829346 -0.182709275509195 0.43615191297821015
Ni 8.425833690286222 5.56120832523568 4.964385460391757 -0.21023319196107662 -0.10006450682376959 0.6025927903446848
Ni 8.964697799588668 3.2420667243083106 9.866402786165951 -1.2971480272312952 -1.7339424588895105 -1.2380144542939324
Ni 7.910208200438817 8.56769540688737 7.4972357741032125 -0.18591364137910563 0.34780649436358163 -0.45806542522184984
Ni 1.6037812941052 7.216997202784736 1.7848432844858007 0.6759962429375004 0.04044268139607873 -0.990291492917514
Ni 8.084171984299976 7.747565795286524 0.8275071284502771 -1.114024289892501 -1.828588622911186 3.113303052364819
Ni 5.919293478625247 3.1103439726857425 11.136022787679531 1.0807971524082547 1.8937779151243255 -1.3112533562844255
Ni 3.7019511826343474 4.891347671168635 12.95404720833353 -1.4241618089503991 -0.2734936425826193 0.289760755173759
Ni 1.601081294248645 5.960137959213896 12.703125980285078 -0.8974489577634802 0.6734498223665627 0.3152285604275603
Ni 1.4073795804016322 4.250255981090405 10.769684014038804 -0.4248352024138103 1.097029297996401 1.5152516230793838
Ni 3.3720763725736167 8.14851577398499 9.84183371850573 -1.5487374135416554 0.9661007546039232 -1.368362699702908
Ni 7.028593074863171 7.078217210157791 11.406511566412544 -0.07493531585630965 -1.1030323096573713 0.7600913709162072
Ni 2.484353661115556 4.3707597677917684 5.427063953052111 -0.9596488283309924 0.2241130352669624 3.0396581731851584
Ni 3.8444553129944707 0.4767994919101388 5.197809758335298 -0.10970537234764333 2.5417928423575513 -0.8756408607494532
Ni 5.164866966982023 8.513769892510929 6.491113413763035 1.3002644613730896 1.0583005139676354 -1.3384399440015464
P 8.890326769057069 7.236669960360257 12.565824470338207 0.9269400252440616 -1.8072944894191003 -0.4833961906771546
P 3.0624888028143826 7.39681719323132 0.1974156102014261 -0.007007284555768577 -0.07415395760559487 -1.2782409059141469
P 3.7679894549879576 5.237813514830681 9.071384104265501 0.04120732747624516 1.4116377083414593 -2.1928882298337844
P 8.001403023180057 0.11577506281465925 5.206027068243559 1.5417249867795642 0.27426034554531475 1.915407320468643
P 6.868315497171447 4.115600471002957 9.07070258706033 -0.13310806754229978 -0.20375735442874587 1.8582087597704642
P 8.89961849270135 8.28873886998354 9.497979426429078 -0.3794801713177787 0.016309021572668683 0.28282443306524196
P 3.983765995248393 5.661871768163528 4.597829755728071 1.578106610732392 0.2079870762393773 3.2495416951163003
P 6.712851367499858 7.222145823200856 2.549760692123392 1.938528736977455 1.1983551880310974 -0.13107921003772907
Ni 2.9273770858546206 2.467799868891572 13.23215277976533 -0.8222166794920421 0.5189987703721126 -2.22746159693328
Ni 4.451089418696456 2.404992286021495 8.64552429930423 0.970998706126173 -1.4519001554059319 1.1022350105670564
Ni 6.627084475504728 7.563528218857112 4.888307843743927 1.2207276421890267 0.32640566009030236 -1.9577968411784477
Ni 2.5046874531387173 9.013074348742673 11.62401983071891 0.34415424232297503 0.8781286601683135 2.1119874404226597
Ni 2.904529500861563 6.581892064112591 6.92959059736432 0.15494547513236542 -0.5838908430598073 -1.3757458795408564
Ni 5.846151413545597 0.30458046657697374 8.590568129810128 -0.44986437746829616 0.0680064499469603 0.11233226844752912
Ni 4.317634943027959 6.3822782816141554 11.011966173580714 -0.3184776634924773 -1.0633571025549364 0.5128150101589039
Ni 2.281872292562572 3.485234297596284 8.498683410553816 0.1103949422155002 -1.8398436269997152 1.0339375117422387
Ni 2.6410746872720936 2.2618643625910635 4.10525388534575 -1.1379854286937887 -0.5461665890361562 -0.49864411797516056
Ni 3.0009939784952517 4.423856661522579 3.344847339537473 0.5051549225104848 -0.4331542638024669 -4.006947805890861
Ni 1.8926533477236216 4.4865711409493265 1.340185894316303 -0.9173796352491362 0.5562039186675002 -1.3701730134387693
Ni 0.5723357282138327 8.864462632500134 0.12418788995391236 1.0587607414335056 0.2818345583481469 -0.8932909697310487
Ni 1.2928251037290228 6.928478942250965 10.33664407152796 -0.3103475781861752 1.3047219829238108 1.674766976970619
Ni 5.465572468247623 8.094208535490896 13.122649164893346 -2.399143153873404 -0.3529528144512115 -0.17524896257640787
Ni 0.7025204109525978 0.756740132209962 4.288545703194092 -0.3669810104095034 -0.06635065951109217 0.1690297211395734
Ni 4.999114906822525 6.232167599934012 2.864481054713381 -1.4348087471412838 -2.3065196767087115 -0.045329577174734834
Ni 0.9069876759517996 7.705725107854249 7.896305063246423 -0.0030539563349753856 0.21727955728489676 0.2001261854340618
Ni 7.418268226574435 9.02026193456771 12.867462868105967 0.4590293317970159 3.020124988248238 -1.6832834990820624
Ni 6.253274150536808 1.1214775266254218 4.599941341822785 -0.22315658489096407 0.5966268025692371 -0.07203202616658562
Ni 6.774755846969637 6.742402400412639 9.08574624143351 1.111385309607757 -0.25546943809105677 -1.3229942988704377
Ni 0.2473237109982014 3.5220287784001 5.557838911621586 -0.7376404981118587 -1.1340051038898016 0.6746443568952962
Ni 4.158102192882871 7.806286136994435 4.282127151810957 1.6257609793855614 -1.1183823097508803 0.5587629376439279
Ni 1.1625826968553934 1.7644033545372437 11.389927981086695 1.529247937358476 1.630094830874225 -0.1284875380511529
Ni 9.093478482402023 6.989787559683437 3.0786096640268847 -0.9929978361050833 -1.1265849001663308 0.9540682489194213
P 6.741052400484361 6.777511708892191 6.814827568978653 -0.34969162720143643 -0.5817236602051593 1.3817450345470847
P 7.342724092656884 1.6183054312646012 0.42551997739312003 -0.9637834193246563 -0.22591846390681738 0.7295392091609629
P 0.868568540061884 5.68997038736037 6.566754375261648 -0.8210583975178827 0.07339651061428004 -0.9780653831649672
P 5.622358666814491 5.188515241587715 12.323829069401752 2.9083892157341267 -0.3739163040767561 -0.6399468055131108
P 4.362026664807462 0.8628342989872204 12.798267457989054 0.09370591159559347 -0.6165356256780221 0.332995140382362
P 4.72058664575801 1.0976709761660701 2.94930667089645 -1.3443686507811556 -0.5658321857858835 -0.09069257869056639
P 6.9664279057520675 3.380306716963944 4.451438556608942 -0.7095393690002683 -0.8196085524452337 3.066735489017925
P 0.42399494299138296 2.840669849081863 7.68063652298025 -0.1370544537845575 -1.0057967876419645 0.6349802055364548
Ni 1.6111550868168962 5.5274117753070735 8.646532609595488 -0.1661174325887849 0.878269556621552 -0.6575421499973708
Ni 2.834273642525127 8.987061246676413 7.528399358654461 0.7162723168487277 0.3597410410176385 -1.3036675735173677
Ni 6.215585876677029 2.736151923600173 2.5146988663999377 -2.4860875783754475 -1.3521578078082712 -1.7074580394457366
Ni 8.433849896756891 2.0681440280553853 2.7950398515060777 0.6549139683459043 0.728579416350855 0.13891567536301236
Ni 2.776987093844489 2.151434368457951 6.654891680923948 -0.17769562434468752 -0.34215058162938494 -0.4206970118757206
Ni 0.14141202696986876 9.10318917154129 11.564852592483014 -1.1822287147828803 -0.7125704425171082 -2.564313906278203
Ni 8.293151973197359 2.195947124713782 12.192604421200995 -0.5643188344651507 -0.795785481883707 -0.2332131977960177
Ni 2.6098664130680467 9.029441934079998 3.147206419003189 -0.5252167262573664 1.387974046175932 -1.2420757688474995
Ni 8.943190904179554 5.654898320258149 1.2097023495244503 1.1784502215770545 -0.45806516811153364 -0.8019890395912574
Ni 3.447797403033494 2.6039264133836255 1.731808770062021 1.1529667325939692 -0.9690744925202666 2.2475676236545357
Ni 7.613124423118735 4.448920108466879 2.936457464682546 2.430469474790511 2.934919400814171 -1.5084664818367506
Ni 4.438939419341957 8.207096460527907 1.6952749788995274 -1.7508765156406876 -0.6676846377480113 0.3943930838738691
Ni 8.115650258489678 9.028129175529052 3.052555596445559 -1.7959402407485456 -0.2291202586735667 1.5091161996056075
Ni 7.989411299679218 4.415421489556927 7.3719520566213115 1.0555538044604338 0.8849184293966373 -0.6959176644517757
Ni 1.5803564677634996 0.993702361000024 9.051270967403031 -0.06684431131805907 0.16436882532879432 0.6108504023677866
Ni 0.17504099070048207 7.6989937289015264 5.493916880534854 -0.013219841124383683 0.287747324288156 0.2846234339471937
Ni 6.038856920548984 4.879253533880133 6.003607025870004 0.20803464164786106 0.35202798864409696 -1.1238574739328386
Ni 2.6323229635991208 0.3462349471225894 0.7505562015040169 1.4047628355984967 -0.1373907540780537 -0.21562556662124155
Ni 5.85260348216833 0.8739219880533298 11.188362750416074 -0.3300766811839864 -1.5026367625288508 -0.036515835537846784
Ni 7.922423372203646 3.631034289850272 0.7100096519340222 0.056620062486889576 -0.48221682565707275 -0.6792502310984238
Ni 3.628688083078368 3.9287046188633306 10.619000746182182 1.1463710816543224 -1.5449846313674425 1.5656388172826843
Ni 7.810671309175254 2.0182033410534443 7.13234196590296 -1.0251615653218216 -1.0542692813210552 -0.32009977247693255
Ni 8.787214705569653 5.498782466483253 9.588160352672459 -0.8922861826156181 0.8987733330018585 0.7206820158806492
Ni 4.644642167034141 7.445854776832965 8.18134684120627 0.4969567029704087 -2.5985270618248024 1.413226392984818
P 3.3052746519847047 1.7100495643214848 10.437344755833141 -0.6215809014114134 -0.4623398842274877 -0.18398737089067022
P 4.456368383933238 4.439498040001934 1.2595853123915266 -0.17133162979987265 0.1287886142313395 1.8412232809560614
P 5.425770746224264 8.012947850152914 10.22779404282815 0.9685371319595576 2.101420463540091 -0.0073608112404453885
P 0.871144712338811 3.4494174029474274 12.973737655563284 -0.6762883202566223 0.9577248718354022 -0.2887608531543349
P 2.2061326414140283 8.514821961420552 5.210577964553504 -1.418377341058138 -0.15890394555948117 1.4655743104589147
P 0.7331020989830366 3.845228071574106 3.530646433114678 0.6662291362484075 -0.050794199833731866 -1.7421170242805029
P 5.047668352518856 1.6387043956980936 6.4989759995522105 0.4089560692897086 0.5845932684434706 1.8603731144116349
P 0.54629097097684 0.12437688994387122 2.109265956905156 2.130592971338989 0.891663975650587 0.44233875851521237
