# total energy = -340889.3448244487 ev
CRYSTAL
PRIMVEC
9.08185057400424 0.00000000000000 0.00000000000000
0.00000000000000 9.08185057400424 0.00000000000000
0.00000000000000 0.00000000000000 13.29220632257861
PRIMCOORD
 96 1
Ni 6.640512767890097 2.1306111802892356 11.39620555409347 0.01816098717974292 0.4570117871463549 -0.23403980746237113
Ni 4.786008002761722 0.29165454300624677 5.74112985957774 1.136734587005823 0.6372471471937605 -1.756929149592671
Ni 2.4536435163479386 1.423589128441558 4.739083898233957 0.6248320613588594 0.7175347285009192 -0.05677432867656674
Ni 3.3226403696690046 4.6208908810579 4.973159509850168 -0.15551780269606763 -0.9043194596310683 -0.10460636055818114
Ni 3.6621017730596597 2.9026501989856928 2.739403938459527 0.5305458517797638 0.10980924491535927 0.2917376763944718
Ni 5.643852343819861 4.682810936928131 2.518009314524689 -1.1987920184582 0.11495916454741492 0.6806316848269827
Ni 5.120892153562382 4.8310993898834145 11.303811349283292 -0.8225892323401124 -0.6837512042925709 0.7575575487507599
Ni 5.510703335442998 8.083228273225568 12.328494730876727 1.1661642051208496 -0.4386134871448253 -0.07177980094646348
Ni 1.5929383924210523 6.6152198145902155 0.6553399659074131 0.45811479040254655 -0.5294500476124236 -1.2713398079189395
Ni 3.004176204349921 1.6191576944593855 0.1451424999846993 0.5485371461508618 -1.0733939179656482 0.06443133100119226
Ni 7.834312918093377 0.14871166718285136 7.083628962373344 0.8025752511120307 -2.3466949633760166 -1.8644082037129568
Ni 8.840990623129418 2.2054637910962818 1.0154298842443341 0.4169573423276302 0.025995909843129418 1.0006859487779605
Ni 7.108545927067618 1.0850449919389777 4.596484316354811 -2.0989429485338755 0.04438109721853647 0.288215007953194
Ni 0.7609473548310552 7.945147820094006 2.540924639395878 -0.3944015685143014 -0.6805998031477828 0.5573169492260208
Ni 8.07174881434907 3.9243492845452543 3.324394074976799 -1.0588908392534666 -0.38318024587718524 0.9023829047299878
Ni 7.911099963030719 4.218537663806678 12.639944074964633 0.5305507368757701 -0.19611217917866225 -2.108061623005692
Ni 8.292092668195291 7.468813849671928 8.88452356472642 -0.7557816877972597 -0.9986383222203123 0.04207558901381141
Ni 7.065488874430369 0.7926203080207632 0.1638620099817248 -0.5407014521565269 -0.7148371270640979 0.20926002941452992
Ni 1.871914672301039 6.4128852700415395 9.0836540324621 1.0358280438967322 -0.11351600434298514 -1.3974742723568836
Ni 0.33931336922951016 4.610746454186817 1.2600295440773863 0.34650654460523544 0.40093114210270303 0.31650202782334524
Ni 6.855661803320687 2.314300686013977 6.757837560170114 -1.368992619977423 0.838026392830789 0.15360078817901288
Ni 3.3657155860070076 4.617467023465779 0.15253875893170957 0.26090963527002164 -0.3127752137910614 -0.281642754052315
Ni 6.2024678786573535 6.063815268952042 4.8874640778780485 -0.974416216448154 -0.8235407976201042 -1.8707547147562746
Ni 5.53446145602917 3.2610745059634763 9.117669194864028 -0.4633780956840149 -1.8946140378723757 -0.5562921075059323
P 0.4548417715049622 5.948493932865185 12.133192263074946 -0.29107664577170517 -0.3784262761319676 1.8466285111320324
P 4.1190914021787775 6.41348467216642 12.509560490027562 0.06619716465236342 -0.05461845867582851 0.08003252787355894
P 2.620395371119617 8.358717122560796 1.3032092016947248 0.09555504898919027 1.403273395537164 0.028334328168318944
P 6.8239752273554135 8.09935763949508 5.339997243017184 -0.21584513883121534 0.2626916668711089 0.5896277455435845
P 5.016360055723373 1.092492109248099 12.498022907308648 -0.8069037032840554 0.8207341814092447 0.20856403178876984
P 4.032468713283168 6.418298052866218 8.029170375226688 -0.14745276629974605 0.07606762968853996 0.13390793773577583
P 4.75131533432167 1.267626511917728 3.67524139418507 0.0614287967294426 -0.7623326015419 0.2501094593307241
P 0.4943232996487953 5.713274008101475 3.268965725756032 0.5563214180819709 -1.2611425556709634 -1.2326940705222835
Ni 0.20432982707649763 9.046013395389679 5.063294150286554 0.7261636078205107 0.8447184601389839 -0.43600870253212654
Ni 1.985228919454584 6.52101378062983 4.500820645408922 0.19271883722639713 1.2624065099850517 0.7418316533750707
Ni 5.974050259825999 5.677700400174856 9.169189623867583 0.0981022408910762 1.0052429720210236 -0.9633167641008828
Ni 8.97753624354727 2.4992798144922492 10.253501710481139 -0.16104336049998716 0.11754595143798466 0.04144644007024475
Ni 2.348130578668217 5.21814968924943 7.089172523843451 0.504597250234802 0.27159822533211936 -0.5512419466765346
Ni 0.4459778855370324 0.2153506525089595 9.260095313400974 0.7372401773496465 1.3870088540491854 -0.11674402436197959
Ni 1.798860267868634 1.1623769478989388 11.329359502578766 -0.9261365555061598 0.7538453900064952 -0.7643789425479675
Ni 4.374572935133523 6.95798701151809 1.5160823254208449 -0.6505983716896859 -1.4620794099317789 -1.179169359131266
Ni 5.930066858450299 8.194807886957111 7.776911082785691 -1.0989699666625397 -1.0203371473499847 0.03636594022354382
Ni 5.135877206684394 3.149885411798144 4.868177860417499 1.0865587374823802 -0.4799367713736444 -0.414959338060995
Ni 1.1103288633884822 7.575216808688593 7.146873152028538 -0.5115816519724351 0.24488909147204924 -0.8294072837032103
Ni 5.146457562373572 4.924987559080606 6.839664123881642 -0.8732173389096252 -1.6478385280108914 0.37430659753663925
Ni 1.0499618039327148 7.530216240070671 10.762234273938047 -0.9352151207686604 0.9799242907505769 1.8480271912517718
Ni 4.5994486323178565 0.7796641402729675 10.235889278045068 1.9228475787967725 -2.0458550675699603 0.6556446758643418
Ni 8.594663595354664 6.935727396244118 4.652976150254723 -0.7983092767468252 0.26311409912050815 1.369098806537984
Ni 7.143810752081421 6.138295523893633 6.9363113592233585 2.0448106854658463 0.4492845937054262 1.0192482851611802
Ni 2.619069420964579 5.2073332054504515 2.39225111598461 -0.923143791426423 -0.4009625095612708 -0.008031097834592622
Ni 2.521548511616597 5.613818664623198 11.229854208923415 -0.4920029585095591 -1.2203658879742338 0.6575382933426288
Ni 1.291575351361817 3.4584231146551914 3.6468097533949053 0.670539076477671 -0.195673806089663 -0.602309454776311
Ni 1.7912224317015961 1.0149785162805984 2.402618956374967 -0.35406584500973215 1.555150773267167 -0.39347391449370944
Ni 1.1979323921248046 3.360874959756079 8.127107233321935 -0.26705945692150135 0.339743257739473 0.544988766677971
Ni 3.6924805625706485 2.669628082013211 6.850736715861252 -0.13912804848413457 0.8231525610427501 -0.3021087352161507
Ni 3.9738907783516653 6.893378727936274 5.880192968920091 0.04937829332281173 0.6320190660256019 -0.4831748186949678
Ni 0.8338737051731446 -0.10995941162428952 0.004091373594828243 0.3953001690691708 0.5245533816417547 0.22393331515598852
P 0.03478621149893589 5.758692341836738 7.927644369862459 0.8726491251109811 -1.2359447162490973 -0.21710395093898094
P 8.612327794337885 1.774148552992879 7.947795179478896 0.067787906178251 2.464931770233439 1.8713514678000096
P 2.038239680105 3.335781807164491 10.261649946639363 -0.7219331146789308 0.3389372168984098 0.2550729739835865
P 4.158706433523152 6.0358704153420835 3.5682662785946557 0.6155128408404626 0.6393490240281118 0.7519623140511694
P 6.995440562472744 4.1273286404706955 10.44175847876046 0.8472574245107538 0.06252202979362136 1.1659664872877469
P 6.432184202092616 7.81474153053099 9.912051381857927 -0.9873496366803705 0.4249236483625585 0.952249707653444
P 2.325789226740853 8.59921360239353 5.666095611763154 0.3573784543227329 -0.7933606744922982 -0.4660085913283265
P 7.2454184940990425 3.8846071072956017 1.2826469842562105 -0.5701976618434309 0.04048407615697543 0.33152781180821617
Ni 5.2218641660536145 3.0331654707532323 0.3900464018053804 0.12251512251780189 0.0498878859693786 -1.1535876540074197
Ni 1.3152154078930887 1.1068232691429691 7.086859376552434 1.1330784783104746 -0.22756576970225326 -0.9472597106380203
Ni 6.969248505985542 0.8337447428977914 9.266289135358074 -0.4600562303996335 0.8641205188146794 -0.16748423102932444
Ni 3.015909955036976 1.6464032455903173 8.95885396913679 -1.2704154963324572 1.781639250744841 -0.8531334236755566
Ni 6.170617829385295 2.271525170738414 2.331811401725827 0.8615244759527291 -1.1823953222677313 1.1397854580170046
Ni 4.186097294260115 7.055262710905893 10.228352250417213 0.6299683541441602 0.999787605333407 -0.7853920544645248
Ni 8.247101181427745 7.344483318011109 0.02200986438860432 0.6137189821648334 -0.21146860703007453 -0.06672604057263992
Ni 7.867770454882161 3.9227599607292833 8.524278346748053 0.027091714010469472 0.20772533793755837 -1.7510125269979198
Ni 3.072662438042707 8.428093377590525 12.007088954220542 0.6252128417370458 -0.5814814622873663 0.9149532851958307
Ni 9.205726816119201 5.068290076178929 10.254418977369214 -0.1317710938984311 -0.645661853620017 -0.6564743708544887
Ni 8.883366536988394 2.5155635722181695 5.321800847601872 -0.6981367835902815 0.28461366375518077 1.1895360470775707
Ni 3.795623137301979 2.681625206361198 11.28867190470487 0.3984574837512299 1.1736923951770948 0.6144239786516581
Ni 1.2332244626897382 3.299799515970907 12.484253005767076 0.1846669134561981 0.3451844833597023 -0.387658593363513
Ni 3.5616383441895376 8.74162609815491 7.528479790278593 -1.760866536973864 -1.055297979695886 2.049621219480612
Ni 5.540137612514781 7.729490201042305 3.43806887159031 1.4641782014423366 1.1822192017011834 0.19426664132949123
Ni 3.3374982768857397 8.462422772015499 3.509076226947744 -0.5728119595378264 0.20330766848583698 0.20307164121563087
Ni 3.5493142732279797 4.497931708804005 9.120938660999741 -0.17353917897415275 -0.1370408269378027 0.2533202529585379
Ni 7.133611834108075 6.262053898980702 11.307719269500504 0.6950771708283514 0.008513693897965982 -0.025898722143632816
Ni 7.5821825879277345 8.985537353729388 2.5601981422658993 0.7352681412249401 0.21607705233636335 0.09916462071731955
Ni 4.9090125842675025 0.14849097821869084 1.4101570717340086 -0.5007801904815569 1.500873499980841 0.24739848815746426
Ni 6.356150950736563 5.784039786238882 0.3511324893101084 -1.0737171056330217 -0.16230294393870112 -0.18641474938524025
Ni 8.039880601376256 8.72065610563447 11.19506799742448 -0.18584010782869284 0.05762793492611366 0.5624213603321216
Ni 0.36136591831488635 4.979142632878521 5.775065101696352 -1.054064621509417 -0.4417332637207295 0.04543396396308304
Ni 7.569032068581873 6.2327558496645725 2.660103037337837 -0.4558442492008149 0.7503330059778627 -1.5413004976476359
P 8.837630338489936 1.5389286282291688 3.4077763596579023 0.9405074795158512 0.15042059067881836 -1.2973364890930172
P 2.1007046469978494 3.1499853121522907 1.304416179609825 -1.1928093185122037 0.538190512809215 0.3007247103844305
P 5.057491756080704 1.2731482769469302 7.827248146685126 0.8974039634581576 0.31659587308873216 0.8228741105703828
P 8.748083293772941 1.463894380414583 12.216945995436467 0.3467446287579706 0.5373747017761391 -0.08669914126045714
P 6.566940697986204 7.802671751379988 1.1701882474081768 -1.3593640957487234 -0.5712641554347323 0.35951298416723243
P 1.7106845825585622 3.184941354253276 5.969210541760108 1.5170881620674905 0.38800980605534463 -0.27045974085230196
P 6.988274982525309 4.24373979860279 5.626936489307703 1.0380988422087798 -1.0705361368018789 0.19761704585896286
P 2.522856298070882 8.859335960890911 9.77116736151499 0.5182883745686493 -1.5505438706227748 0.2747830508180042
