# total energy = -340858.1359744136 ev
CRYSTAL
PRIMVEC
9.34317945441839 0.00000000000000 0.00000000000000

0.00000000000000 9.34317945441839 0.00000000000000

0.00000000000000 0.00000000000000 13.67468755459395

PRIMCOORD
 96 1
Ni 1.2424466334259818 2.3582838448413037 3.649541115302788 -0.6404535699462002 -0.4058208660948366 1.080465994321081
Ni 3.051594461054202 4.114474532483071 3.105657833463801 -1.9895317103878836 -0.4086745334935479 2.0001051150283553
Ni 8.268947215333469 5.848858239756388 12.834186233664882 -0.27299510567964597 0.7524541660859234 0.9784050258925729
Ni 6.6901554721029175 0.6798956794463934 3.859447783276965 -0.4139668922407387 0.1065979370669132 0.2836898663893308
Ni 8.185484595097234 4.926873311410741 6.962945473698269 -2.041959589170296 2.1665107682815203 -0.15135878622237162
Ni 4.011447294898278 0.08277402792554313 7.642878525861662 0.5509920354492575 -0.2027602806227992 0.578657619685326
Ni 3.8795496334323727 2.363366534353059 8.413570286937261 0.9158927662909645 -1.7128918088667984 0.24253138987315007
Ni 6.06938529958353 7.825818909885786 9.269551259792385 -0.22482265973947735 0.6367771495358775 -0.48144318071584186
Ni 4.658686694231642 4.984090941134989 1.9954648366331325 1.872626220747375 -0.5143720702333786 -0.6520788128899544
Ni 7.647840688361098 0.7724024971961932 6.3107037361946965 -0.4836730984876251 0.6869475997426814 0.7535561409008505
Ni 4.546942270407018 2.859386577532448 12.40113641567369 -0.7137397802348612 -0.6231055655860559 -1.3060733547453827
Ni 2.9264986340819696 5.451483483093754 10.502337980192255 -1.1410519834342543 0.42715279480339335 0.46002691982359484
Ni 2.371775395677655 1.3033641621330514 13.657785615876913 0.07126223788009663 -0.9604152741833718 0.012136378252217809
Ni 3.596171006793505 7.7879603475666075 11.930302780797314 -0.8980192284446535 -1.3917381412040546 -0.03002097184212249
Ni 8.614831711151831 1.7416059848332193 1.9082070169857301 0.20305004394907614 -2.984851509757924 -0.1590561548666293
Ni 7.359370029031225 7.432770045215694 11.137157491349194 1.1012358798785808 -1.4298298058694536 1.54961441682997
Ni 2.647212319954405 6.340421586433742 1.8044024268873735 1.4871800616541484 1.2256747017816567 -2.636604328312498
Ni 3.0214627079744014 5.285520590083988 7.980028083399618 2.3176957479301894 -0.0017311237584937925 1.3877773567840939
Ni 9.023698578291413 1.3438107851043557 8.85743670354566 0.41286825985992115 -2.543939199276593 0.2802584721102786
Ni 4.9629286401347565 6.982101794113624 7.275644865458077 -1.235174413741976 -0.3500970901699712 0.1843838349981405
Ni 5.622323515671786 1.6265073596580062 9.812545070966815 -1.2554241651299476 -2.764418751556026 -1.6483090398894065
Ni 9.208058191243543 8.550849619650908 10.56472145372358 1.2893928087659083 0.27552121453560935 -1.3606666166102308
Ni 5.663022404482828 4.78780008828118 6.267861522063807 -0.3575741152733068 1.112233259430349 0.6695630857176469
Ni 1.140848902266369 5.345382339535858 7.122693283871235 -1.5760119329868925 -0.5944395651099311 -2.10203881385038
P 1.3896671088611496 6.829004458930489 10.632192288356284 -1.8824712318622547 1.3386538597845656 0.5431185462384517
P 2.754201065541008 0.5736506509280543 4.055488238926884 -1.113313122758089 0.9183360856251346 1.7672690980660983
P 0.34242004495262773 2.5138664657048193 10.796835924456014 -0.7960037685421001 1.2255296915633602 0.8655585368127867
P 8.19035239148625 8.871470158778486 7.914307226240354 0.3023666168632277 -0.4209890891948427 1.794035824636981
P 6.520586111902825 3.9288442471530014 1.3951599639419605 -1.368910858896894 -0.6591416332740068 -0.20302304736588261
P 2.3087556516394363 8.168190370306316 0.4580596402063899 1.4656866676670628 0.027684353289145872 -0.6025118005951043
P 3.810662372825437 3.969421674633799 5.528197524958039 0.5005652462572734 -2.6679697299976564 -0.9129722502100599
P 3.0877151920329644 7.711663945814777 6.700076994148016 1.1459080259749748 -0.02942858967376222 1.5728332781485945
Ni 8.395622039598877 3.6021226119754686 0.3895956256194583 0.4001958065985753 3.9587766455022724 3.148254371629023
Ni 7.732742158201764 3.808578843852787 11.966349700660004 0.6860528558425538 -0.8959687736735278 -2.710228381556552
Ni 3.138775666631758 5.8791675132419305 5.5851666261142485 0.4991593670486823 -0.12159286781384866 -1.0373920459497425
Ni 5.20504778720761 5.97500984598382 10.961916821344621 0.5555518869057982 0.10903251465033481 0.2202584374075626
Ni 2.467047794485322 3.0332724865458336 7.038990543928287 -0.661555642032138 2.5504523178047624 -3.9091633533505195
Ni 7.259575531466775 8.125435982060374 0.14651039381220207 0.2048495590516601 -0.018978855095347958 0.08022021840433281
Ni 5.95858453686311 8.30489042590649 5.377187456019254 -0.6784092232543671 -0.21600351878595056 -0.7793137094809288
Ni 9.378216171736357 2.9132219763683587 7.458762769887944 -1.6769927809773442 1.8890936222747787 -3.1132326041381995
Ni 7.15429658768284 7.234732017842221 7.0768827416927635 0.8247124493307022 -0.3824724211768832 0.18220225396578943
Ni 7.340001618446906 8.00782404166703 3.102854879688936 -0.9597652993041987 -1.2628551674866961 -2.3312688586289334
Ni 5.760051320989411 2.4283763755714323 2.90736193434304 -0.39674924281087154 1.327155886447295 -0.673582234179369
Ni 6.644738277770852 3.5996092967573396 8.380463665584404 -0.21069547630947585 -0.6605274578779399 0.5081991086534474
Ni 8.055184617283002 3.6131849362069364 2.8248345663496854 1.020271841329688 1.113314922530302 2.0275922647050306
Ni 1.3580778198184194 2.7978804285326566 1.4353776790216506 -0.42463542769817836 0.9617465914002856 -1.0841437002829846
Ni 8.884644041520351 1.9697570789279941 12.993728493894357 1.6953507146592417 -3.97729064514606 -2.2706702711102698
Ni 4.2562853071327496 3.8258450391059564 10.011608045103962 -0.13690070181551262 -0.18796152504706984 -0.023155612180856894
Ni 3.4637314409311264 1.813417660545265 2.434463456852514 -0.2563261296643972 -0.925450842293045 0.3621810179176988
Ni 5.845943167830529 8.863575172312615 11.716212237155188 0.6507498096658857 1.2078613277493198 0.09817114645579868
Ni 7.238796300815776 3.1457830510689213 5.884491256778324 -0.2640021581524163 -1.649771740477862 -1.2051701540704016
Ni 3.5908547378005102 3.264170475339976 0.6647195533913484 -0.42106570806904897 0.6753046161871145 0.9370328907036894
Ni 6.320230976075463 1.7122964315273794 13.738274302158015 1.1648920232766455 0.596690823037953 -0.8284076387941024
Ni 3.6982732696325935 5.10316041749126 12.911871966171121 -0.8127645329402068 0.8639145734514606 -0.2293254327058373
Ni 0.3170290210240492 4.907504900826423 11.095107578818666 0.47470226244758246 -0.3571514259135914 -0.5290199020535405
Ni 0.4895956731273978 7.709944800832861 3.2684412425749456 -0.2489640328723712 -1.8983804468933434 -2.3555177038739687
P 5.065058932511593 5.197722734675962 8.517498207001713 1.574919728363978 0.41268211199104415 0.846432100395981
P 9.08256060756358 6.922305446916501 5.934130633813262 2.1792261589656596 -0.07090639720257466 1.5043133789003253
P 4.386445137258239 9.000957279998007 10.196571227435616 -0.5564957388763061 -0.10198512088525016 -1.951936782853245
P 1.5460906158571246 5.835179825335046 3.3667903503094894 -0.602347249992782 -1.088451583629719 2.3613844470673913
P 8.896640683676774 8.578411998437083 1.3834679094290727 0.6279194420349316 0.3823322960545931 1.3460491238073722
P 9.230724744102952 4.020360687902349 5.411989864405904 0.9462261271671835 -0.7749353779075752 -1.419759051897013
P 5.8132980995326 1.6346078960673667 7.294994589683896 -0.026801436463560292 0.3753224403956633 0.7527675835612841
P 8.014850112462693 0.04454454139015717 12.208090448973252 -0.2678593271149774 0.7824442846901104 -0.2591502293767537
Ni 6.194051340310283 4.501095289829474 3.9638540741189923 -1.3176965408066081 0.787937703704514 0.24430236573064373
Ni 7.295537428398296 5.816755075854933 1.975308796038077 -0.07031298659294986 -0.031164855638578584 0.13614376904483005
Ni 0.7498452595340035 9.006404353500495 12.866650044285372 -0.2663400622569736 -0.7307589405006769 0.23680734290517924
Ni 5.407224842988634 7.002441895339895 1.4895699873048938 -0.6129677058211056 0.896127153628263 1.9996083778975948
Ni 1.1493138226664619 0.8014653905698452 5.628105074991408 -0.11389627050053933 0.6831089427228816 -0.4461164803900897
Ni 1.4483422745483268 3.520042782268167 9.107232206689943 0.6362608720210913 0.847488052464321 1.8397734358834124
Ni 1.63765377250272 6.313774839214024 12.727660909769057 -0.45977006661778236 1.133979649968505 1.0078392719932898
Ni 7.511533046289405 6.2215576600209594 4.834713125611099 -1.1128048156631027 -0.24809679977606952 -1.1052367735078579
Ni 1.853350408657844 1.2031398783231224 10.401828729415216 1.2104105765337347 -1.5286470705496835 -0.9297384139248052
Ni 4.4605832646034225 1.7233961284758454 5.646975494121725 -0.5013933985855236 0.39833124258601077 -0.9491931802153072
Ni 3.904411833415427 0.7956109544520769 11.9134691747434 -1.0473224176895768 0.845426541949602 0.06186562715654506
Ni 4.024546432206147 8.426753512858378 3.348671122790836 0.9758143823472615 -0.2740209758409991 -0.9755325894407845
Ni 2.7379719631845387 7.768227552991556 9.37223373406287 0.5574313633166981 0.6496576050429715 -1.2087020784830602
Ni 7.400283810965006 5.701983461953454 9.738715268536865 -3.4046062123250334 0.9661717170511748 1.037306942435104
Ni 9.230939637225692 6.899162391915363 8.277083255823978 -0.6373335362599798 0.1661158899268881 1.4463447728053416
Ni 0.13136883752038045 5.919006829562014 1.602126333406304 1.4041190313669107 -0.33454577269893354 -0.673920077134762
Ni 8.675085874132183 8.679832209190954 4.718396149861745 -0.359899935193006 0.493800416729614 2.776508849951341
Ni 2.189929097943653 3.1465959076636323 11.826033834690254 0.20316471515006948 0.7880971121005137 0.7086983611562117
Ni 2.0827815183098073 7.762873911281565 4.9177870695905535 -1.2104622557072766 1.4241772355693665 -1.3469132715798802
Ni 1.2534528985819522 8.448896847679812 7.279555920291939 -0.6797762788052227 1.4317802447276051 0.5884000437840705
Ni 5.8935653524654885 4.554519588778403 12.964150791344053 1.059731589987207 1.2983433330909768 1.616934639343183
Ni 7.7662748285284 1.6300857973105842 10.59122338166493 -0.9280695108628146 -0.19329759254800258 2.6610871439452106
Ni 1.5599558938634577 9.436237314876067 2.2236682525317044 0.17915266850618822 0.8942271083920729 -1.219286795977442
Ni 4.824406664580921 8.674796235575446 0.12558167229320885 -2.016539863545611 1.9490769448069465 0.3908724723151204
P 5.07489730026137 6.566722731037106 3.8586414669077285 1.0554414472522855 -0.26278756901902484 0.043252125820415835
P 1.5335146965872297 1.4306369498704288 7.796403778654427 1.3367031638160978 -2.8252052867157795 0.8832114740078595
P 8.571675566198156 1.4394008520065071 4.3965348365298285 1.022051044717298 1.8338275027126225 -0.5998113709448057
P 8.810057441571189 4.7270787663383524 8.945064513091344 4.264942581506933 -2.558121918534878 -1.0922987252899512
P 5.2280133218030045 0.8528528764423732 1.5625243338391592 -0.6656611795600794 -0.9138767643022002 1.4430365343677147
P 1.2297866255428407 4.371729629940196 -0.13457821959260108 -0.32505737359252407 -0.33215464675893763 0.2410049259262946
P 5.703768009190118 6.7874366544492375 13.103768721823863 -0.38144089458857533 -1.3023758512891377 -2.3760572185882176
P 5.995135054087352 3.253930350882469 10.9130155554704 2.0720530661215673 1.1984791152034715 1.1373588508533832
