# total energy = -381164.62990736193 ev
CRYSTAL
PRIMVEC
9.31285435603096 0.00000000000000 0.00000000000000
0.00000000000000 9.31285435603096 0.00000000000000
0.00000000000000 0.00000000000000 13.63030370780158
PRIMCOORD
 96 1
Ni 8.116189704537867 4.54541788791657 0.9167741325985604 0.9642796422347845 -1.14381103423663 -0.23243363931751582
Ni 2.972392994394811 2.237338723629021 6.465206908336733 1.3937469441039674 -0.05681340944461828 -0.4315573516289923
Ni 8.602460387658592 6.5954658003181486 10.630941592256455 -0.4306746919137228 -0.10390624916736299 -0.4519369437266088
Ni 9.198427180641982 8.528451135168687 0.31233264227456226 -0.6692648377509377 0.824264048939374 -0.6699634064798591
Ni 1.9820175123212012 8.69394986752028 4.376186563593421 -0.834651305710969 -0.4040905136672912 0.7580434872482429
Ni 4.055841141547585 4.8530214628179875 0.7767190492626554 -0.5693234867685937 -0.05588652675497472 -1.8398981343867347
Ni 3.6441757335868736 1.5331938160208998 8.928775349259737 -0.2854469582897536 -0.05860186880360876 0.02043358526400352
Ni 5.019051027860146 0.2717956504237934 1.6592172219028547 0.2743433921774243 -1.080723875968158 -0.07834305598627798
Ni 4.210956041443378 8.965410255192138 12.90356299538507 -0.1384832158112841 0.2539211197673304 0.1755019591274784
Ni 0.5648804855955324 4.661903068505942 4.854978093489704 -2.062205998124158 -0.35415660495132556 -2.1410823009060866
Ni 3.867106837915973 2.514051561081211 12.484731346101723 -0.5970749458502491 0.15176142097742895 0.35776720512071936
Ni 8.457561688842633 1.527159086486049 3.566164747638441 -0.14484849590767956 -0.49366517670333043 0.07922674414281194
Ni 7.389358684048733 8.780987803064592 12.058770706912624 -0.412593923152612 -0.6999488970983558 0.30534858230968703
Ni 6.75369119352357 4.90019106944456 10.050263712046776 -0.005436340524222896 0.6575475493140096 0.8566422081597634
Ni 0.46128708910352795 6.375943200633733 1.4164888520719257 -0.47968634592573517 1.2822276584760368 0.7958088789224745
Ni 7.9115211073350675 7.8896079613543515 2.2151564361613345 -1.379657555890437 0.09591371788018967 -0.16895593047884452
Ni 6.239789271930774 8.603875941500101 9.110658186041364 2.3123817919164433 3.8796386044185254 2.4158908056453874
Ni 9.112525413312564 5.1627763070443295 6.983104044390102 1.144964174004467 -0.199640761157211 0.8667975514262104
Ni 8.121153455837366 3.703414799283147 8.471465780193762 -0.10986606629522369 0.14897074560616927 -0.2713328874858747
Ni 3.446249642839679 8.122503819699332 6.210838402015665 -0.40560515053960466 0.0006934265225988057 -0.4662394763922099
Ni 8.902026969367764 2.972039105934434 6.038237687035559 -1.494748875140342 -1.042729913222888 -0.12819391807013408
Ni 2.207742472916435 7.510770364520722 13.15014874943411 0.40078150389871625 -0.24243420217365344 0.4728685516729534
Ni 8.244064505838848 5.855196331188907 3.4656958137373977 0.10074739182340715 0.5228520826799318 -0.11951438801826512
Ni 8.831295841563456 4.355770924571354 11.624699502982935 -0.6322340102498853 0.007962963600818542 -0.3599665267648833
P 6.922356296310116 6.729375331153979 8.794803422300628 0.7384074581848702 -1.7777908235330284 -0.22843428835013566
Ni 8.571429957396058 1.3039299708218952 7.921673049720779 -1.391352732840178 -0.10626292232499764 1.678490448568793
P 2.459077782617903 7.451326416031598 8.353985986773647 -0.43038544280807817 -0.27286423652873654 -1.127635195807716
Ni 1.0196550957427006 7.36583441428788 6.702510540584251 -0.12092052433717239 0.6833660530390101 -0.4511249893482747
P 2.0225377410343732 3.3640916429068812 0.5822238140102739 1.7979426158905554 -1.63344035030769 0.821722770574759
P 4.549915996505047 3.345000291754961 9.882133167092485 0.023100076352573117 0.3856315356311552 0.579115533158351
P 3.085544173173262 9.070021546650437 2.3458707267141294 -1.7068391749148153 0.7326466444416931 -0.22701606784637032
Ni 5.963039183061702 1.3374469331612897 12.981119514047544 1.1960609926802819 0.10184371021137943 1.1881995876543343
Ni 1.9235979777963268 0.5212702518520156 0.5345708702496602 1.6286578413173822 0.7853743138527118 -0.8082041672630339
Ni 5.860597786636768 7.36250972533118 11.153036962992404 -0.3331640618600585 -1.0767700335267325 -0.30188813456491237
Ni 1.9008653006442118 0.14913604748626444 7.47055094099887 0.5308435855258405 0.619780614977881 -0.22528648674977328
Ni 0.17333363660725612 3.6489159763850822 2.668240763267491 -1.7295682410812148 0.18424833786154074 0.10341928222861543
Ni 6.1115605821694166 1.9361703309939327 2.776656355674844 0.25641226162030034 0.030336703310328398 -0.5211137598325865
Ni 4.0436319896645765 2.299027069985273 1.4233989899034984 -0.7916835439001914 0.8578822512144516 -0.6273910803352872
Ni 8.808395533035373 8.205946993514551 4.336549193460348 0.08912626264471103 -0.014930910278219444 0.13101981755470338
Ni 7.545050980906193 6.233978050897214 12.904039813521155 -0.12985793603611828 0.08449493452028674 -0.9199078009876286
Ni 7.27781862905042 3.7657829839974917 3.349319593542405 -0.08202024772754907 0.10709827374209943 -0.42518615799532583
Ni 1.1566099299086183 2.6261876387496335 7.781362794179234 -0.31589730435981084 0.36698563839519377 1.227872223653608
Ni 5.466328790359854 3.0643853683844027 4.7788250219582515 -1.0924715034223895 -0.06181574775521612 1.1294732774577192
Ni 3.8730763774712806 5.788441792136731 9.389889219274764 2.6072544143954715 0.03796233817638623 1.0950189524345917
Ni 8.918501408483738 8.232237180978878 8.714738951996587 -0.5457415856835955 -0.34686315661370587 -0.6784804428119348
Ni 3.112197561952186 6.894957879193556 1.9617415661124404 0.1392000393726506 0.12002680887830944 -0.3745711640519356
Ni 3.11311022166579 8.310446530722205 10.149655148714514 0.4892832455855509 1.6229345656803595 0.0895803194629941
Ni 2.933521140878659 4.20602022870654 8.103828753131067 0.19641711201359077 -0.7418902745271481 -1.133631522600467
Ni 1.9721458868475257 2.425635323112272 2.610420976554414 0.6810777712254658 -2.2661124765362586 -0.5318123771970131
Ni 2.620590613363144 3.7527449880888635 4.481630424219029 1.5491223076849 -0.6664232545370845 0.7789408995225424
Ni 6.55210515106774 9.117656795988031 6.828713684552661 -0.12804813652088914 -1.57089698035783 0.29581673155985183
Ni 6.116086629320555 3.239383212040853 0.8357280874596842 -0.5443416200122755 1.0816962671837562 0.3558021109745485
Ni 2.794014584656338 4.987247630697314 12.024640027480102 1.4476645200580294 0.1559428060486282 0.4929511813554413
Ni 8.085354844213962 6.888876585387602 6.159288960049216 -1.9399297310900396 1.105803187534289 -0.09897872995875856
Ni 4.6690925919641275 7.616862399800073 8.22538385155805 -1.3791572192152508 -1.0012670180924113 -1.7992615918122947
Ni 0.6691034310328392 8.561008873523376 11.302384412269472 0.6118001678755657 -1.5348418865064857 -0.4336170623714984
P 4.3051089976121135 4.574678875877219 6.251743251608142 -0.33053228066416623 -0.32270275731741843 -1.105307221734477
Ni 2.0113716288240555 5.375453958876716 6.19874845466668 2.423665307384484 0.29727917503799123 1.0097249190517772
P 0.8887377849678998 5.076362332732788 8.799519451677863 -0.33482756560541044 -1.7992682766805141 -0.22279303090395822
Ni 6.645904218776098 2.4012542707631375 9.987713926675134 0.28834202044936147 0.15808710608514065 -0.5319422179066581
P 3.85126567288699 7.177081484947827 11.746622459151624 -0.3259076374079613 -2.099399062234688 0.6542377682144862
P 7.29919162948635 3.2425588953300264 12.674260036198339 0.30002048522855423 0.2474835916721028 -0.18229301390738284
P 6.245572554401673 7.481909829291552 3.962260925913407 3.7388737916619155 -0.7116510160266325 -0.9138371693135166
Ni 5.3505420738370155 4.316908383909421 12.243420392683145 0.6867642800872817 0.5777574764685598 -0.5256730970684946
Ni 6.209699439944505 2.1786956806028557 7.2677598152069125 -0.04921220005859266 0.23063720953872538 0.07683664664408058
Ni 0.9743387471059974 4.946438703503309 13.454159425177277 -0.37165219063292765 0.5852787245462694 -0.7006168696996579
Ni 5.439628837309828 4.419601227398308 8.111257616942718 -0.06530550607602946 -0.1541101237152636 0.3744338671431229
Ni 3.7266410577089464 6.061075599440365 4.5309177738953315 -0.8984257198544527 -1.5271422038693827 0.12268584376771129
Ni 5.480409825941171 7.026595073599597 5.874797095466684 0.4732439327345011 1.084874150691106 2.051964780012124
Ni 3.4735176799971526 1.079965139674326 4.337230894389284 -0.24583937120046045 1.3859552159736905 -0.8113262578317832
Ni 1.298156001205217 2.8805682517811877 12.224187486147075 0.15183084076278366 -0.9428309854427053 0.7853234060101184
Ni 9.164276944215597 1.8964975720148214 0.652035763103023 -0.3765537416996031 0.6922821245817175 1.4757088277897552
Ni 1.9573384486370125 6.168126858704422 10.215026728914955 -3.160892114997692 1.2058139583019878 0.9707642215178636
Ni 2.196613612122999 3.3515006640008345 10.160955366025608 0.40873649707973475 0.017019417376131978 -0.15254457900035664
Ni 6.120100469489568 5.318645548131979 4.636183759005329 -0.036274923171634305 0.31566770484750795 -2.2427588894119825
Ni 6.9810459036073835 4.524175267439726 6.465220877618064 0.5013252643517495 -0.3899689866642445 -0.0124150858349012
Ni 6.101977655176576 7.973572655005917 0.2718934353931081 0.22710117136100888 0.2338821988385843 -0.3054658246138417
Ni 9.163168714563364 2.4842224890131144 10.096811220011423 0.10031107561693693 -0.6210473975054466 0.6796155848576425
Ni 0.015639076092399395 0.41431025855931886 6.052863524588773 -0.5874705899912657 -1.5088205227420595 -0.41421166126169306
Ni 1.2004548475784904 0.6130903380385287 9.572698685051327 0.09236688106919577 1.145761987315414 -0.05986376623516787
Ni 5.140695529687647 0.961663952511967 10.93219845700664 -1.3847095164920475 -0.9907725463189905 -0.5964157149996955
Ni 2.5360485227499105 0.7229401099958307 11.691815380778863 -0.701220821832244 0.625743003208903 -0.3503629422368482
Ni 2.113412572517511 4.773880827652615 2.498325875444562 1.2424588632185312 0.2414661818334293 -1.3520541923508715
Ni 9.016649579113047 1.0075576981103378 12.195714365653474 0.3568714327793273 2.5040166520500424 -0.4419150407142325
Ni 6.466948412075957 5.970834042044218 1.2211768795044107 -1.6595087652599678 -0.6310081082625842 1.950575897949976
Ni 5.667840329981922 0.6678974164112911 4.608637267506663 -0.6140025748435232 -1.9712413967191276 -0.2943805133339575
Ni 4.580071018470859 4.419573288835648 2.842872611753078 0.8028570440185077 -0.7222611874423109 1.1313165013140452
Ni 1.3430346456935591 6.549683808970423 3.5917350514715274 -0.4859649798455953 1.035267543407572 1.0896211784577878
P 7.304919034831925 1.2740077702115937 5.563958235009082 3.072466477964431 2.057336842957315 0.14667166515934738
Ni 1.1804601495671874 1.7398646768810957 4.754945001166178 1.1088846546730904 0.8520651303120422 -0.5113795632639581
P 4.463390267942858 0.5669758777951334 7.090225150060813 -0.2002927929189131 0.14038943169506143 0.12635737908202754
Ni 4.361675274147118 8.083361893410785 3.777229413119845 -1.3651087115419844 1.1783784877988546 -0.21964780040675722
P 0.2279647020352519 6.9436268553496205 12.608985309681792 -0.3448016460989868 -1.8714800229580737 -0.3812634884704466
P 8.087003219410981 0.2594300425898817 10.222945448858601 0.4978799861156264 1.3124255222156558 -0.9253703667640966
P 7.364893816011614 0.41052458331870656 0.881433713402802 0.024385113712583808 0.1666059421894292 0.5387127038612722
Ni 0.7782323880734784 9.0750598007837 2.3601007679629746 -0.22031551589774317 0.09100008262865619 1.2704939149788765
