# total energy = -340892.63320413226 ev
CRYSTAL
PRIMVEC
9.08156824108707 0.00000000000000 0.00000000000000

0.00000000000000 9.08156824108707 0.00000000000000

0.00000000000000 0.00000000000000 13.29179309982070

PRIMCOORD
 96 1
Ni 6.399590486062758 2.042326656022381 11.451092082277409 0.5661507454675668 0.2358447218815938 0.14944845657353617
Ni 4.762065656582336 0.0445278376568825 6.2162390705114 -0.20188199178290392 1.0187551475748455 -0.46623356285493894
Ni 2.5349018404305412 1.3812883791757289 4.833573925577522 0.8818153649912813 1.2671851623206178 0.8820210532441842
Ni 3.3120661314556843 4.5413926278404 4.578145734853799 0.5482779789522041 -0.8794388943393048 2.3483360985238653
Ni 4.9852633613187685 4.369387723754953 2.773000582475495 0.5074848561952421 0.5223072659200553 0.08344746709237887
Ni 7.314558494859419 6.293408789200718 2.6168221275109413 -0.42454363931532046 -1.2280755979136657 -0.32496532809935
Ni 5.2537054394529665 4.6171329076752805 11.390601571974752 0.3669748397619164 0.34277844502137095 -0.26067335088949944
Ni 5.6586253263831585 7.7139113804060635 12.351531398066895 -0.6396704119232725 0.35608930319766413 0.7551126867546931
Ni 1.9023524434210612 6.443073035205372 0.3247450772819572 0.046911319839557916 0.12642294221264033 0.02398222184721031
Ni 2.7425246554886975 1.5609490453595933 0.45397942718151074 0.43361937636434356 -0.45144869123628056 0.4715184654029621
Ni 0.39969616882934905 0.20863268545595504 5.078036122548171 -0.04818221613218154 -1.3883897935571121 -0.34831171613477435
Ni 8.554474099911697 2.261855407155301 1.4352873844393013 0.23708039406090783 0.8485329487890677 0.15206275426793167
Ni 6.800959479777668 0.7470243820663898 4.857751784930567 0.7230332897216452 -0.5884522371782446 0.5019382153454002
Ni 0.6552960011944228 7.288585209448417 2.476181327794528 -0.029266095953968955 0.40177420682928866 -0.8417452364432729
Ni 7.620480205473061 3.9330637735550957 4.036943292846615 -0.010034244307550462 -0.3366139680818719 -0.48815221730490116
Ni 7.65800524579413 4.015696963749049 12.596220634245682 0.5768349646542904 -1.2997335285702842 -0.7581928683419136
Ni 7.620380308221479 8.83316018711709 7.2643101773142895 1.1589291208249912 -0.1749059774146923 -1.1263478444548602
Ni 6.770999385871761 0.7800713010461434 0.2884051816273682 0.784802500509642 -0.8437522395709727 1.0187230087853294
Ni 1.8120907358336664 6.709290129099817 9.213857715009441 -0.7296443672802595 -1.156639810570182 -0.22792649547578167
Ni 8.962708759280705 4.830413539800239 1.1999830409681114 0.5750637316864806 -0.08487700045005382 1.29299492429487
Ni 6.556556313001135 1.9568781796475145 7.0814818600984815 -0.9126655176029186 0.1956342111009792 0.5134760407816704
Ni 3.6612251888671503 4.592376552419899 0.6503510872411742 -0.3278727315541321 -0.0901107380451674 -0.41508146546115615
Ni 5.780154873715336 5.4526371936235964 5.033016972044877 0.4403772639134674 1.4721583914343355 -1.3210024652513894
Ni 5.242262663362806 2.9770107496537577 9.470814333682346 -0.1014960970639736 0.11811879322231916 -0.3556087640168198
P 0.22276633024096987 5.679367628438658 12.497515792586048 -0.18273961452649817 -0.883542374984717 -0.9402673384805871
P 3.9708340162209548 6.198642623723862 12.46730323108069 0.580977011847122 0.4738008336792356 0.6961665472377881
P 2.2167745019873943 8.511518281731965 1.461139884991574 0.643594429568027 -0.3110024381613547 -0.8820542204749648
P 6.4701996797937165 7.6518388609010985 5.776307921372644 -0.8585101146064376 -0.09380232796414167 0.2101167209878704
P 4.876602396303859 0.8160315871447253 12.693090999103562 -1.7804061496686885 1.7863500259569496 -0.2286798287020384
P 4.082691693286448 6.341041615068097 8.097919139953067 -0.7236454693843473 -1.5924099147289414 -0.7951244512609403
P 4.824210828633905 0.9557170058732932 3.958415879692632 -0.9232070405641908 0.3643924237467208 -0.10596004637259818
P 0.12109363205255275 5.451547405424534 3.5646200058043767 0.3156365944992564 0.4252311523006483 -0.4737519827191712
Ni 1.2399246866206037 0.9643808220558442 2.7150483705198214 0.10093559657481328 0.33760744234339274 -0.2527983190167969
Ni 1.6687381798152516 6.77504068377662 4.492958807646709 0.971550464864585 -0.06060270128372144 1.6743000646365296
Ni 6.073271572989987 5.5380402621568345 9.012858995887921 0.08007366552413951 -0.23662582302199248 0.9532413821427518
Ni 8.75226157647331 2.3830035286178073 10.038068162588132 0.833779701739293 -0.21404690928021203 2.92807898085357
Ni 2.335634068231868 5.181270850488578 7.093099002300494 -0.9801150666051444 0.7163324806627018 -0.5435409784878511
Ni 0.49122929598231735 9.188821647449632 9.352677660276584 0.9734335408199105 -0.05934260362437521 -0.10018200623824036
Ni 1.696564105164661 1.245600666824057 11.428057592376549 -0.7365927735736347 -1.2596852543991468 0.27209239135971847
Ni 4.082918732494587 6.960113964682497 1.4323240686946825 0.3370397427653809 0.8887483446656889 -0.6913092191454868
Ni 5.6659541520218575 7.829301787550187 8.13031036969972 0.509281800194665 0.4497293945523287 0.5885064874549478
Ni 5.166876564692621 2.8301708713983413 5.083579511854071 -0.44687572715361745 0.12269869928351772 -0.36858332189961684
Ni 0.4554660799163992 7.38849154259752 6.864639436876251 1.197804714844266 0.6920751507772339 -0.15426747522873432
Ni 4.791835037553407 4.564886645098534 6.967385576440745 0.28896062786996685 -0.0646825277800499 0.5190440217877513
Ni 8.211199898775172 7.272574404490517 9.123101061948303 -0.2617231323102525 -0.3665904598393041 0.3423840377964297
Ni 4.7195003458406 0.2319695915820571 10.599274575145952 -0.3536907210585005 0.007962449380186287 -0.7919193140600813
Ni 8.287439664867955 7.201029809222029 4.72272066996883 -0.4852229594732482 0.032937888378601336 -0.31057640636752964
Ni 7.354172295895361 6.004251653715996 7.0533562429943295 -0.6482463265177416 -0.4187591714230594 -0.7297050453148659
Ni 2.4301641129322595 5.289741102568652 2.7015440784197655 -1.4760754671005547 0.4605241711749875 -2.0795581162493604
Ni 2.6365427531298193 4.953496035316081 11.405182938078214 -1.4937762268144275 0.9962122292773231 -0.24742291363749647
Ni 1.1104215222986147 3.412417461452737 3.6808831516645824 -0.32132413180233693 -0.5128643753396006 -0.20458859208078956
Ni 3.632146007088819 2.3994411672870077 2.7368731955197236 -0.6964012889564135 0.24367090279423195 0.12912799984862922
Ni 1.3791178843459282 3.044386905060829 8.232644206062234 -0.6594725342508642 1.0101920884961828 -0.5226471657579773
Ni 3.601023472437244 2.541404243351617 7.135513559008026 -0.060522482865089315 -0.09834418169855322 -0.4629590058687253
Ni 3.882960761103173 6.829766214506234 5.892597403780994 0.010190053159124387 0.32824862683631206 -0.423545022847477
Ni 0.6431185262267259 7.530881452373429 11.450933154831713 1.7372280716193178 -0.8244980193270509 -0.14286257582590237
P 0.16838499095089254 5.623216291481936 8.024095979191706 1.2385780401068862 -0.38819955346864754 0.6983062192886103
P 8.575198238830547 1.6747138517734472 8.024827045441912 1.2972863525813723 -1.9281553641629305 -1.2778495840129993
P 1.8549284936251689 3.152621036364438 10.426920030679973 0.12493170237909451 0.6812245812159752 0.1761251945337741
P 4.212085878788531 6.34024243705545 3.45841832949202 -0.1951783545104832 -0.3661556862947307 1.793751717737659
P 7.093340572017952 3.9265704522023452 10.211447107961233 -0.5670154074607073 0.5303393921959125 1.3102519116031048
P 6.4643874760653794 7.84551238701125 10.321795428371022 -0.4605388264630068 -0.33546905584415126 -1.1791624171527306
P 2.3647314131468504 8.460107523441165 5.813723982873808 -0.17854048884348606 0.16232582675683654 0.41563091020672294
P 6.811130836302256 4.083018629746167 1.6864363401680351 0.9864816322531202 -0.5595543231969718 -0.219187572940887
Ni 5.330344794552075 3.0463121975458405 0.3125485310207769 0.8198196400147753 -1.1029996566472229 0.6412698951999085
Ni 1.6677028810261418 0.9008579760892933 7.281869389671692 -0.8339859042128283 -0.6464205861629124 -1.2009589442025317
Ni 7.095320353912916 0.8011514374433524 9.341471913119719 -2.286575629486617 -0.31005061577104664 0.1349474347438837
Ni 2.854945389790374 1.567651242783831 9.322092754469882 0.7636888584594783 -0.7118700740159741 0.5424456885411433
Ni 6.379847156523066 2.1420513578049727 2.812663423980394 0.09072137504597279 -0.029077119871614442 -0.8103867767366496
Ni 4.169229957860378 6.768865217315263 10.181114669753978 0.38654222037088265 0.47404688825177066 1.3242803646717127
Ni 8.365223297576078 7.324248528262755 0.3816111336658982 -1.2300046966155784 -0.5261754906262099 0.007006513224820191
Ni 8.103229132953002 3.7134260436022695 8.284854142365678 -1.4927169323119776 2.1356978966657216 -2.310542938935492
Ni 2.9687828487508323 8.429520801320797 12.56311014428765 0.9725791632394154 -0.17369447360509443 -0.31938192047430153
Ni 0.13578034434859204 4.8722159988026315 10.224472801410531 0.3286489475985243 0.25235583216273955 0.6083178657539201
Ni 8.774502337302522 2.2639714125751484 5.802479184973142 0.188071825372689 1.6664173194543428 0.6317591274959958
Ni 3.6982416613619913 2.9283880328388965 11.879872881826087 0.01404439390820807 -1.7149422636379241 -0.6440824249480391
Ni 1.1882505628483657 3.2195521949235593 12.684850384004982 -1.162489841593056 0.7597645837044076 0.28105757097280626
Ni 3.2668853290361963 8.392458920984328 8.29325459306679 0.48975761411880814 0.5707591907738557 -1.1308866128654782
Ni 5.7075023271111345 8.04230997262538 3.4457640721872327 -0.6915359904443122 -0.7488024282659491 0.9502707295502021
Ni 3.053940714939282 8.589846808539619 3.4462163342898444 1.24091285888765 -1.0001946109638387 0.212363350930202
Ni 3.2895892498500094 4.4245128434908905 9.091852293497004 0.5750323642279129 -0.23852843936134407 0.5738781960188116
Ni 7.356043098970418 6.189887991858056 11.44097703147644 0.3873143226502168 -0.4525285545640207 -0.5953705615646326
Ni 0.5297097172912326 9.243401873086038 0.30623502472087183 0.18305611732565247 0.3815272836547945 -0.3671111082294645
Ni 4.7828806111844395 0.49550035756581184 1.6350900610123484 -0.6297901766950831 -0.4859906908772082 0.05718621940300474
Ni 6.13989395822604 5.539456986815617 0.22020623613000434 -0.9483002360873927 1.4856551403691898 1.0142212642602337
Ni 8.047922381850555 8.92722707183288 11.318878977967083 -0.6453654054255208 1.279098883039068 1.1193161344190594
Ni 0.2402510737381035 5.028854889281289 5.714195442967047 -0.20241523857855462 -0.8506996174230832 0.46094120410774814
Ni 7.8525960103051595 8.790603957943677 2.553141262255526 0.5492269731290348 0.9174516261376522 -0.1091584987052378
P 8.466301153039174 1.6108704264450053 3.631118881711202 -0.42006760582183783 0.6258443046734576 0.18336696369785196
P 1.9926323141451072 3.4045346601461812 1.4688764730480888 -0.5159173032333114 -0.3316185717498095 0.4513772145683968
P 4.80528484024351 1.1648201165685104 8.41105978922867 0.6282837673528857 -1.190672217564543 -0.8715589773705956
P 8.408742172991994 1.7029030398558775 12.557022769039053 0.8734677643575345 0.8841046752460903 -1.1085354988637877
P 6.303734532386839 7.832098910594448 1.2908268770851725 0.3676386985981604 -0.5050417939713883 -0.40366268210125317
P 1.8318340653733582 3.417712015786518 5.890417827382867 0.40539252030816636 -0.9756161502935262 -0.25169325887807625
P 6.803384258520584 3.8873744033093787 6.16299201910518 0.7421558694837089 0.5760538635138918 0.06764623839406415
P 2.5171473743541393 8.398234798439363 10.32070564017196 -1.1072329780022803 1.466712537828416 1.0242359681837587
