# total energy = -340892.6041139384 ev
CRYSTAL
PRIMVEC
9.03723606995025 0.00000000000000 0.00000000000000

0.00000000000000 9.03723606995025 0.00000000000000

0.00000000000000 0.00000000000000 13.22690848619688

PRIMCOORD
 96 1
Ni 6.668341458347056 1.8521453642795325 11.34696822777421 -0.6403684664315616 0.4872101651066061 -0.04947470969135995
Ni 4.376796643692131 0.3017180640089238 5.896727791162679 0.3823934883098318 0.08482275017335068 -0.2244462502366651
Ni 2.5237023696351484 1.728208710108534 4.7591214302628755 0.9694524446849756 -0.677810927548736 0.449246027158007
Ni 3.7336346337722217 4.492870902564255 5.171271806724282 -1.7004669528398841 -0.0847139925096283 -0.38708857979265593
Ni 5.000582819680101 4.586324959789157 2.6215602719510174 0.5039732434975579 -0.3488354498487283 -0.20355063773457846
Ni 7.179433301717821 5.930324619626008 2.6464795464304625 0.2943846270990156 0.298692253335434 -0.3657952176315184
Ni 4.9770227454914036 4.607210012129041 11.357628551331167 0.08549406520876243 0.05540161669875619 0.31731218242946646
Ni 5.5064511406569006 7.947905625677038 12.130834579494465 0.10076641798680067 -0.04186398722363758 1.4881622230617597
Ni 1.7253710180121582 6.482608184574096 0.415951437912794 1.5151881168313002 -0.20820253468429306 -0.056034879407380916
Ni 2.810715946987981 1.3664752657084633 0.4204040840780303 -1.2790418045488876 1.068908628500785 -0.9731736022903045
Ni 0.7318444065496317 8.681259250634614 4.632116634478121 -1.122892796026724 1.529028108038186 -0.12181655378888052
Ni 8.63137370804865 2.1724430817309353 1.3942349434550765 0.010823572978065231 0.7518440433057503 -0.03182640048197744
Ni 6.778351731879473 0.87449446525555 4.773102034317311 -0.18688808947723298 -0.8913649563529293 0.19055525391617503
Ni 0.8095574061520272 7.426429998170174 2.4011466051212396 -0.9872349654793772 -0.49684331732099596 1.3167956262588933
Ni 7.504014669021713 3.863255709371947 4.055475911128277 0.7418146840942063 -0.37104823850034163 -0.5385890337992144
Ni 7.381252855527559 3.9474556369577134 12.708333840262002 1.209765229640252 -0.547527988160057 -0.931641544484789
Ni 8.11805870462786 9.043200551462128 6.865585459582287 -0.5476105205715343 -0.3374809440678575 -0.412156064284245
Ni 6.674260847911151 0.7849444939721588 0.42755886380000635 0.4327161478237838 -0.647435143470356 0.23978133793183867
Ni 1.845457809657501 6.425303071252068 9.367442118693333 0.9626773307446711 0.7882418652084942 -0.9417243826420879
Ni 0.07070100820883582 4.777110048472543 1.4441403679601874 0.17373869657946853 -0.40495131900568965 0.12339366846801328
Ni 6.492549144147387 1.8802602053999915 7.021107253488421 -0.4245935187166494 1.1692029919471736 -0.7897256488428722
Ni 3.4421837735553114 4.318298615221307 0.5528375475133992 -0.06819182648488901 0.756052167849827 -0.7123264448271023
Ni 5.850155299285413 5.474712367910178 4.7488307296573256 0.9343203768685329 0.8592840166579846 0.280079266219937
Ni 5.083644055532926 2.7674908473161213 9.489089640991681 1.216597679181053 -0.43562715082299164 0.21651876785947227
P 0.3189285762010815 5.433493534624928 12.381007864392283 -1.5322774682134193 0.3336245464362448 0.4981887756052969
P 4.106619436962061 6.316829127835523 12.621473350404983 -1.14502639470097 -1.5674650718581458 -0.4487654879771626
P 2.4710875817845173 8.398438950774516 1.4210854752625328 0.0887475391490536 0.30686604739547796 -0.22722561275401512
P 6.149522778217053 7.8744419344304255 5.908300875553184 0.9663403814185552 0.6605048321701206 -0.41533163379874927
P 4.841663025047097 1.0322782793264058 12.41299064251035 -0.9875992907973313 0.34115196516154145 0.6101158381946074
P 4.222458727698816 6.112352626648923 8.133463577072067 -0.8832636674020337 -0.5165310255579104 1.4603523999383432
P 4.602320867466178 1.153738730840058 3.7471299382547616 -0.6631481833302386 -1.6452237160958632 1.0092374378923974
P 0.15023320341314342 5.64857975084702 3.6730327367662507 0.0843362974552354 0.35632430202660564 -0.6977729724929597
Ni 1.643484622836176 1.2300672258909735 2.6603544148239826 -1.6715965496624374 -0.9646516808622225 -0.8165854493481938
Ni 1.9645324308735634 6.543248037971165 5.015736456964186 0.3850802911133755 -0.15358124779498708 -2.0967307713739047
Ni 6.11512705809347 5.797929112581738 9.100099892888846 0.30135154533515196 -0.2966040033478376 1.3489981791333672
Ni 8.756801506155643 2.317201527589989 10.24491525692648 -0.1353420990791411 0.5080749243707572 -0.6454466522854173
Ni 2.4336643876090687 5.5543123423843035 7.058248485901427 -0.5817683974001657 -1.2082043129110354 0.8063213484180243
Ni 0.6161207924333656 7.68165057936043e-05 9.048528002069812 -0.1669144745687835 0.8124562576711685 -0.1107672379532544
Ni 1.49887980998871 0.9654840682298731 11.464502000256413 -0.16732842217775054 0.6420669371799071 -0.7342412426223226
Ni 4.132493043560543 6.756797924077386 1.626922984187075 0.27222017518683445 0.8699206704362245 -0.5252311244350697
Ni 5.627251873944324 7.85486728130702 8.078771128670619 0.08502946686751807 1.1716018311966532 -0.5312613897895496
Ni 5.344277941072638 2.917183624017917 4.924827285390046 -0.1624664660997589 -0.5835810251288723 0.17660907614872812
Ni 0.6132586997998557 7.269760475295123 6.907501967484864 0.4308911787999031 0.5182127841357076 0.06486481899418507
Ni 5.167410195791859 4.231667671158073 7.3941724880784445 -0.6730214765798926 0.7409330528202014 -0.08237326019159362
Ni 8.309178171042346 7.197733704568649 9.006796757504738 -0.9771400431372205 -0.3454289952703406 0.5617503024070262
Ni 4.591494258767267 0.4308791442974852 10.362436377278316 -0.19455563332481976 -0.2758325751284411 -0.9703682716310257
Ni 7.845450481420321 7.326080529895799 4.769544074513671 0.7724725181893793 -0.23342659935840443 -0.9883127719245883
Ni 7.401098625730236 6.228869710083858 6.846988635391455 -0.8041467093642086 -0.9544132909636658 0.8019031647456706
Ni 2.5441897835921017 5.035972635761014 2.6299061593745927 -1.3349807818083526 0.5009306000164921 0.3958560415726408
Ni 2.276904492374261 5.135924465652456 11.589020652424248 1.5955248062088392 0.14530075295374975 -0.6755013055789527
Ni 1.003774837058991 3.4407107040912694 3.660242336689817 -0.6357587355736921 0.40949960049800443 0.39702563640070976
Ni 3.641084300144892 2.5738771037723356 2.453736992434736 0.8165394266016067 0.7547655878279195 0.4417414912508457
Ni 1.4267174807226006 3.5351678945094758 8.14207515923333 -1.874873622020655 -0.9027143199274776 -0.5620431510570966
Ni 3.6412288959205035 2.5578721588593387 6.929312432788662 -0.5496206090230277 0.5618629167254904 -0.7354411764676947
Ni 4.304995803865051 6.701191811118791 6.059590531851889 -0.1119975108159297 1.5676645894634613 -0.2719224414407575
Ni 0.730896400495779 7.462325899465726 11.308940442511984 0.4081328020574648 -0.5353779830610844 0.04814467802602677
P 0.28745188329765514 5.425369059482756 8.032370344276892 -0.3790875638650503 0.9003473623571977 -0.2389452151837885
P 8.627017760308354 1.9800764767517987 7.965164938943465 -0.49257734295579036 -1.291031887031228 0.4689920994366826
P 1.803678667741756 3.0195935820947546 10.357912336948871 0.6360207309858272 0.466717444469893 -0.1309838221104454
P 3.897000748505279 6.272248442767305 3.769206098296246 0.3315031292178678 -0.03553881633655815 0.7491785806584452
P 6.871796751868399 4.0841709427983774 10.390371377402857 0.06573488030396421 -0.45490245411283586 0.7252678354791187
P 6.440657335174813 8.022354375645005 10.148398480429407 0.14455847547108652 -1.3375721966846126 -0.2880064914868137
P 2.2902073037305186 8.495815168412877 6.047448101594913 0.24349503933799999 -0.11985248808397424 -1.0575307256811464
P 6.889807963168004 3.841991093121082 1.605455933850354 0.1079109994513819 1.303418433621039 0.07430462425084622
Ni 5.263069338594835 2.755570733064149 0.40322791338258035 -0.2618429457175684 0.7535162888018506 0.047424512030550585
Ni 1.3664933401804147 1.1993586980454831 6.9597742440920145 0.35139369749420774 0.04291942507134544 -0.5061311703808251
Ni 7.032261913853251 0.7220326794507945 8.979788074067708 -0.20811794539028672 -0.009375270567312886 1.3499708274592814
Ni 2.7136560326087684 1.4113993657437582 8.8283131544315 -0.018068170355620496 0.6253036016786392 2.3814773611625246
Ni 6.143865468496252 2.1655657451534136 2.7295841610159717 1.4763338629682639 -0.21401862714543785 -1.0576981044969462
Ni 4.071925488051279 6.903824716166344 10.396389272839087 0.1392576320834634 -0.042924053057035755 -0.7219351715614599
Ni 8.29217913017202 7.0397357080051695 0.352591376487034 -1.0592423090556145 -0.7315032748658692 0.6896176903756768
Ni 7.427261423879939 3.8934491147668218 8.269608633322665 1.7223809793041562 -0.22456606364398102 0.3385980883914362
Ni 3.030393079085738 8.30526504786486 12.33877414950696 0.5840749340461554 -0.3709860178038385 -0.07170806716826358
Ni 0.2865011660730096 4.96320481168453 10.176783534905539 -1.5417255010001965 -1.5165839687375624 0.35698533264937227
Ni 8.791179151807274 2.2729190713089698 5.627824834705185 -0.18003584244208995 0.5796410666445179 0.35304228884122424
Ni 3.397106040508429 2.847497497409154 11.830503731207815 0.5145029393842881 -0.6565239931455016 -0.95112227891722
Ni 0.8944667567618871 3.2201750345758193 12.4378701531515 -0.22358441645700206 0.03345133767991013 0.8977610896872603
Ni 3.2012872113865685 8.21212729389911 7.955496000173043 -0.19143919918302513 -0.420203874289386 0.6081998521188171
Ni 5.664494323400259 7.79591739103741 3.568461071844021 -0.982159864949315 0.4152334176579881 0.24868069730399753
Ni 2.8983138753006172 8.45984696922952 3.5771377221043084 1.839487786322193 -0.5212590271611991 0.49250149541253246
Ni 3.3846256176259626 4.186707422178875 9.102268829523018 0.042535559369365455 1.3741584804490787 1.0783085816584463
Ni 7.329478530622668 6.249447496400568 11.418432882422994 0.1841354664327603 -1.3036434051476515 -0.6462766043858805
Ni 0.6847504661565669 -0.20568749080734514 0.2656242472455031 -0.13794405547836242 1.1543731260231926 0.3336317455250964
Ni 4.446283951109428 0.35145991454287406 1.5383029444855851 1.844943667230442 -1.2546042403318134 1.042346047520908
Ni 6.030366821877209 5.663491190206955 0.2929347743641233 -0.48368878221690886 0.9468071964816339 0.7313256116374244
Ni 7.7510655888899205 8.57019162049304 11.747187645300475 0.9076469813424046 1.2002485483990684 -0.1746046441241896
Ni 0.17715422566121022 4.965644865397975 5.75375781430322 -0.23338109083244965 -0.8083828589327432 0.2810172046531741
Ni 7.723366460624345 9.009744703880019 2.5894844103024006 1.4079373766717365 -0.06577807483707382 0.4931432427615895
P 8.568628178669238 1.676090970236567 3.5790030076096966 -0.12893311022900375 -0.29805821929586085 0.3301820964135991
P 1.7984732198197422 3.133950766131492 1.5797956060209 -0.8072999102812096 0.4961756018300101 -1.4204175114166182
P 4.710713475758942 1.098105506173537 8.08603254777711 1.0766985568588492 -0.8081738282457308 0.2812064378458447
P 8.5354434481664 1.443562888581339 12.506623637007571 -0.01193351821279235 0.43066569305265834 -0.5277322935903684
P 6.451971954616412 7.827547716952424 1.4612821971589296 -1.3028736168611625 -1.5163541121149435 -1.1347119001488395
P 1.8670929525833704 3.4528838609505614 5.8241913203271745 -0.06144705156188772 0.30525627970619684 0.4819370896331248
P 6.822860119059885 4.042762327557637 6.168011155576177 1.2939056090345975 0.07199834471517277 -1.4939688024412079
P 2.4085318343605966 8.503551042408093 10.090450819629504 0.2602655739281195 -0.4721036484824708 0.6184094456619672
