# total energy = -381170.9248740733 ev
CRYSTAL
PRIMVEC
9.27705855857325 0.00000000000000 0.00000000000000
0.00000000000000 9.27705855857325 0.00000000000000
0.00000000000000 0.00000000000000 13.57791293991917
PRIMCOORD
 96 1
Ni 0.9073900252018993 1.9010362854584832 6.920716298088848 0.3255497398479103 0.619604751521649 -1.6884987247344148
Ni 1.8733906509575304 8.545581044235513 0.29251215025476435 -0.7171673178591713 -0.544378643897798 -1.118723495140383
Ni 1.189708543513829 0.20507309023401538 10.431326881779745 -1.281160136443471 2.162999155583836 1.5794417846040476
Ni 3.4414269194993334 0.27386526255445715 1.7219649349490558 1.6842114102129706 3.3874901214700364 0.5676476417280676
Ni 7.437037486040086 1.1876026512213067 12.531014677538835 0.15924590227993218 0.5215593320104372 1.0577721522679913
Ni 0.388161407098783 6.266820042555284 7.53650239706875 -2.009453389012475 -0.9608541614930033 1.0612894213926303
Ni 6.739300634881974 7.4475205622099105 4.599559138801453 -0.28082282925418084 0.35045935860539645 0.19257254145651995
Ni 4.2370367384376655 4.551686733527873 3.4323335467014027 0.5310425889105241 -1.1198617225098844 0.19546554673359884
Ni 0.20525677599345124 6.503932382223021 0.9020056204152037 0.2898921385453007 0.3732696716316926 0.46925229507660476
Ni 4.699052808711644 7.170878676029234 9.889404723033598 -1.67822768182571 -0.05136395629427283 -1.9262681744425472
Ni 4.837151102396607 0.21489007359942086 9.05869515304347 0.012073643335082433 0.3714038220675474 0.02694259002711489
Ni 2.96628381136668 5.579399280512964 1.6794388985220865 -0.9388941122821444 -0.788129765110662 -0.09773585869059297
Ni 4.170427457995772 0.5300837043210912 13.153494174267875 1.957783985662641 -1.1128359260113543 -1.0004738327671543
Ni 1.923839295392491 8.48618931535125 5.026896636482141 0.7141958939356732 0.06513092817137814 0.8328623321313463
Ni 4.241888640063168 9.10414346291601 4.331517085903456 0.7910759922231795 -2.785098134282249 0.24577046563573804
Ni 3.047606506680557 6.1839944637551145 11.482121678161418 1.133624066401299 -0.7589410593618477 -0.3893048707176844
Ni 7.232608223669952 6.480637688185474 13.501577760692978 0.8946469695383108 0.8551386270310434 0.3662150787777564
Ni 9.089745468034977 5.282347865506081 12.399675648718771 -1.2320885757278006 2.6968154505847552 -0.9522116553266569
Ni 5.5654651385598 1.9658922018330343 11.132924844709432 -0.07235032873795282 0.07032815610160145 0.13796179609017528
Ni 6.385510729738235 3.480102976624996 7.056889602123156 0.5746281868109587 0.23958927652569062 1.3671015736022971
Ni 6.10399838781494 1.1208078296082662 0.9540397141576181 -0.8365351529972432 -0.14912475468553027 0.2788744472785584
Ni 7.324135683396932 0.8724405624987315 10.321441050873592 0.7814533815317509 -0.7943598051807738 -1.5228633739883708
Ni 0.3858393593418741 4.855964977150946 9.705573313778384 -0.25428570219560076 0.47089985798235673 -0.018669808495361397
Ni 4.790515329028724 4.928789886826276 8.88708348532002 -0.4635950967908274 0.08960397361207793 -0.00673526184130453
P 0.6204264836702961 0.8623916526693919 12.747067166575492 -2.2839950132436346 -0.9852693571125741 -1.0006800352406895
Ni 7.979522762240665 2.573854957331508 1.0464800364466436 0.40863288162233496 0.16320720092052537 0.20794131060310642
P 2.705357262382182 8.29982248599231 9.169082872817576 0.4014217085858764 0.08229792686896795 -0.9263625554740369
Ni 5.035281242006288 5.926528257612514 13.010614484602447 -1.3422364349295013 0.18484303402274618 -1.1726953213711482
P 1.9911072469919575 6.091010505834627 13.292437607987415 -0.2599940654342877 0.14184724718751054 0.5092776864296068
P 2.4336600484125817 3.832362167106769 10.142999612640208 0.6568682638587978 -0.06450023656591472 0.2983500395046668
P 3.0677098925743707 2.4313686149489118 6.69467148928005 -2.014433358725569 -0.6284948549224273 -1.8292074874421078
Ni 1.0129063615275333 7.45996109773534 11.616298559194181 -0.18807131115205672 -0.7437707793793126 0.7802696456362949
Ni 4.967141246902429 1.7085465974516802 3.3031532894076374 0.0029660246068594076 0.9628053716821032 -1.2353736742369756
Ni 1.6714569173393279 4.099420851797687 12.244534470758069 2.472206449517981 -0.9027847681540969 -0.8095905060875992
Ni 0.46363120616881737 7.880165465091267 9.167345279749782 -0.8325352878092308 -1.5101163587353477 0.42361238575030274
Ni 3.3118820738042642 1.845939834686282 11.180650672457807 -1.1879751303483541 1.1237962816776002 -0.4944524484913162
Ni 0.013431325379355607 7.068395010146003 5.428653572896745 -0.29751108854313923 -0.04913892361849602 -0.6396156474259371
Ni 7.132332497723374 7.912226979465527 9.48267899405567 -1.5373926779527973 1.3598975996546903 -0.9443232537175156
Ni 7.5507463927777305 0.6827581124113876 2.8181505234402144 0.8510518585561796 -0.2683925739106281 0.6621768205559048
Ni 4.351339376922981 6.748624078732128 6.153794855033318 0.536059068288509 -0.17021911346198426 -1.022409456497981
Ni 5.560492635173051 5.581533003981159 1.721421299317594 0.6678201348846111 -0.7468463329808428 0.17713872339995299
Ni 7.819753259765695 8.016454732357543 7.268541982286056 0.19352307829524734 -0.08211152188977472 -0.9649558423662026
Ni 4.3969268426738815 6.919665207354299 3.3241036707477387 -0.22573128759667577 0.15346889058683894 0.7435131548425518
Ni 8.939345794702946 3.8085943430827953 7.378998352293488 -1.4999052225303007 0.033786609532141805 0.7633875251689756
Ni 3.3796602636243858 0.08142567066386386 6.874306884949765 -0.693185096011961 -0.09074605763632114 -0.022128456467923177
Ni 0.030083645489828958 2.3931378566340036 3.756723525570991 0.08358013601550122 0.2907200337632348 1.0321341399849129
Ni 8.708476915444315 3.1798973617086075 12.618185630567275 0.8555227498433395 -2.079767146936373 0.45710126153636765
Ni 4.9684956974518055 4.19558684080335 11.32358602447458 -0.791380925058108 0.6593604341530321 -1.3126936882753781
Ni 2.104695551968356 3.119225398743428 2.634346017654818 1.0394543277954098 -0.2939588524155066 0.8013496062350457
Ni 7.506652533454566 2.4077121156276267 5.413893772731974 0.5124884800574205 0.8268788608544017 -1.8618067615343679
Ni 8.05313622189337 8.228982866848257 11.850042398899738 -0.17212790044892293 -0.2661626561388448 -0.6647065289562939
Ni 3.1422417810242553 8.690228941261976 11.253645352304735 0.9214198667567809 -0.5444298088507076 0.4902875184803491
Ni 7.905927856705075 5.007709823973795 4.098655494466704 -1.4144201561826029 0.5555518869057982 -0.5361860807846766
Ni 8.10224896989607 8.789614069587046 0.6153213183461771 0.9797114034088225 0.3112104404071027 0.23518523392072402
Ni 8.902228283414921 1.6255169233632478 8.849621795159518 -0.2735543206172256 -0.3360550102546084 -1.1537619748017551
Ni 2.4762324701323375 1.283341895533332 8.76162332850776 -0.5180310071422046 0.5309867959719242 0.2461561311099309
P 6.497670367696799 2.5932069014821755 9.122836735909104 0.42792901084778556 0.06545565850064855 -0.06905674558834558
Ni 0.6319569397512471 2.534483120814044 10.641906833973412 0.8840792213247936 0.010147887067279298 0.5386090884038724
P 5.855512374355872 6.633532890269436 7.796207157441242 -1.0460358376676695 1.3236013363268173 -0.02002323719946229
Ni 6.314086655905069 6.0999628673424855 10.9372123065598 1.1856043161233325 -0.8142436885888945 1.3862210680405673
P 5.940592278385481 8.249642876255514 13.521306353421075 -0.14405916723716483 0.8497969031031558 -0.3569812188843142
P 5.950435237514848 4.207674848103599 4.752839338815546 0.3776726857953947 -0.2386395110179116 0.8420349997695498
P 7.816682553383207 5.261622916688923 1.805319306086996 0.22066132927293614 -0.48034634810723725 0.07610773889785603
Ni 2.331983486623842 1.684639617549346 13.446396888687904 -0.16484293675173545 2.2249725119628394 0.9833891093707258
Ni 6.592630339090006 4.311939709229844 13.407007425759181 1.1322796365582628 -1.451524517234068 -0.13281007668590675
Ni 5.5178459969848355 8.63307298349004 6.57089511859595 0.5664741902452567 -0.5099472016928056 0.09040178692302496
Ni 2.312538771887601 5.981105193105503 6.663496861703874 0.7920897781996745 -0.16028668483962072 -0.6211736386706657
Ni 0.44069738970915096 4.645153098493344 5.429427279580429 -0.8450925556489511 -0.1147910144006668 1.4694569333427725
Ni 0.9582644866246429 8.935236057762031 7.25776111253654 -0.1762565779053158 -0.6929740084424195 -0.7297595527018852
Ni 0.7499091730730312 5.132838789795557 3.206477989887174 0.8254493274967268 0.4350249984626185 -1.1102889912197846
Ni 8.6811281468172 7.372487712597928 3.089831038704412 -0.33079838984135934 -0.11875848368884709 -0.3917579602438672
Ni 0.6735116681472602 1.5090341761169506 1.7812592547184654 0.3474321417432984 -1.8207418731732579 -0.880840916893154
Ni 4.649225727200028 3.0104704412754177 13.218138573707318 -0.289042903171128 -0.941445160838772 0.22619897126171368
Ni 2.483978814027739 3.9982452511710442 4.93330410352029 0.24913012613659027 -0.6114610393685921 0.052678818450954436
Ni 7.2104546078349605 5.66132498463307 6.423493790589662 0.5544997914921999 0.033161574353633205 -1.1597878692808605
Ni 6.442907891032663 7.827379001899851 2.1057438595853384 -0.7093881881343848 -0.05307142590368279 0.1552018141175456
Ni 6.924832528970752 3.024896267332123 2.973318604870731 -0.48484783552201655 1.0974219054491294 0.692243300923982
Ni 2.3592394846653857 8.045714575047477 2.625832461016723 -2.2294457172428443 -2.3921428112961705 1.7949722204083216
Ni 4.095552318379265 7.406321145156644 0.8810385403696991 -0.09985341925422803 1.3089851290755392 0.02716987554657256
Ni 5.564593095055407 8.671656270030127 11.317842597521713 0.9599769010943726 0.7428865770021463 1.6517437766025684
Ni 7.723689318404162 3.722939261422628 10.679246066960959 -1.566581897922244 -0.2515703601469667 -0.6627882288876585
Ni 7.076215570509863 5.16016900430556 8.742559900878225 2.112906352692503 -0.4181865867490411 0.8065555759160173
Ni 2.6383397913637645 5.911963275677448 9.07964553438357 -0.36273791886243334 1.341604200662141 0.47079829940748597
Ni 1.0339652844527558 4.04067851701244 0.8917535430034577 -1.279834218543196 0.4360179585035071 -0.34696214408541537
Ni 6.827256427064369 1.038984173132291 7.075206226538821 1.6243995802616602 0.4452623599199106 2.5328353760539475
Ni 2.868698432401739 1.5104442890176701 4.448341228904664 -1.8776869230997337 1.5438523175352121 0.702518457597745
Ni 1.9548432250912104 4.010824942574834 7.974566029853464 0.5791433010724929 -1.2971315721710628 -0.39490550473391345
Ni 5.003952615258061 1.7831155941357943 5.84094646471495 -0.6245379271572082 0.5997434938213477 -0.4064698125327451
P 2.1245948425739076 6.290912563628766 4.570312283993499 0.2651645538916337 0.08634535746546419 -1.2096078781267814
Ni 8.604666630187383 0.2253648004165437 5.23985244337235 -0.23375775744557803 -0.12533510846510026 0.9134029099895752
P 6.337038098775993 0.41853264140389024 4.657984198184038 0.6826636276553469 -0.29330964886728195 0.07051738929427209
Ni 4.305584924118048 4.331950324538084 6.453160896150265 0.029125970831678873 0.44350963889486195 -0.7539364070584047
P 8.352581118008056 6.536643290696297 10.29571020125888 1.9651633088458478 -1.810995335309455 1.4811174003998362
P 0.5398366759824509 9.137197622555908 3.547935901090606 0.08912549131376264 1.41588208544011 -1.7319094876198817
P 3.9394101458002244 3.2189166700008918 1.571235926038239 0.3037002480729866 -0.0038929072965029725 1.0904369894908639
Ni 4.37790887263128 2.667015179364585 8.241331559493968 1.1550408415141786 -0.6301151641346696 2.0298314384481944
