# total energy = -340857.1965583935 ev
CRYSTAL
PRIMVEC
9.40485299873395 0.00000000000000 0.00000000000000

0.00000000000000 9.40485299873395 0.00000000000000

0.00000000000000 0.00000000000000 13.76495302075384

PRIMCOORD
 96 1
Ni 1.5748614004282642 1.8092585451794385 4.97534202785634 -0.8947212744196721 0.9726637525334216 1.5561882133927456
Ni 1.8614554778668766 6.3508243122124215 4.373634597541027 0.8886712115708502 -0.5706015821500688 1.1333427877154545
Ni 6.91794633707462 2.6788312291939462 7.398111093535367 0.9193560422492166 -0.16947632175868874 0.2949363858374276
Ni 1.7655447896603014 8.103531477887435 6.4945520931870595 -0.8638765211246735 0.6779785634748517 -0.9554545877439867
Ni 9.231079272463461 7.6247774493371585 4.438412401734048 0.5279827190382778 -2.150316417909845 -1.7090863190777792
Ni 8.758024584671489 7.895091726688933 6.731874147139277 -0.5090226329960071 0.9666805383667932 1.5608066860013636
Ni 7.008872453330864 0.6430887823558037 6.160366639446061 -0.07957744261401134 -0.17303601408548908 -0.6601394784109018
Ni 3.2314509711364994 8.218966640374932 12.90107758621653 -0.696568153551581 0.33695618191263904 -2.160711902211556
Ni 3.1874926894462137 8.02066532042635 10.405244100598372 0.9857699508980765 -1.132398164413998 0.9764782411835053
Ni 9.049057752601717 8.72370627703609 1.904202414524704 -0.4736943900083584 -3.801928554030555 0.3400461336918724
Ni 0.1810274269274978 2.8312556774940014 3.256044661042382 -2.644044329530311 -0.7945302693203671 0.9517797099955608
Ni 4.560243804567623 8.270777974100175 0.9773099745372005 -2.0000884028578065 2.4799791514848644 0.9488913327041723
Ni 2.0786511469630375 3.1018238858696603 11.13203419133826 1.012339730966805 0.5281845506364387 -0.8134695294270313
Ni 2.876455399745502 0.6604811765213675 9.499469316945351 -0.0562739920013805 1.405009404391664 0.30419775653469544
Ni 4.209264105295101 6.414852549642346 2.3860026748763246 -0.6846595750394532 -0.6756563430995782 0.42040596299786315
Ni 3.201468300612616 1.9846026195982844 7.550296658575916 -0.606934098032516 1.1792819734497304 1.466160779090004
Ni 9.357922521320303 3.8604851415629144 1.0678288606699544 -0.2766085340625172 0.41207893118940647 -1.0201026627416754
Ni 5.553659589416037 1.69072918614164 8.769169335164213 -1.0336937711625487 -1.6445045785416519 0.6959513459031886
Ni 6.527738997038259 8.832567447460791 8.305084055427017 0.9858319144842633 -0.08492070920379569 0.022863791972050945
Ni 0.9422251714037794 0.6094212905297693 7.937711697834817 -0.20220157990585177 -1.0941836010174897 -0.34430773718170377
Ni 1.835347606670421 2.4127679452790596 1.5795421956352083 0.06760381519190292 0.045274812677399454 -0.4101459758327517
Ni 4.820306792436639 5.488295862897534 4.710696995734113 -1.1760110160079424 0.3429656213315126 -0.7730260767000042
Ni 3.1975652867269786 6.222880695585412 6.319283257590105 1.0798964949708563 -2.0037056878954203 2.509021047243169
Ni 5.237317962771954 0.10512744388832107 12.423861251088667 0.37245900280493915 -0.04652539725504891 -0.8159388169031303
P 8.445115729276218 5.0205831314598806 13.147085021670883 -0.27328461189560677 0.821182838910889 -0.5881128515609549
P 3.3732855552552836 0.8809281032085279 1.5468782015961557 3.7749610243027756 0.10082015404287152 2.445277229227305
P 7.328082560059572 8.474853873628954 4.543824812660285 -2.1128125074271162 -0.35656881393724393 1.3246120369795187
P 2.027037315145261 3.7223278548640915 13.159735489086716 -3.4510963854667724 -3.7813329892673906 0.8357607367250639
P 5.03438005042429 2.4035417847445775 6.261305161925556 1.391654837461629 0.34440158244709074 0.07848935175615515
P 7.414118152892848 3.122147772633183 2.7681594609702627 0.8412991500447897 -0.8600532907238414 0.6757720427418362
P 8.375670296670085 8.140887552956714 9.523433822203163 -1.4721087691433228 0.78970122336284 -0.16986198723288165
P 2.461861276563461 7.318273298655428 0.9067303166910479 -0.28923753568043736 -2.0992807914892686 1.1135481215870306
Ni 9.354282843311287 4.537239534774205 5.055041571401053 -1.4242176018889987 1.5579450481828525 -1.5352419501583818
Ni 7.735190420463379 0.4085279931670147 11.470513900838734 -0.363984903895657 -0.08273012931038011 1.8272863591599948
Ni 1.8030983666370473 0.0066370045761306295 0.8344643687492452 -3.4096373469910377 -0.9780669258268639 -1.811936616176802
Ni 5.382585318139553 2.450829384303575 3.856595294471108 2.1159052874198268 -0.12281388470514333 1.3093530539379192
Ni 5.788000305050793 7.312348241431448 10.774007435910297 0.25304797313375776 0.20100267450174414 0.6719752947035653
Ni 7.182777585281029 6.423533228718113 8.494380228880424 -1.59347126611392 0.6229564416027014 2.7034558387194085
Ni 6.074632001900352 3.9848831287082733 9.610497365440537 -0.6543259570529183 1.0673184011955295 -1.402713409268636
Ni 3.2329839621325447 3.6124509603438506 5.748395529692223 1.0118190825766447 0.4685213304478511 -0.9196339785009516
Ni 2.0005626546920827 3.9351408625850555 3.478692323269878 2.1663906977638883 1.73139423854636 0.29521689319232386
Ni 6.780870608440492 0.057649866304046386 0.6518597480178405 0.674148133985168 -0.2915924090658591 0.5933069941673846
Ni 7.76331093014544 0.7742159416341108 3.4326217116549795 -1.347676632108466 1.4777520834720292 0.4688617445064054
Ni 3.8869127777524097 5.438534787068844 10.231530827644033 2.164693255456807 0.07885341996379322 -0.04231161628401745
Ni 5.902118788155185 2.3800578674615984 11.221960571748616 -0.2297455509623914 -0.9228172613249398 1.1222633899728416
Ni 5.728063178561236 4.382717804313915 2.366429295361172 -0.0881736689234546 0.2601293054605714 2.030462130053658
Ni 3.3006236630132753 1.6358236558660975 3.7840678916232315 0.1684422240672196 -1.800416017131712 -1.5170660505803033
Ni 0.9985414295897936 2.845899033204694 8.577203124018919 1.3306258472737664 0.09381055549425778 -1.902326576025285
Ni 8.381755236390584 4.337668559706199 8.500422846763609 0.1474748777869331 -0.007286506359084225 -0.7827772425494971
Ni 6.352413732324886 7.330452582949164 1.6216627691007865 1.9434850525414655 -0.23146150521223363 1.6493691057228048
Ni 3.3211920759479465 1.8916074357400166 13.369705409825443 0.5416026238145575 -0.5605274857435184 -1.0136854463614218
Ni 8.030013744046407 1.0755671735015264 9.406321774472751 -0.5808697968452964 0.6982712522856167 -2.4156231538062976
Ni 0.7976462512564917 5.907093955252781 2.420113135266247 -0.9342694690259394 0.5419270970335118 -0.8450673588379704
Ni 4.798177173947712 3.938404346484612 0.24533686945424235 -0.550103205086401 -2.447437212993101 -0.46691567652362814
Ni 7.750106516903428 5.148545557792364 10.886439628919037 0.07091385340174237 -0.6740324343429102 1.0139623541718925
Ni 3.7745624069624752 8.584881245792978 7.404113270551786 0.7870614717471478 -2.0716573733450447 3.703258613561467
P 0.5751989123922829 0.5509343923321767 3.297078033531624 1.6202176809698292 0.6147818762117089 0.7560452258712915
P 2.0508127828630704 5.9087492093344 11.14736786323981 -1.9810149311661236 1.7511523950098937 -1.8197016048342016
P 4.963871869458934 5.528322916143973 8.121445841379874 -0.8514776332396884 0.18837984353141105 0.2545690377639745
P 5.811324339837252 1.778241340854543 13.707924604905116 -0.4742798301981832 1.541864597681222 -1.636167776541182
P 1.9590496347132809 0.8436613742402445 11.878589520589124 1.9184715612162635 -1.687117785226488 1.1611628952515165
P 5.44510877913164 4.7755961225274355 11.635390374161881 1.1712619313587311 -0.3305104262872953 0.7753027885493229
P 7.9618285617069615 6.007584806742019 6.727771750375626 1.1296092888149514 -2.274817203399108 -3.1727821815670585
P 3.9491634980151398 3.104024621409995 2.463789271374438 -1.0874977043568819 2.6505193957316933 -1.4491737576137043
Ni 0.058520755667444 0.2251512340259454 5.391277283038602 -0.7362695859062611 0.8824748529521512 0.757579917348263
Ni 8.605506087844068 6.93841129662919 0.37669068568349845 -0.6627386065966456 -1.0348564240120823 1.2384435714115511
Ni 3.295535637682842 5.066149642968103 12.56619053046139 2.6665080578504656 2.231852269801808 -1.1347026441774588
Ni 3.862253253877371 0.6325892047608026 5.977829733654358 0.5085433793667435 0.37393301624730435 -4.1991879037086255
Ni 7.3397727920110105 3.1819438263316933 5.072370953053282 0.39607895621672434 -0.7164098708678565 -1.2280030928045174
Ni 2.5191556394340684 8.19383687386307 3.0433482734953508 -0.08804717064791934 0.901515157413054 0.054531555388977054
Ni 5.915483083893717 7.671039919947881 6.343137726070902 0.03247329003735698 -0.8014887029160713 -1.247165524665581
Ni 2.7561579283932462 4.415277404487593 8.525625971126814 0.8278237412661743 -2.205678439619917 -1.6470494564506926
Ni 9.160354779885166 2.3073019266922254 6.569020657639744 -0.7470931588843264 -0.06396647554963177 0.2737340407281995
Ni 0.9441625710674932 5.931734669422346 7.006760123406251 -1.4618212711743857 -0.720655790628404 -0.019728588777178927
Ni 6.158918292124643 4.636949783486316 6.514126413187485 -0.338483674300759 1.078883737435626 0.21500515942842324
Ni 0.8393031654821618 8.19319734387699 10.46971906853328 1.5571140676411246 2.9263475999847604 1.0098910123159963
Ni 2.600122016642384 4.690896018782738 1.0100680171036176 0.43033633473769756 1.9503002756910863 3.2889680194327227
Ni 6.377035636788979 5.370434248404026 0.5306114460539272 2.100991089312156 1.362232418435454 -2.4439412840247003
Ni 8.37952628629204 7.478541394137704 11.810976153296055 -1.2080132799461516 -0.29463736653976996 -1.0312100855087465
Ni 5.220831255924913 9.374221131112614 3.3212494455496393 0.06602515785087339 -0.6296693348465027 -0.020161048328907215
Ni 7.525988876193223 3.109169075856847 12.84012661660198 -0.705335872441882 0.16619173747014604 0.43070863047545177
Ni 1.0549517363031726 7.061398555864078 12.695814794272408 1.1191670104357048 -0.20587054411700673 0.7383344388550898
Ni 2.2554811881142465 6.4875520612953 8.894857668105015 0.6251976722283943 2.2682318368721064 -0.8541708638011354
Ni 0.08999221437951134 1.7249064209859917 12.909006817558652 0.887841002360071 -0.42769092669505054 0.3280442241349899
Ni 0.2135804437042598 6.298053683508059 9.678950586082973 -1.8465668046561616 -2.6808504426150668 -0.29553082488831683
Ni 7.062292016874044 5.712752078306255 4.276853019971054 -0.05144905980891139 -0.25796777903287826 2.665009104707436
Ni 8.889523235632886 1.4045489222234329 1.4986726884100778 -0.47549724754505207 2.666662581150459 -1.971338327308308
Ni 0.6106100639156598 1.3923508282242245 10.496601899595221 -0.6412863502601408 -1.8077403187072674 -0.9669332778075475
P 7.915622520212658 6.237382978505058 2.592133534728022 2.6714985690865216 0.8219863086487909 -2.5131795494962335
P 1.2479675290138554 3.8288001926937287 6.361197864780754 1.6819637518293744 -0.927822684959331 2.1453400477411764
P 5.671201438916507 7.427031015700029 13.157477383944688 0.4640836063914717 -0.15978274862000869 -1.0391437385335265
P 9.201068387381367 3.222459931920429 10.134377758390968 -2.2640052003852684 2.06614081440219 1.9675302664161276
P 4.098813514757935 2.704967314948611 9.934262242349519 -1.3105537591142398 0.6873936861411646 -0.4449180892066144
P 4.918427621036286 9.046255106486248 9.576827992643954 -0.8540150549495614 -0.042791384133913396 0.5080800665770798
P 8.722869245142544 9.063042768620855 13.413932670303991 0.2877357543239303 0.4183953603257375 -0.0339897266818834
P 3.8334744045037574 7.741454052385872 5.138167302797663 0.3720589391530431 1.1479019164765523 -1.3677446065029348
