# total energy = -340860.83069000224 ev
CRYSTAL
PRIMVEC
9.35460280907987 0.00000000000000 0.00000000000000
0.00000000000000 9.35460280907987 0.00000000000000
0.00000000000000 0.00000000000000 13.69140678883392
PRIMCOORD
 96 1
Ni 6.512477882036333 5.250626182996628 2.8686375305940404 0.4121439800993869 0.397883870635947 -0.538684164616182
Ni 6.54320775157059 5.742659570443459 0.4242751944491191 0.10892967052388337 0.15781636892225726 1.1692256176549927
Ni 6.569400638844843 3.5807454278396587 13.007986514959992 0.8242427087831353 -0.9788631964759141 0.21896671517933256
Ni 2.409240480690928 4.464194097189799 2.0587628106767553 0.41319350440982383 -0.35473895981735676 0.0036429960692259842
Ni 5.581227193410682 5.419925780814277 9.335772718377864 -0.07166281575262497 1.1008579277138717 -1.1521797179162994
Ni -0.18721740363375794 5.032542332630683 2.831739236106697 0.39731051463098027 -0.311742915871805 3.414530670527597
Ni 8.584148173377736 5.418167115525864 6.454252029085931 1.1332813383498999 -0.5988757465044138 2.488630656512275
Ni 8.336297977545124 6.977074220063384 12.995801209615905 1.0369747559066658 -0.07035052469910465 -0.30460707615797217
Ni 6.023484740433836 5.58452001352516 6.2708288522658995 0.6563530147852761 0.4066744723443835 1.9835464393387257
Ni 1.4637520869112015 0.3617480952241798 3.1821701331078804 0.5056380327944905 -1.7874795115757023 0.6441173919510326
Ni 6.65080439065218 1.4323486859898924 0.8058690790848441 1.3488873645871156 -0.14067148171185453 0.18187392409209321
Ni 1.6231358059750272 8.321087393720862 12.75406518204131 -1.3569552291969145 0.6066309649698004 -0.47536920660761994
Ni 7.16859099905116 8.133808249709958 0.7540296133280595 -1.585345294572676 1.2149328898841205 0.13083315546519403
Ni 3.75227142107562 6.55824995254809 11.638927328306773 -0.6976534161959598 0.13243315296246225 -1.3123864414476043
Ni 4.718536387225387 4.811118889137272 12.803779282087842 -0.6826813682671596 0.20084789409143475 0.8406193503689458
Ni 2.0804074901678855 7.191631385249904 9.599880278065449 0.7809013656830229 -0.7048252513540507 -0.20552113119738802
Ni 6.366415117071985 2.9186827835725384 7.126281066960904 -0.49788178588783927 1.7073999325142917 -0.975821581436113
Ni 4.0703185548032295 7.95642627524768 13.590747386623534 0.6137565202709881 0.4825125025206206 -0.012089069954050149
Ni 8.212835932457416 0.24501388032491536 12.970197662305324 -1.979785943855029 -0.27220500567818284 -0.4418967858817873
Ni 3.022883701911073 8.271171234258215 4.786529380748308 -1.1521930876527382 -0.40957467671031395 0.13221255231122392
Ni 5.982389971221053 1.568869756304335 11.159344916917808 -0.4570822353729741 -0.17888810199089192 0.8018519997927609
Ni 8.782035436734713 3.0962986230997633 6.581815131952579 0.049525103313321155 -1.1644191974052849 2.2757628551418287
Ni 6.160370640249599 7.677902337496398 8.03545863529644 -0.8088034914099296 -1.6351118244728422 -2.41786644131452
Ni 1.7396006083194704 4.434745808211462 6.4138354685614996 0.7603392252609551 1.1986485509018003 0.8196674307076269
P 2.4455269841683656 8.947780285565143 1.2052890944312173 -0.07593624631699825 0.8380634167163116 0.1222649541802088
P 4.232677037493202 7.670409300815444 9.094133043210029 -0.6980141419694883 -0.21560782600942868 -1.221143903790839
P 5.594304927842613 7.078833587123856 4.502214008528637 -0.7925433207973254 -0.4952967987694825 2.1226446630261897
P 0.25825438484204993 8.46359540969799 4.484017435555109 -0.18332916848138103 -1.8287017514502828 -0.6513416776136137
P 2.9997217058785557 3.243128465477144 13.52040077508697 -0.7422764542219733 1.5592593961189016 -0.5852933798342888
P 6.3315411585868375 2.613647902058674 9.165890328818362 -0.2797434801470731 -1.1055527620863799 1.6454908537143211
P 8.83682534415089 2.5917113589664877 13.405734862822111 -0.24594915730544742 -1.9875177652816483 -2.194970823394426
P 4.314501746417447 4.363697601480052 7.233375363882984 0.48747318896000563 1.1534225891844652 0.38424673946848664
Ni 4.222340201622471 5.533406464929976 3.545567444770078 -0.4371988661854858 1.1491630425771628 -0.41338196627154605
Ni 8.299094723013088 3.7281178371677206 1.2627422572070301 -1.7342718172044713 0.8375170572945383 -0.09549488517521619
Ni 4.4234454482731405 7.67776201845743 2.6668943000461898 -1.3965299061657432 1.7200459034130762 -0.03306104422002693
Ni 4.863691755737735 9.20085034964741 6.039772039017122 1.2966705733742443 0.03072596832894708 0.25885146718941227
Ni 3.024838813854044 0.8332649682531924 12.987421356608666 -0.9514426383711162 -1.0647143879137793 0.18291856330652367
Ni 2.8798331189832638 3.9473897220636043 8.8199215772564 1.1133681443657406 0.04939140594893429 0.9950961133950088
Ni 2.743564622938966 2.085636713020138 2.6677025377106527 0.60600207313655 1.3780819838732008 0.23898481017247228
Ni 1.5891505347366846 1.9459631416301875 0.720864740737557 -1.3131413173357578 -0.9547642465451814 -0.03822716180199868
Ni 1.4841170567669326 0.01524332493335508 9.123021926953008 1.4325389772705006 -0.5849768770351345 1.0584709781072288
Ni 1.8082633913884036 6.783302981849506 1.9818857510665646 0.14391210013633926 1.7062491067393002 1.7226887403525621
Ni 0.3380921761744907 2.395245995204399 2.7908427844689916 -0.3519673106094906 1.417188205846043 -0.4838942133594956
Ni 4.383828706270834 2.8019841161631467 5.740574429524377 -0.4029736264540285 1.3283869306409188 -1.3202707292916875
Ni 3.8463319501979796 6.159846782504114 5.841753811223774 -1.3203458055039972 0.24629317090842745 0.5544146879775613
Ni 7.306908153064408 7.449827771555847 9.888878564345653 1.4880539796186694 0.08693311164813415 2.3167408402160876
Ni 3.016971593069171 9.283788256280811 10.884339245203613 0.007314788493858369 -0.15411757991443134 -0.16094334458701315
Ni 7.726536916403126 6.145983261453956 4.707310864107851 -0.09262810515038242 0.9876532839637183 -3.0400168420761577
Ni 2.1616709229362536 6.249117755096324 13.484063756755502 0.4463993017378312 -1.555295269264831 0.22090121319788408
Ni 4.064668374834069 0.8087053945925416 3.9762720575847665 0.11318278937328248 0.2129369640454849 0.7408350937897564
Ni 4.944861642480124 3.652233300893172 10.655980299344083 -0.2279043839885946 -0.7723064249251602 0.1282232286461727
Ni 5.102814107346464 8.246353473565861 10.842005926606864 2.0530893805348702 0.38465323087828596 2.475497461564427
Ni 8.933224523922737 7.417619874811114 2.6855146365174036 0.21030286885674748 0.42013985382066993 0.356166950513135
Ni 5.807515030255027 0.19883675552066823 9.048568644875946 -0.28391458080562715 2.008727566590044 0.012956817270984137
Ni 1.01980135681782 4.134332100380982 13.818873402878374 -0.41235198234513504 0.4898949110276208 -1.123916095084916
Ni 7.092575498340239 8.100374900024894 5.937292367556609 0.27263206591327244 0.36241113165063393 -1.005249913999559
P 2.95080648889389 1.842800584180025 9.830170013901196 -0.2607232302908284 0.1060261237238432 0.04508995036010299
P 1.422142814555532 6.290670899836406 11.516745928314723 1.7686608362073022 -0.09225375253009918 -0.780173743488379
P 5.567719147259247 0.15955303737084847 12.77762849052528 0.315663848192766 -0.45808393716461104 1.0290529299564275
P 5.9220808482720875 3.7122617857641997 1.386159400202268 -0.544838871363668 0.0753045262702703 -1.123590593424697
P 2.810730669592227 4.036351992770083 4.222853769305098 -1.2449263509224173 -0.42733971400321885 0.5338803154696354
P 1.8695266838023603 7.186402162397652 6.629009102059222 -1.3418217159895858 -2.342273180159237 -1.325390052796124
P 6.208387815384862 6.5584370446000495 12.191307257112959 -0.7428842630093012 0.2955542219270845 -1.0317677577844295
P 7.67274795146493 5.914784258245689 8.377305748953745 -0.40660968054471913 0.9743280276097219 -0.41250701986576055
Ni 8.328580430401818 1.305556402377315 4.352758329202012 0.5336332324558358 -0.4645906279348773 0.6952216668260155
Ni 2.9420599354648087 8.779809041316403 7.248545722916075 0.29578973497665834 0.7871051805008896 1.8689518572195813
Ni 0.7285364503281336 2.5933858328315202 10.437588682552667 1.2563317645458816 0.6212836818859687 -1.6496614401522427
Ni 0.40293173316164266 0.4699630735374936 5.97447784834371 0.5146857448190555 0.11695176949741148 2.465714928256366
Ni 7.903469869940702 3.148899553508021 11.248763692231066 0.40395424519974305 -1.4208841666403917 1.9729205841937631
Ni 9.151139991441918 7.675601105257304 7.41485465428316 0.2179184764204763 0.3100886680978337 0.24967057202109255
Ni -0.08524755801483369 0.3075250767254382 1.4561496013798496 0.01825997465145242 -0.29792529326242234 -1.1640121917748534
Ni 7.383990078471494 0.9547962233646843 7.16913543692236 0.682647686815747 -1.59738962733172 0.2144703699708758
Ni 6.928523832580039 2.724350269202782 2.9378746862624876 1.2786111447693722 -1.5188779069780616 -0.2511515274419932
Ni 8.85874317803788 5.767430558122824 11.13819228952333 -1.2464942096301694 -1.234094550414236 -1.5575758377688917
Ni 2.757297179552752 4.381826821314873 11.550111924861081 -1.087645799898972 -0.5083186649504471 -0.0788467350955739
Ni 0.6016412660869788 1.137566448923378 12.189006960334124 2.082388386609304 0.3785440326567545 -0.7764597849719015
Ni 1.2141058073797828 2.5429083972129964 5.141876121414711 1.5968139573339077 -0.58396437661022 -1.0738130077809378
Ni 4.627693841396722 0.5727289958375031 1.7240766453081773 -0.7739462745214283 -0.36385377763443144 -0.5090048923841943
Ni 4.290600736779692 1.8602188542174027 7.979419888433435 -0.6354833704251185 0.10998433704064284 0.5890441051259726
Ni 1.7247548539965283 6.124963469416367 4.3949279422532985 -0.33431180231125646 0.06407497610303804 0.4153434608732912
Ni 6.502346847422757 3.8972958251515966 4.814788699736447 0.5968024089151529 0.7061691669764548 1.405174726324935
Ni 7.96075745625053 0.8255371310470282 10.17804055617132 0.9531560215177972 -0.5545825810139934 -0.028457998230376796
Ni 8.067661854739873 3.9788492506005007 9.321287116254942 -0.011526255472044666 1.307976742415683 -2.552798706549752
Ni 1.5189348876364923 2.0634663048630033 7.765738314050084 0.5686562854982401 0.0646817564491015 -0.5554472430071338
Ni 6.6621889420138825 7.864264730452704 2.8803298483812143 0.14802303698091926 -0.636230275893472 0.990317975280075
Ni 4.6790412550568545 2.092184934838701 -0.2944323749293512 2.8975864686916677 2.06203784797741 -0.13674463585362256
Ni 4.673082373201962 3.3423807990413645 3.261252072550407 0.3161451587045588 -1.4722440091696065 -0.3171615157842151
Ni 6.1197436011667135 1.6140618414550183 4.835489499825444 0.1013711414503351 -1.3957277219794222 0.581123050506683
P 9.394453205014527 5.91924640368491 1.018091335462915 -0.29194644997116814 0.6452803019108823 -2.138545650527162
P 8.64793720849314 3.59728436523283 4.62902313042589 -0.08080360171162858 0.9840431980149569 -2.418025592600203
P 2.9672892986714725 1.3471937385407784 6.115759475920248 -0.7106112619082084 -1.790586175525484 -0.3552441815885495
P 3.7995589372082432 6.216198908554148 1.2681688621740992 0.9799973100803575 -1.6752418597245085 -0.0097827904183767
P 0.8035781369086068 3.9723571563975257 8.625640513200931 -1.220820459013149 0.3683033287653528 -0.8752060872048797
P 7.5190144123702645 0.3769465180650647 2.594686122592635 -0.5716667901897896 1.150766896729173 -0.36903737871789993
P 9.12210330497789 8.314324016042546 11.305117689201621 -0.48401299832554706 0.49584881461821056 -0.040873855396226386
P 9.222777538136999 0.8396260980197966 8.418325681345744 -3.0159335758747092 0.562929667427108 -1.9639440917267659
