# total energy = -340868.7746622221 ev
CRYSTAL
PRIMVEC
9.25386133207087 0.00000000000000 0.00000000000000
0.00000000000000 9.25386133207087 0.00000000000000
0.00000000000000 0.00000000000000 13.54396145412167
PRIMCOORD
 96 1
Ni 6.460546422378052 5.991523703818024 0.1999777987654075 -1.7671348864810792 2.3892248663184277 -0.9927790352260579
Ni 3.5250179552671463 1.6251816723018944 3.920421578303847 0.5109951833413459 0.3353255882877515 0.13895707012390907
Ni 8.242210893410316 2.356394050023813 1.7788364909440324 0.47397798268704827 -0.8820290236639842 0.9372444924938633
Ni 0.9537584940239096 6.270296282869024 1.6902326174204638 -1.2771762120950585 -0.910738990004167 1.9720482088911393
Ni 3.430480505720756 8.486383284143583 12.17688804542464 1.3124561183432752 0.2840534203763366 0.2527996045683775
Ni 3.355126311157693 2.821224769303837 1.2962670444678963 1.43905209579867 -0.1330468752870612 0.898654033815175
Ni 1.6976949313705627 8.949104122991288 4.101666785143182 0.9209771227924074 1.2554208226958379 1.2597986400485592
Ni 0.01866226257832863 4.249891437830561 3.0114730580405573 -0.29134789715522086 -0.6478681172427165 1.328759483488989
Ni 2.7428445620154736 4.503891429524896 8.284637997823031 0.48482752380704236 -0.1767242615703537 -0.7435344949987904
Ni 6.547976906257682 7.3544509399272116 2.2689246999256936 1.1852806142353265 0.7159154477299412 0.7185811674875624
Ni 6.807695784386988 2.7811740565359457 8.532953342370112 0.5356574619747162 0.9927836632117483 0.5135194924250963
Ni 2.0315464943389574 8.998760344043161 10.243785980976481 1.409407790569676 0.8332549395840746 -0.3472243966078665
Ni 2.9706561255367183 6.176721234923341 6.26093970346061 -0.1477363589784359 -2.0720003585067603 0.7234063567903477
Ni 2.026604932273788 1.4281669600032796 12.045958859965355 -0.19551799723808908 -2.449898272939084 -0.6154714460795657
Ni 8.339718832512736 5.616057525480589 6.685678992981944 -0.32900735937920755 0.6555863118225806 -0.5009180016110019
Ni 8.402931960728417 7.152624219625061 11.880668235816204 -0.07120130273517415 0.09018221471305114 -1.01968794380176
Ni 9.008032713311513 0.25461814964555785 11.043556517342623 -0.3034071423126 -0.10295185567389367 0.8481837929797651
Ni 6.153142395706015 7.220353232274828 5.098340062083241 0.1089756932704704 0.9323066888726137 -0.3494463439598498
Ni 3.050313365718328 7.544839887359419 2.7630355625210794 0.9201024334969379 -0.6903982772954432 -0.008972378701939386
Ni 6.698426187260542 2.08067524528275 10.810763600151565 -0.012862200674648817 -0.31888492623322495 -1.0621998490220417
Ni 7.535049301844532 7.569297843423545 7.650333908975399 0.6752724773975983 -1.2673507413642044 0.3861295583134963
Ni 9.29272776375148 2.154447029521574 9.69793677848154 -1.0497947904894693 0.23806512657168036 -0.1826491116952209
Ni 1.4143879601623854 2.6127075071044628 6.940237917913612 0.5077532793652804 -0.29313070008725645 0.8661876857563534
Ni 0.16740883305686008 9.002739504507623 8.816956203966493 -0.7967802416968085 -0.26505862444138867 -1.7930114971375248
P 1.7404015024019437 7.4086415531362615 8.874450445747202 0.1427227078139284 -0.8374070140792352 -1.102331941156237
P 4.218122931145679 6.056689396819755 4.507877067692439 0.2534673200593635 0.05925775722005278 -0.24423783104129548
P 9.048212980141038 2.5355950788477997 12.014835347430177 0.14960246565289717 -0.8338444935389574 -0.5752329102744932
P 1.08086953620962 4.699240446745363 6.346443533366516 1.9935349180100055 1.0121615535177277 0.6459912119349779
P 7.0014253758370355 9.217392076911507 0.9221473029852967 -1.280886056846478 -0.11871657470731813 2.1079747197188405
P 8.542230338569237 5.686868074024929 13.742380459987288 0.28856082132838695 -1.937355285494644 -0.49967075946746203
P 7.2420350298753755 8.457705567214818 10.244571633821675 0.34388941869736256 -1.0170679896804098 -1.5288553299057475
P 4.400960727556953 1.0150375651766304 11.286359336567193 0.34670503376928674 0.6057583325568601 -0.08019245049019093
Ni 1.5020220289960107 2.684730311511232 4.523277344076063 -0.08718739375078532 -0.47610634188396067 -0.6247677837798272
Ni 6.034794760403667 6.415230262390907 10.300629676290558 0.8641369738749117 -0.5157285842612731 -0.2548588010902514
Ni 7.228357822511479 0.04409650103547953 6.268280791824465 0.30372210244985753 0.737257146630511 -2.587335821094673
Ni 6.749498249128839 4.993485482300039 4.7953075596051855 -0.23668238729154079 -0.5433347760143159 -1.3203748589697197
Ni 8.919602812384996 4.719626703729575 11.581901763510514 -0.26004214506340373 -0.20783203871875172 -0.777932512862686
Ni 3.6557657650401443 3.780998273332167 5.711759110809374 0.31762097191913685 0.04796727190789804 0.2714053925950229
Ni 5.624756155333135 5.669998284427917 6.9396012522392985 0.18885189807182315 -0.15279834688237556 -0.23801139051560946
Ni 5.882448437784029 1.778148003645065 1.7066471170294484 0.03921446541593246 -0.6575820020963707 0.778858367111065
Ni 0.13005932247403063 8.17451889620673 2.752160424433088 -1.5272447908855182 0.04147035132964471 0.29392568518472606
Ni 6.644337366528489 0.3756049862606142 8.349947125678712 0.9346880446205967 -0.29394188313464215 4.438247275872776
Ni 6.626542190776951 3.1625812139854395 6.212588276886619 -1.331580497877552 -0.2936534053599459 0.36902940829809994
Ni 3.456520872109122 -0.04738809958712901 7.708586042016664 0.4619429058993851 1.169893847366611 2.4918900439898373
Ni 1.202196914929542 1.2738310571514102 1.510639224866958 0.35479372431469225 0.21421557364759236 0.7918048999694041
Ni 1.7076705941163544 3.207527219510774 13.189150377523845 -1.4094813241200888 2.6628082404013753 0.32581353503225824
Ni 5.89486711997777 4.474528926841781 12.203732572381288 -0.047303670181970146 -0.8595413840844294 -1.1970310699030353
Ni 7.222879536476685 4.8772569812915565 1.8915364945453073 0.5636385205686745 -1.2529623338530163 2.6092814721278286
Ni 5.021885583382447 9.048185218556402 3.2089569411195167 0.0897942352460131 -0.2297751186487462 -0.0010160999693401855
Ni 4.929300698622106 5.458658594457239 2.504224488209364 -0.15152205127311325 1.6261826403040123 -0.7795325103599543
Ni 1.8661984962482272 8.162868284521245 6.640956930906005 -1.4134791324255722 -1.6096774435601375 0.9815448570731353
Ni 0.13946494734863427 4.295947906741327 8.406425293461753 -0.13755041958436953 0.024859739356157186 0.7550013579878094
Ni 1.9085164050947074 3.333740637126594 10.320241385063431 1.0432906708223644 0.9374998030377789 1.5764130250800528
Ni 6.526878101934486 2.044992355164222 12.980221318485707 -1.3407935318353874 -0.7373844162369946 0.8627580912495142
Ni 4.527747884588579 1.9867855660445282 9.186164921127022 -0.7696432762707004 0.31912558148912135 1.2601087150898105
Ni 2.9346215886794704 4.373680343721523 3.2746454772985545 0.3545751805459829 -0.24671123228245254 0.7687572741213211
P 5.521353506426385 8.052108815686012 7.226394153091575 -1.0960759329441963 -0.2007656187902736 -0.6695954816174791
P 3.3481859149987465 0.5516578513869029 1.9621277265710246 -0.4250115800906745 -0.8198818607112782 0.06348876458226485
P 5.637258122280783 1.4942210237133553 4.690721341806796 -0.8986442636231621 -0.3259060947460645 1.0585529962980735
P 2.6294107271936595 0.8506019978342628 5.868964636126428 -0.10133231779259967 1.2932468924046758 -0.2925614578473477
P 5.132617290633044 7.057476015216683 12.156423130617293 0.34005461833230466 -0.4697793712246684 0.5433167782921869
P 1.5519836274788767 3.8855484010705297 1.7236455353019389 0.34524747538715383 0.043547031353015325 -0.8680640768434598
P 4.998214205549668 3.7880589696912015 7.816491619951339 -1.4174057211734878 -0.36450323829297226 -0.2949644108618855
P 1.341199169200913 8.438235442523588 12.26006175299345 -2.348917167838316 0.08753115024344926 0.015270295895509184
Ni 8.783719109454378 3.6626321303067284 5.38491642257536 0.09841077327043052 -0.060478774111347465 0.1614251693194381
Ni 8.648103768508571 0.5699231233049399 -0.22505483816691133 2.7415433896197494 2.520817268547149 0.7539466914710499
Ni 4.634537446820896 7.701628063520783 0.7435070581709529 0.25227587085442355 0.14705321686848222 -0.13685416484829332
Ni 3.9702489957943072 2.8946911761116674 12.271154356827754 0.17509983859305328 0.9876478846470795 -0.21907572995337107
Ni 4.339857479773592 1.0143805410069169 0.07662567513938234 0.12713796600179395 -1.4953140036151926 -0.5297320976292168
Ni 5.19902300108184 1.2814562390647055 7.056404418049742 -0.8083419783924789 1.8070990855788427 -3.1600091981721063
Ni 1.7303703164868804 6.207221962576522 4.282031949749563 -1.475296165732369 0.23511247170125962 -0.13772114083427897
Ni 5.302647742665677 3.3678966400901538 3.3267225085306675 -0.6688321210888933 -0.09680743333905263 0.833391979382571
Ni 2.1044576694540718 8.264614492211395 0.724409864099997 -0.10866613244985156 0.39126225155437133 0.24433347607889536
Ni 4.230939529385866 4.434024774858172 10.39309426085081 -0.012582207540384784 0.0844010892548998 -0.8863019400077253
Ni 7.325606653490631 9.565624140721237 3.9424170818107793 -1.269629510096052 -3.8903176813989258 -0.7388378608540696
Ni 6.854464800636738 8.934834668488495 12.360951053104506 -2.8502450032932267 -0.9188022266282756 -1.255021016154258
Ni 1.4815247256732567 5.764544987835853 10.273460338793672 -0.25021564589128525 -0.46498400671855405 0.06295757466914319
Ni 1.179015991758662 6.328632626050352 12.935038414104813 1.4135302973784818 -0.22103851010669673 -1.5702601181047795
Ni 7.38571973808865 2.468273236106023 4.072303357073913 0.5709252840380749 2.9174688094378918 -1.233830498119572
Ni 0.3848977140243657 0.6309856540975016 6.042368120692308 -1.036681393035963 0.8271148881246079 -0.23817851222109304
Ni 8.547347724003766 6.511711022861803 9.49499404247703 -0.22637534893857786 -0.22654864129164856 -0.02298129138652171
Ni 3.958737192032002 8.213681238266275 5.559322100346591 0.8828157812313377 0.38240557249468976 -1.2607386353643255
Ni 8.623895666706167 7.672931838868927 0.5884826680201161 -0.3371071056682065 1.6974050260851088 1.0261915492482325
Ni 7.896347818156173 3.6313725860068358 13.518431458275037 1.0912322316986496 1.1483012087974998 -0.6013802580938223
Ni 3.5547043431043446 6.823778995752652 10.400827712944185 -0.6722732855599584 -1.2015762660715565 2.6599651145256256
Ni 4.871686156641308 8.571481794913806 9.851715598868385 0.9293108394690834 1.8101247597790437 0.3039995244809603
Ni 3.991542131209954 6.877766024007707 8.296624524682608 0.005415000367984223 -0.3412075009898253 -1.2503035560739306
Ni 2.9409234683917935 5.629818017598393 1.021713300895382 1.6053785590744674 -0.8196964841733496 -1.204428390808371
P 5.400266728106639 3.8169495254355073 0.7962318597112341 0.2169399145572909 0.01888552405059328 -0.028603008448673316
P 2.833134489112589 5.0706997030337 12.03577405994864 -0.014003256257627496 -0.6578699656504348 -0.5378858370846026
P 2.1368739464471225 1.7856806469429076 8.916788713089081 0.7083659175174575 -0.6282259175317568 -0.4560021149349179
P 9.493814175130009 7.73073145808063 5.425968403162448 -1.6356844091468603 -0.7085561791513927 -0.6241869715756928
P 8.43721751775361 1.576663676220089 7.761895687606606 0.5274206758872207 -0.19111549729501925 -1.4963902673985068
P -0.11425927927165132 1.1940165013235309 3.7089458565684525 2.387115019064276 0.6862405463733279 -1.0933114828251815
P 7.50361393417528 4.551502547175265 9.710573851807748 0.2677336001703905 0.4438086581925195 0.7351136179249469
P 8.391642249643198 5.987674097415196 3.868033617323814 -0.31675733836726094 1.4248264391175913 -0.4005339066642844
