# total energy = -340865.3926771467 ev
CRYSTAL
PRIMVEC
9.29511672812741 0.00000000000000 0.00000000000000

0.00000000000000 9.29511672812741 0.00000000000000

0.00000000000000 0.00000000000000 13.60434289640871

PRIMCOORD
 96 1
Ni 2.9303692050575445 2.3308434711149557 0.10289229463832748 0.09649812962874994 -0.28917531498393423 1.1465711134802705
Ni 4.221646821133831 2.5245444086431283 4.437328850704166 -1.4945341880263743 0.26374916160134576 -0.46540335364415975
Ni 2.8878626362530753 3.9867685164935223 11.161275007123843 1.0967153663004081 0.007597866951915948 -0.018999423920638244
Ni 1.9403835026545715 1.4654495133555658 5.0012282612455365 0.727561773719618 -0.16227491891424312 1.7316585479513402
Ni 2.7627503650726344 5.992571050691032 2.4631204182705737 -0.9238104784761444 -0.5100335907590249 -0.3388587982519906
Ni 7.768663365149891 1.0349926576077049 0.2657975809296563 0.17910536020802056 0.44978441615998016 -0.717946362117041
Ni 0.9356278597682613 0.3237145237601323 0.29307595999601876 -0.3972886602541093 1.2893077052512698 1.190226645386692
Ni 0.13754170127126425 9.112021520262136 9.553377829887127 0.26389365759901 -0.0019409257764547215 -0.5145232510992623
Ni 5.898681076605324 7.777605267443767 -0.16392124254987425 -0.5597024187390619 0.500968138122647 1.810141214839276
Ni 4.063341688111982 6.41001474301745 4.24260916838243 1.1064660179292687 -1.397589200668193 1.178147602734971
Ni 3.896057472329338 -0.1362357373707552 0.7032629546916369 0.1965772917405389 0.5766480454544649 -0.07033432674918855
Ni 7.722829144556225 6.919573042134222 1.3999003501784135 0.16266726925665534 -0.8750212248875834 0.2512340598534705
Ni 0.12441885547241238 5.896031968337387 8.758258672650221 0.6193895501870493 1.5126728066086141 1.9890946228504647
Ni 5.501844658068432 4.187561628086382 8.390778091768757 0.5165086569604073 -0.7615633274760433 -1.478511844456189
Ni 0.9747417109664258 2.6256288030775483 12.510118210618225 0.5736696795524314 -0.628146470444073 1.218925298872965
Ni -0.1935094581235428 0.8915095177228792 11.701190227967823 0.3288119555389498 -0.07567553645644386 -0.5543254706978646
Ni 4.790517260102193 1.3422892166883416 2.5409781750210647 1.0554350194943822 -0.6329490340390389 -0.8933871289892806
Ni 0.533125138073005 5.713838385320461 0.6454556942385702 -1.1985102255517228 0.8633299045925841 -0.2392825439185492
Ni 0.4443874471905152 4.25762821799412 7.3648472434607415 0.9897165942506505 -3.8260069351359975 -1.4290777581947773
Ni 2.613191936893341 1.488882502630892 2.7695990070790053 -1.5873795513938855 0.6169202627109505 -0.9918814631124531
Ni 0.4947344469564035 9.082156310209925 6.327107878859439 1.0236335587130696 -0.6308139899739071 -1.5907345839090474
Ni 7.1756256226845645 1.7084982256011945 2.614483028607083 1.237383762688469 0.4874703607465282 0.5309657129260017
Ni 5.648354287960417 4.547198989471406 4.271641535975667 0.4265501282223879 -1.2034197470381984 1.5468345400919876
Ni 4.016624431429004 2.073061998852908 8.440638027418016 -0.4035660086223889 0.9078827515022945 0.17210296074825845
P 0.9240526509048882 8.240195341725862 11.764463946569567 1.3554225946024723 -0.07249148230150741 -1.1137121579687208
P 0.3188104201735944 1.9549024749862096 1.511809837556128 -0.31529283800659247 -0.47461638760199554 1.059497362489214
P 5.970588099625523 5.435867919521718 2.4570943940947725 0.19405786775279485 1.5264750025990292 -1.4706704940348994
P 7.5466959776469995 7.825763267219834 5.285573318097441 0.26448629687768643 0.792506554022119 0.8665779792162367
P 7.827836078250536 4.782337557380143 7.964376695450023 -2.258637251205136 0.016566646109429532 -1.0527862690176257
P 6.238984595192776 0.0784991198048334 1.4354625372741974 -0.38369858027450043 0.09984390617253128 0.08252264128526432
P 4.012385858200305 8.438581018085754 4.263927518601771 0.1822199945776023 1.6140380345216785 -0.23161911383602046
P 4.221340082281754 3.8247360416631033 12.880128922273487 1.7473368779185456 -0.47991491699677347 -0.6221665987115543
Ni 1.8857096260510535 8.103352633232664 4.706041380240225 0.7243386387966299 -1.3892467422407686 0.881392932741882
Ni 2.1712927924513403 1.721725176707418 10.210454279061047 -4.264519120816269 1.7100085737817325 0.15811821643339222
Ni 3.8989482536322444 7.755129675191591 6.422950756970036 -1.0106911396197884 0.23754319262993925 -0.5469204364830452
Ni 0.7721778796365778 6.229643002879526 6.300157617413631 -1.6083921490898108 1.3340317876315217 -3.348197237407686
Ni 6.053593492020868 8.34153999942871 7.068953004072307 1.9012577684411385 1.27087752357054 1.0345352932272376
Ni 0.7052205062748912 0.2865898275421026 3.423668485990897 -2.6091824846561193 0.1000483088738535 -1.161632121578451
Ni 4.972199611698991 7.644043735156119 2.1786126968759016 0.4849293394922293 -1.194561268206304 0.9315728960303827
Ni 8.489137157978059 1.1377501730534532 7.683678112891141 -0.05981414394415506 -0.9619144844367175 1.0276851030746237
Ni 7.356006657939217 8.33195673408049 3.1554188532679723 -1.026606268188148 2.1703525106251136 0.4101647448858291
Ni 5.46060222513919 2.9082747125912807 6.345405316141661 -1.575435491658132 0.2912504523454081 1.891372391006627
Ni 2.3803399677000856 8.028833682411445 9.885160514968556 -0.18465740037450132 0.8604253293512794 -0.1486619561164988
Ni 1.6441574275988908 6.06149434124103 11.184416129733858 0.10971359987775943 0.411544141731859 0.33873332841771986
Ni 5.2948052280332805 1.6115501581114475 -0.3891791013750451 1.0481407998258143 2.507326947370198 1.4027884854809454
Ni 2.486071920499306 8.356170513161105 2.467896249246243 3.2981471148288297 1.2132408468936784 0.04702907636434481
Ni 6.387000033994957 1.6838940516179384 8.425482339590399 -1.0071003369447364 -1.2625553768580902 -0.8944047716205177
Ni 7.9843751390937605 0.8665261029770553 5.206504407637082 0.551682890868695 -0.5047980533916985 -0.7035504984066852
Ni 7.884722192635699 4.445017771262893 2.8795221280116032 -0.007350783938116373 0.3498160685944427 0.5764148463977363
Ni 5.295325754570139 4.8562430304972075 10.469888423077618 -2.6364786013679113 3.3276168421531724 3.492107537771812
Ni 4.944862673397232 3.5903131977425446 1.3989485302253024 -0.19833438364096165 -0.29781190761300963 0.5931807530021656
Ni 8.391436186033214 3.5201536566675102 0.7180998200154274 -0.3140851908517365 0.48274184492260735 -0.6541246396753896
Ni 8.107377418776581 2.3652168127810236 9.802881071189793 0.8496500931126464 0.013268949194764245 0.42717490629058047
Ni 7.325788233451282 3.997680983534075 12.202579048990946 0.7080864386038257 -0.10888956131456731 -1.2063726590189352
Ni 1.9429024792882934 7.621242813818405 13.689642497277857 -0.45038451163782434 -1.3052382604385973 -0.5070418551205524
Ni 7.730460435391227 3.074694482518072 6.707594187068961 -0.9396106787331947 0.8397156076077539 -0.44960032517363213
P 0.4090223165693991 4.627118403112522 12.365123684753167 -1.050515470705578 1.5380593650025187 2.4065067933273263
P 0.7184205015425986 7.648644817937272 2.0037836348438396 -2.8113146447766164 -0.8372918286576095 -1.52066250968231
P 7.15845754208499 1.8552495285281483 11.70731292135761 -0.46215630746177183 -0.3808899071811117 1.1641664579645306
P 2.0683307844375407 3.4173496656381137 8.665490619153775 0.1394023851914438 -0.15238902725909884 1.6097358076018986
P 6.523443052468782 2.410660638472047 4.639611039997107 0.8738917392688305 0.6453229822233596 -2.210521883755148
P 3.8831651454253806 0.8848198222125847 10.284706460032124 3.4653109864042575 -2.257161180880242 0.4959801979897523
P 3.5644820683509817 6.154371147603211 9.714969716184564 -3.789941042651376 -2.961143624618023 0.13294660226377103
P 6.826891433223363 6.7421943295832305 12.009723037573496 1.4216341574325388 -2.046091609060799 -2.125184655839224
Ni 5.653159863309621 6.244161975211164 7.293873450160194 -1.0494867723307475 -1.7190228614652008 -0.3109052504618581
Ni 7.101645788633663 5.729770215394999 9.585728554152835 0.7825486714784587 0.42851933613361687 0.6807949498777243
Ni 8.396130219981663 7.715393051172542 7.499734259394032 -1.187445225986813 -0.4902654069931622 0.34930570461692745
Ni 2.266428312178815 5.632998755123115 7.768719135850268 3.5485417095001406 -0.3841724345871255 1.4804172890090181
Ni 7.157537325528759 8.877180396088747 11.038141666295134 -0.5371798121565136 -0.1301034763880211 2.415330305156227
Ni 8.758072770315628 6.9918797551737955 10.64614614455102 -0.4316023459343147 0.40521177175592793 1.3925156428000276
Ni 5.804242690632568 2.907986563972663 10.337246177834526 -0.22518132863047668 -3.9355228171806544 0.45956232148235043
Ni 2.763577630461569 3.320968600268873 6.637708851937449 -0.4494802546560001 -0.7297325561186917 -0.38028775482073857
Ni 1.2509925801701924 3.915707349095716 1.8217573639280469 -0.216482258194582 -1.1594970775133193 0.7930842809024599
Ni 6.236130994356788 5.250495406583269 13.825685825732307 -0.5149264000749518 0.7350652811855147 -0.19128930386872217
Ni 2.8751469165669796 5.1439733688620315 13.94322722433649 -0.5414365305503385 -1.7669978466825826 -1.3161672486462752
Ni 9.255119842314357 2.6276086629409536 4.044693824929055 0.20690207070531466 0.5642671552916089 -1.0278866775624684
Ni 8.958224518854143 6.826045577600969 3.6278701168885013 0.4664202249444484 -1.1969490517121901 1.4934427547344087
Ni 5.709125761138552 0.6021069878583991 5.524084154355678 -2.138985052057426 -0.7924574459517384 -1.1736635988216886
Ni 5.2045961201724955 7.105242998808019 9.52184321687028 3.8254258658215474 2.4419288815803624 -0.25866866175464487
Ni 1.704566391224573 1.1235193493404327 7.759495591519485 0.8477744733564883 0.6246862798096146 0.032031060293615805
Ni 4.9649773060000895 9.252322012178746 11.960475650116718 0.1991226838702119 -0.14037554773799052 -2.702623058405468
Ni 2.3087210932985034 4.834222898964781 4.698396146730128 -0.08294404509339909 -0.3274384722301909 -0.11076209574693181
Ni 0.5918210116854217 3.815375859116394 10.56280612795341 -0.5048507610065047 -0.2565202479530743 -3.4983733161758654
Ni 7.422503923022789 5.6615998293000995 5.900448078295621 1.3611024185960687 -0.4070601378185764 -0.6408544049290447
Ni 4.321857474595668 8.898466213399535 8.5338550350525 -0.7638886331751102 1.4291152963009324 -0.2100727551238124
Ni 2.717278654031422 0.27824838978895794 12.37504064479198 -0.8887028361397339 0.5065973113839661 -2.0932569538926917
Ni 8.530537607891706 8.086770144987055 12.988038720922454 -0.889564669919397 -0.7804210836124946 0.7669101936102535
Ni 4.084488078671827 7.154860331910633 11.620258576114852 -0.3996242503658214 -0.6462148979100097 1.2514073306610707
P 0.2950474542543673 2.300810948961612 6.178997629866618 1.7016794850907468 -1.1219003502064677 0.06968666586286064
P 4.2089496916811955 4.754108287872342 6.133613292922663 1.0946410002698825 1.9331193930364254 -0.4866542926031361
P 3.1280763378961756 3.599115673285478 2.716868739383647 1.1418356556778142 0.573483017462922 0.7085307252300959
P 7.2363878007459705 8.857326026754317 9.080830826564284 -0.3720571393808302 0.6220835520794448 -3.707732590172421
P 3.883007128440977 6.9078426048214645 0.25555993936367283 2.0203093578903726 1.2630716543728764 0.6037518436497924
P 1.337307034121275 7.675015064099152 7.836659003050274 0.45187626569200245 1.1026949809226105 0.5556267060077915
P 0.1021245179964624 4.823998270562219 4.565059556267336 -0.2595842315903787 0.21986454440325362 -0.18865726556251378
P 3.7763828444357146 1.1495084957163995 6.405795689533884 -0.5860603399073004 -0.012393745678662525 0.7204472741620238
