# total energy = -340870.51561213937 ev
CRYSTAL
PRIMVEC
9.24308191700823 0.00000000000000 0.00000000000000
0.00000000000000 9.24308191700823 0.00000000000000
0.00000000000000 0.00000000000000 13.52818469058017
PRIMCOORD
 96 1
Ni 1.848311313574683 6.523452782390843 7.535983391702103 0.23791600258832576 -0.7427485087623853 -0.47858668510365326
Ni 2.1462065929217675 7.90676314299171 9.433257157532745 -0.5410331244643327 -0.050040866607475115 0.31592738626679784
Ni 5.385749588093948 1.247880727878986 6.315525038540511 0.07117790569640645 1.154386238649315 1.3548883193655568
Ni 3.8289188551829634 1.6310711649354288 8.13705452295797 0.12110332977193981 0.09594714222128636 0.8479595927841008
Ni 6.18123692640566 5.179989346896721 6.9635926185797805 -0.17474528346711196 1.0797651115993145 0.9203598009233828
Ni 6.704543238593892 7.625838161602403 1.297059468246174 0.00035455512594132486 -1.4566806075137106 0.1790058585156788
Ni 7.457521644276071 8.140409761606485 12.57482625986012 -0.8172109987473345 0.8445073725694423 -0.7408111825303565
Ni 3.6053194663503807 7.814480215535031 11.237727610408333 -0.3986192061400748 1.440825642759325 0.4140023734643644
Ni 0.8664279901776974 4.438019451491076 7.190648919959318 0.8776252381693338 0.33093337275732687 -1.0116216218538576
Ni 5.775077431383488 6.691806272043881 5.054711390779976 -1.0502100236500171 0.495303997858334 0.44134117048863347
Ni 2.1670127697752313 3.599838318916305 5.344404359447468 0.7647862052887151 0.10338714343909937 -0.9821863473118762
Ni 4.93997424500694 0.6973489186130648 11.309156296986831 0.14804154892368052 0.7603824197940646 0.03946463375352558
Ni 9.203123834263153 7.4078400802656885 0.2023717274546777 -1.1778321283770812 0.0039204181003287325 0.2601172212757133
Ni 8.193215487223473 0.9895735673517088 0.5081874034902266 1.3812146159649117 -0.21529389431343568 -0.4145489899964538
Ni 3.1692031436151575 1.014668534102999 12.968929079143662 -1.3138900225763244 -1.1429587135386636 -0.9804752781580405
Ni 6.836599146503905 4.708157756564082 4.402314351283504 -0.40258384721477763 -1.084484628562171 -0.5889417752201535
Ni 0.43907503317982227 2.1119055168208325 5.274246596599468 -0.8941911129478147 -0.9158061201144293 -0.05877207583288588
Ni 4.516520944168318 8.66852247626642 5.26380283861336 -1.2612927080955827 -1.5693103525970005 0.16519646343641226
Ni 7.7197571145157955 3.339432978848496 13.073610676360996 0.1104777317372936 0.014947622448767805 -0.7285357075971131
Ni 8.417258543976521 1.6876573109580433 2.825117412206849 0.39047652242828235 -0.7479372520521763 1.4907050440882714
Ni 3.532881435252825 4.06301838479988 7.274767433371277 0.7915493323151723 1.398005462270005 -0.21979383906631825
Ni 7.960317558224481 0.7719470578983829 7.171885464156328 -0.03633662964750517 -0.7593745473548406 -0.5080206740940542
Ni 4.163564627275216 6.339903666461884 8.856834552183201 0.20375915420095875 0.14159707884991743 0.9272511287265772
Ni 2.5527542973743462 4.529276396881681 10.978986949350436 0.7240753578329143 -0.5238316729843817 -0.04641175449532007
P 6.4359485281608375 1.1138005850818529 12.873650468915677 0.2997407492046063 1.1918533823568376 -0.7330557069546536
P 6.08014534211142 2.6674701840595265 3.269289080623011 -0.5357384517242967 -0.055590078560478456 2.5330225523640895
P 5.490723266692256 5.435948764678206 1.1731873848524017 0.6669207629987933 -0.810817693626481 0.3860261999664126
P 7.937625792709042 8.900403666281012 2.3955304023678003 1.2392871503587688 -0.6494573161067073 0.3310501008408492
P 4.195009591138159 2.883111279568772 10.137940461455994 -1.939548693601537 -0.6062018478521819 -0.44472319958698897
P 8.814590895997778 3.2044932294554624 1.5073099985217726 0.04424174342719477 1.191614269762838 -2.043294763041952
P 5.029382574062275 5.79495005698764 11.048873889905318 -1.5179553951637923 -1.0665915503318342 -0.12547934735244842
P 8.783571113891949 4.343342565880223 5.155428630266323 0.6376783211939082 -0.5412760937130743 0.7098826112723
Ni 5.854595663045127 7.737050920332247 10.655217511466745 1.6565944198266502 0.40925920235242413 -0.9552062191786066
Ni 8.821014837762842 8.810607127795272 4.830589767832679 -0.546813992812168 0.3681274653091208 -0.18164612435200328
Ni 6.2872735593967475 3.282384678742064 1.3755461719927327 0.24970631035503443 1.6806118657871703 -0.8864958011860863
Ni 8.086578053923422 6.725127581487124 10.776118868409737 -0.3357202526230089 -0.9828566339060233 -0.4300560844931175
Ni 7.59295127699795 6.970217135217221 3.4588730045784586 -0.471136399473195 0.03884551211228794 0.4082500443616195
Ni 2.63828977520729 1.0418709234764971 10.49605811515717 0.41013543430979044 -0.2977319463046937 -0.39766918352197966
Ni 7.90666146909327 0.8347990889893954 11.173509451845556 -2.3347917841805277 -0.10812800055819442 0.8273457731884912
Ni 0.9931876122871616 2.335735982695325 0.09601990537842683 0.39138952116085496 -0.5954890894203679 0.3347442618629848
Ni 0.5323700780800611 7.321084515651467 2.6731019937249267 -1.7502962176571855 -0.5207409498741999 1.212512453368086
Ni 0.6877481296758401 4.60342439808936 13.065412062914074 0.6680332793366818 0.877059852584167 0.40042232078708456
Ni 5.57514033164236 6.626513143082145 12.914167517443959 1.5963586149640443 -1.1648488287435357 -0.53155423843962
Ni 0.38061531450141134 2.141936289187294 10.606380765121582 2.4181952854088484 -0.10994962714796548 -0.8167199180435288
Ni 3.890838259332832 2.2659692022022346 1.0876010700702388 0.8354066958197547 1.6451784646802248 0.39016799004892805
Ni 6.099417167406609 2.792981990142683 10.96305095223224 1.5987610537579497 -0.4327081774039838 0.25307728370979643
Ni 1.9352609829041076 8.121498416496673 4.834715879493001 0.29356778762467506 1.4680631383190395 1.703045512200338
Ni 4.644593083875823 3.422167802933505 5.0724202109636956 0.827773090533897 0.37057104175360694 0.18226164644881512
Ni 5.115269288998919 4.075219252612663 12.899110537393184 -0.7265636714724066 0.3494121482878047 -0.3357153675270025
Ni 4.51263884986425 1.2903526881818146 3.9795182335520694 -0.43490287106245745 0.8844013805509027 -1.4365894931907903
Ni 1.0748594819793902 0.5013826467600977 8.335729017742109 0.03860537107702383 0.6944750184679782 -1.4263727005587887
Ni 2.1471493872527554 3.2347643219455087 9.053209368246263 -0.3399728572517758 0.282454708430649 1.3753602140666634
Ni 5.157759735465099 8.780788946307366 13.450342972250175 -1.598811447379911 1.1833011219114524 0.013781370054808523
Ni 6.510734302004185 4.894396609260858 9.782419189397705 -0.2800522696367435 -0.5197526178190016 -0.31970742213452036
Ni 3.296868587728904 4.766795866718847 0.9260893094740339 0.33905574475414507 -1.2138298866279287 2.200000929619166
Ni 6.17483147080395 0.6834269889921465 8.919835396889201 0.08196239790642014 1.2020028120860138 0.15802617094021817
P 1.3950490743298312 5.703120040533102 9.664778791670129 -0.9624865548901036 -0.022497923992199964 -1.7096506762216814
P 3.9284945740822823 0.32876717214609363 1.8851930580796548 -0.4745418256103182 -0.9623747119025877 -0.3144975957988067
P 1.7712887139656583 1.1123586643403423 3.8001617794715035 -0.01285423025484883 -0.2516940302090246 -0.010837456935136176
P 4.389548731180297 8.906725934147635 9.441157219441523 -1.9991687192570153 -0.13049711228201397 -1.1344247079257235
P 4.22220273742998 6.553760847207595 6.717609258851581 -0.03527013605620377 -1.341231647814071 -1.569365117094336
P 1.8090282164501954 2.4771458892618035 7.16305185099824 -0.3079605660112374 -1.288816110326832 -0.23268843564079925
P 0.3933125358002134 7.967832183627354 6.794327761073453 -0.05720061758070794 0.46907488895847604 -0.3510661389514599
P 5.577626720613299 3.2371582800996834 7.161739333400199 -0.4075795006571561 -1.674451245502413 -0.09811226819340522
Ni 4.035908426243146 7.034604442174675 1.1403162134867981 2.0466659935070304 1.0853274361784406 0.33957150804829905
Ni 1.0055178832434124 6.730654944329581 11.551242773480281 1.0755988960367668 0.38966456804994826 0.3279092412190224
Ni 8.299233634051207 3.0917368760856685 7.001268343800751 -1.892609348737521 0.34318365087958963 0.6762446115028805
Ni 6.168324341303799 0.9468428007619426 1.6328920520256698 -1.1887037809842624 -0.2876604210013046 1.0174868223853832
Ni 8.198132806675291 8.68664815943374 9.205564007825707 -0.8076770911149702 -1.3127841911066553 -1.067051520687388
Ni 1.8862356776927471 6.582802609834687 0.8584512106910074 -0.9678372776790557 -1.0611595806829854 0.875982560359588
Ni 0.7215038639578704 0.29633134992744614 12.43022379288263 -0.9174212871203491 0.5205380898347745 0.7914655143521143
Ni 2.745805301266593 7.799321561585817 2.802512531659168 1.3331126182513622 0.5385460963764209 0.38584776540701937
Ni 0.7787213124589798 6.198308898261878 4.8968506474459295 -0.4930393701938735 -1.3928539999760527 0.4525177559307432
Ni 3.301046460646614 3.4498600756358493 3.053419680996359 -0.22595574490265605 0.6483584266155737 0.6052687945149512
Ni 7.268472894749683 1.7896269880115367 4.901410259636873 -0.12188494513297074 0.6054351448894865 0.3567135670452244
Ni 2.785948004986981 1.0629451496985751 5.831391830804818 -0.05829487908615121 0.2904662658812159 -0.4938986328703752
Ni 8.756766177030533 4.015592132718528 10.977728965934284 -1.5501168103876852 2.7783371614093313 -0.5323029436801865
Ni 5.890736112399655 8.089794646346792 7.357424615570205 0.4656944025220174 -0.46914379452319843 -0.01922310989567012
Ni 1.1343387125667026 9.132811711951156 1.5121672379426943 0.41738697366588123 1.983374689647552 -0.6391145394198026
Ni 4.809452688655202 5.6453045646475335 3.2244564372600433 -0.21147503478797772 -0.3162749994142037 -0.7633109062947693
Ni 0.8787813688381393 3.4970737368386455 3.177770556020967 -0.20021128894870036 0.6526768514852694 0.641262953221373
Ni 8.58315337390365 5.3080892158492565 8.562880522862912 -0.10636936599587488 0.6795875598331844 0.9137752057273295
Ni 7.896087383655525 6.477588611112794 5.825114854038408 1.3514965200751887 0.3866324660918438 1.0907236674933471
Ni 8.412202578299558 5.385832775829036 1.5865583321984622 -0.2598711667031782 -0.19671278887713867 -0.4945313813583677
Ni 5.184389053774664 8.33786971545835 3.1142696605962743 0.88663566919806 -1.0740534059265179 -0.46983799237674573
Ni 3.2698325738255805 6.108429172041052 12.577003929903068 -0.19085941542015517 -0.9256660436276445 -0.29825747979086054
Ni 3.1286352581376575 5.61039344515596 4.958674847854532 0.7006420665106384 1.1468210247075474 -0.008108230929431196
Ni 3.357937628364549 8.356947436038336 7.270005397691621 -0.6033754341469801 1.6900480714994057 1.5592413983967726
P 2.6227059395009635 3.56416926672727 12.87250062955514 0.9127750465975892 -1.5519006417609853 0.3245290118928798
P 6.657662328331445 8.998103039600032 5.414047282646094 0.7433133801269198 -1.1014713929281545 -0.12101565515413998
P 0.5428073659089956 9.254450666811923 10.413806704243834 1.8440388960279854 -1.424465970454379 -1.0812005584942606
P 2.1427958957831943 8.246511096169307 13.099002346034096 1.5623724878265868 -0.9681054437387778 -0.2795341923497444
P 7.791927096244737 2.22417198686178 9.396744211986661 0.006679211792388497 0.7682165711265028 -0.5564036933831321
P 8.042155803386885 5.625496640615116 12.79471362709148 -0.36853472804986853 0.8063714849296693 -0.5560612224420488
P 1.8519346015918123 5.610374958992607 2.9541360434780133 1.0909699791761986 -1.140959423720448 -0.03164873725353259
P 6.90171665691379 6.771703470054252 8.820957530656448 0.7481933339270405 0.2954110114810009 -0.4786026259432532
