# total energy = -340868.0754538767 ev
CRYSTAL
PRIMVEC
9.30605182746289 0.00000000000000 0.00000000000000

0.00000000000000 9.30605182746289 0.00000000000000

0.00000000000000 0.00000000000000 13.62034751962454

PRIMCOORD
 96 1
Ni 4.5614263573519205 2.365849592172521 0.5410287164424374 0.997685728499056 -0.30157497419986773 0.1898101482200344
Ni 4.70870393072423 0.7393443994699415 8.875440164394798 -0.3570997467400495 0.6866249262959401 0.12251897917254383
Ni 2.896145639249972 0.6677361932532567 0.09582999744462924 -0.2875971718635369 -1.3944802227255662 0.2917243066580331
Ni 8.909297441498497 7.291803298606127 10.76515493007794 -1.5568710983923832 1.030079057228097 -0.349802698858004
Ni 6.8702763831839 -0.1981714392269689 12.023824472338172 -0.9915798727116343 -0.5583626168817157 -0.7581974963276038
Ni 7.632200055766014 9.032137323244642 8.45399979525289 0.6534270993877327 -0.38975044289553523 -0.5109830991564877
Ni 2.318630686113435 4.50068575824911 6.646497481638684 1.1313111019974065 0.8148599820166548 -0.4766398457899275
Ni 0.6382229810585807 4.091908133583869 0.8010667870215558 -0.5195183903210085 0.08313687783049553 0.21168200859246125
Ni 8.585381701806217 4.782482308185097 11.711156026666982 -0.23409611462160326 0.4238990637527861 0.35978089311663847
Ni 4.407550793361578 0.9936443586032514 11.812136923698468 0.3551598494048593 1.4177962717436872 -1.2273837140529635
Ni 0.5821493668569595 8.431645728590587 3.779973004782499 -1.5631337914726433 1.482326075995957 -0.020998713738854157
Ni 4.230558997079007 3.8833595161648455 11.77560787916679 0.4313105257255088 0.761257109089534 -0.2244418793612909
Ni 2.5642639193474883 2.9085599121476506 12.730706571846365 -2.2874068671386607 -1.1545991259910695 0.1321909550446691
Ni 8.93166918965893 1.544962776352258 7.747607194061352 0.2327061762526121 0.5698292227604187 -0.3457719804320561
Ni 7.070942774857547 1.8074585751714642 5.605072131456841 1.0980618530259734 -0.047417570052015114 -0.06395002048939953
Ni 0.12120387786652619 5.513844907157034 7.010760538853583 1.0914420337166106 0.9384220577417322 0.5641416854573381
Ni 6.452034503993218 4.606979480166116 4.308701912762521 1.34414984990213 -0.7862058086150718 -0.5148099291017456
Ni 6.503683090636484 3.3437946416465496 12.401476146058235 0.21874868563125552 -0.9273331469174223 0.0446016978697748
Ni 1.215826341685768 3.96244234306475 3.7572950875228637 0.3452495322696828 -0.636416166652033 -0.5051621215993365
Ni 5.114559455172176 5.926614827979024 10.943431892093022 1.8257488394695458 -0.3443056802991748 1.0235682526927727
Ni 6.467175450023595 2.274678204182598 7.915301314142972 0.19482894159086447 0.6351211019896933 0.9863386789173529
Ni 2.6196163145464335 0.5236664158838175 2.9705838157726414 0.47950919691792254 1.164603031281317 -0.07112288408875493
Ni 7.528177010450983 4.796683342999083 0.38719130726385004 -0.48624291609733034 0.6437188709610333 -0.2981376663835446
Ni 3.559890466951644 4.389441216855669 9.129296224864524 0.8602615500799056 1.4074316406799117 -0.44438792773475727
P 2.630132152908035 2.7376635796941495 4.888696928663099 0.6945583222104038 -0.46219487400919107 1.4002070979070145
P 5.279453384313081 2.7295859268641753 10.36207447023126 -0.2815771909217022 -1.421998739860809 -0.4420268837017484
P 1.7993064739283107 4.684964192971623 11.627989704304184 0.5339661903152223 0.30318319922725206 0.028963220001569475
P 9.132782271811653 7.30123032892498 8.655880626666528 -0.7224367937882268 -1.1886443885012368 -1.280735904421859
P 5.227218516416028 4.922240591826279 13.511466623568051 0.043773288431208486 -0.44606737231970917 0.08860072915854418
P 0.009763909388489063 0.7891019964184482 5.458490650747759 -1.5213916745388507 -0.3746665519792193 -0.8674205297221901
P 5.194414684358819 0.14931094565727487 0.00832426319863083 -0.017846284152801522 1.129804178434577 0.6179386766731358
P 6.199254223093934 2.5315717599100487 3.7824251493915977 -0.2686268014086212 -0.9343026362567199 -1.1205443503992056
Ni 3.9496837462561163 5.583174991930426 3.5449812416072874 -3.1677291925241833 -1.1432711025727602 0.19087767025260033
Ni 0.5691720778346111 3.0640640351762936 5.938798310795846 -0.7301357050943812 0.14569541728900712 0.008539919150211099
Ni 3.908811567420581 8.595934764374409 6.826000050655733 0.7998473106579064 -1.1722983430430456 2.3799588676354686
Ni 7.306432411795896 6.346029269677283 9.290833461176199 -0.9782394468489861 0.8021085958882573 -0.4645965414721483
Ni 0.5932459028413613 1.6036002077827474 13.776845437187633 0.052388798014361394 -1.259449998459889 0.15342723871562608
Ni -0.0417506701110535 0.7531992491626431 10.125461592859066 1.65856157085535 -1.6446395614576192 -1.1291200078833585
Ni 1.9745022022429268 8.259800178869048 10.505986975327858 -0.2066418750653925 0.6466717829417702 0.10860596863587747
Ni 4.23036356999441 7.928141804206103 12.115666826651875 -0.5663052687675602 -0.3502313017549904 0.6483540557401994
Ni 7.7696690507019275 0.22347087123568637 0.646864580618389 0.27335043213653565 1.32210289740442 1.0952184700399072
Ni -0.26482696475688866 7.894295694364381 6.260905884653028 1.120808916914502 1.2904382193112873 -0.10128372394285137
Ni 5.609911278313508 6.728396319767103 3.010069392912709 3.794538946434704 2.939561013351241 0.24765894090770246
Ni 2.4687372991865653 8.35152062390617 5.122026631014079 -0.5458506004576341 -0.09856143991568186 -0.8568766927680728
Ni 4.287809826814029 0.8615328576007664 5.246898023834859 -0.20785569286783562 1.7716551429489358 -1.196994303127829
Ni 9.293051093283783 6.466672923234634 0.9364205164180074 -0.3382023956149143 -0.09100213951118521 -0.007933910135096013
Ni 0.4135516291603751 5.380163475241626 9.52374159938755 0.5202622104655685 -1.6311165872705198 0.24414784243065052
Ni 3.1791612819517727 5.7345472280276075 13.152392620751764 -1.1383577244315426 -0.14362722190606877 -3.359180475892067
Ni 8.175133720980682 4.8338051830207025 2.634624184038252 0.6825453569099277 1.3328449664122721 0.0886179555497248
Ni 6.944185045367831 7.294027444949864 7.02940707453955 0.06717264119175528 -0.12949669604195763 0.2828851110998483
Ni 1.2146816973331336 6.243979107311508 4.424569700614408 -0.18065702096585662 -0.09373265106847084 1.4370846876596541
Ni 5.688873126541996 6.292826572408896 5.466934962012641 -1.4706854064332349 0.8608091950532595 0.5911331264445173
Ni 3.0736957986313884 4.14890769992441 1.1126315349673586 0.8104482261022042 0.8805976905340962 2.06450173613687
Ni 0.7885250212163074 3.016770680704027 10.873259609645537 -0.3884286387603181 0.6157290706163266 -1.4436584842224298
Ni 3.5617889014877204 2.3178955080332875 7.346815092314777 2.5141521978221477 1.1618154412338506 -0.7563303612118781
Ni 4.099213384127106 2.6273496434654517 3.1625899957831844 -0.5705290770409206 0.9000372873159468 -0.1576991266181026
P 7.622326334968085 6.753922819436017 12.546859937920292 1.1386834832020776 -0.0740634547743176 -0.1266923938239431
P 2.4579608913788356 7.744672995976917 0.19220905193645715 -0.2567241364337643 -0.31564199381589514 0.047415256059169957
P 8.518089642343613 3.3374293023197037 9.09743881825986 0.4202542679113471 0.0003080181587220502 -0.2298525088539009
P 2.6166290719676066 6.641096249262513 6.425930098516997 -0.020487321320074393 0.06701169013385878 -1.6466110833616932
P 1.7673401865193707 1.0906320288728215 11.35559691955793 0.4693615669609594 -0.5677689977972802 1.659681800502722
P 2.370186212240226 0.8571599439316366 8.673191743941087 2.5527717099665583 2.1001657651973833 0.5566070676431898
P 2.001405997555662 2.4023479267337624 1.3705608542431682 2.0649519363004116 -1.004390137102425 1.5616196688209623
P 5.182800731902819 4.02826404636706 7.4424980541433765 -0.652250048360496 1.0842388310999522 -0.35881338699704657
Ni -0.08646997069763886 8.854605775966519 12.414878721640871 1.1234250143811104 -0.5722378322019113 0.7409129982155435
Ni 1.6790350624368575 3.050067733498551 8.367782949160063 -3.1303877757612475 0.37247057276916495 -0.11360059363699145
Ni 6.667106663617094 4.3589080614004345 10.172901052342196 0.8017751238082386 -1.3345370094027145 -0.9522188544155084
Ni 3.0233035289605272 2.3942144375939036 10.044121117829492 1.3858693411281033 -1.488794714439436 1.533694917386236
Ni 7.147885209878542 1.471175092839744 10.149379076198139 -1.6333351921883934 1.1103224155608813 0.198061075374917
Ni 7.73587877717009 0.8199515576296962 3.208068670184201 -1.304735609770566 -1.3914182959707908 0.5015546067537362
Ni 1.2032073356518458 8.71457761682756 8.132532477749052 -1.1972457570170028 -1.1722844590859745 -1.2296079753977922
Ni 8.645694222533244 1.7346294149786359 12.05588661207908 -3.1411308732103644 1.1879054534526832 -0.09280242594471759
Ni 5.032638282519804 6.344568219568636 8.379360608014636 -0.051417949460659834 -0.2579919474025944 -0.21561116844353834
Ni 4.413823072171949 4.193297566282677 5.23079948508996 -0.937870041893004 -1.635265833552203 2.184465295877412
Ni 1.0626580376206312 6.574772019171242 12.186968863769359 0.9334850254514311 0.17300053286186334 1.9248057309644075
Ni 0.7958851774642639 8.637458366825264 1.374211618304457 0.32225872780146436 0.665478374125312 -0.3548582590040405
Ni 2.4399909056476377 6.629761478355936 8.45613832592147 -1.0565750466360966 -0.6960480193820529 0.421625437227261
Ni 8.447484628494522 2.9354730135120333 3.8915916494521667 -1.1215295971306105 0.1984012323231551 1.1150028517556863
Ni 4.296269027761547 6.617868344350514 1.163182007516227 0.4547978102141716 0.2630536781962179 0.46547585875330805
Ni 1.8319893273141035 1.0983746638434877 6.506508407916645 0.30169967270319004 -0.26577493378212297 -0.9500989798590282
Ni 7.419882487429779 4.43199779103939 7.309549939097787 -0.8440481735448367 -0.09600704892494433 0.00911738892023591
Ni 0.41627271866208515 1.5366524722310981 2.5775687813878263 1.4754715149679685 -0.10136548502338026 -0.14890492536524033
Ni 8.010491055234256 6.895774964697873 4.403948420768856 -0.741244413413033 0.04019919792670496 -1.02955352374193
Ni 6.304496361174779 7.691944907342548 0.4946668977400797 -0.3389145911905905 -0.9725349402650413 -0.33608380661001475
Ni 6.297377231664491 8.694495157372396 4.997237131447795 -0.15328994180681343 -0.3577263245804549 -0.06616708274537636
Ni 5.300931751515362 0.6119845684386369 2.7241102460748245 0.10582274946378549 -0.4236347543478059 -0.7190989876642455
Ni 5.431970264762898 4.56690762177226 2.0594376050239034 0.6513720166309169 -1.1172242848870373 -0.796873315631247
Ni 2.720866156470529 7.538395055159867 2.7020725851685334 -0.9763869670212797 -0.5199557349687433 -0.6927297536420973
P 5.899376014806981 0.54096450468607 6.860705109064513 -1.0050195431563078 -1.7822925680581239 0.39672610288242
P 8.038939655120467 2.6746802221443073 0.45991996209888597 -0.2199622463233825 0.03664516202685947 -0.48176199750784127
P 1.8302677077593277 5.524751599687828 2.449006608483673 -0.1295522318702414 0.5016811050292715 -1.4343827153474589
P 4.327816542846353 8.328339249252409 3.9284761851567764 0.3486387604568899 0.1989221378236316 -0.01121386643794843
P 6.092104344425365 8.728639060866836 9.795236350149827 -0.24793147784279881 -0.9631830667364961 1.8735291921776185
P 8.484848425858974 4.962144941290482 5.198042183290989 0.3305885878233984 -1.0936207865354843 -0.7449969384769299
P 3.6312678830874723 6.930309722361505 10.118337810322956 -0.28578402991419816 0.7509045622106164 -0.08113347424722156
P 7.7190255176365845 7.595841311979485 2.1240793009773182 1.3236622714717396 0.41664161085942436 1.0164846063731139
