# total energy = -381165.61067216826 ev
CRYSTAL
PRIMVEC
9.31452749062340 0.00000000000000 0.00000000000000
0.00000000000000 9.31452749062340 0.00000000000000
0.00000000000000 0.00000000000000 13.63275250940208
PRIMCOORD
 96 1
Ni 2.7897941251698315 2.8609757441626793 12.055388665294249 0.27914929820649986 -0.09137674924178456 -0.7557786024734661
Ni 7.13362401489956 0.345100448730609 4.702944976504912 0.7957371451442747 -0.29577739368148415 1.792147606475333
Ni 1.7318221505473985 7.2378722064420815 3.1604266251725286 1.0460461220803148 -0.4342534104039166 -1.647540537154498
Ni 1.684103826273601 2.8485501645059847 3.2742874090731533 1.325480555627401 -2.1021701972219216 0.8551224290811273
Ni 1.2933128259013253 7.291458683027511 11.665245956034497 -0.8251086563278565 -2.8779473543045015 -0.4622972039150103
Ni 2.4799184250057302 8.50433124962208 0.6827092230100341 0.7383400952820446 -0.13919515427664414 0.26012673435741007
Ni 3.326730061684188 5.504876425432357 3.506670897877532 0.6054027489896541 -1.2862185248029847 1.0141718990795374
Ni 7.7418626592639885 0.3313997102620694 2.653887717632427 -0.9249062826434845 0.8551185724263853 -2.101440775255065
Ni 5.457940521466778 1.330449846959227 13.294005654387423 0.46418825029013605 1.1123160489521424 0.4288738912595582
Ni 1.18993088541433 4.325228778354602 11.459092176610365 -1.1399188982710755 1.8415837496192735 -2.4371327457432996
Ni 5.344880786929329 8.923512929749682 10.939738342164958 -1.145410517513266 0.3508727919937312 0.19063007301816848
Ni 6.572479621467851 4.796497296143549 10.566760444143103 -0.29513976009748527 -1.4502124832908638 -0.26091760568982164
Ni 6.187444999077461 3.417006462008538 6.377714714792027 -1.6294610539449679 -0.22623393826470717 -1.0196002691839603
Ni 0.6797416145552944 2.5294344530829327 8.127915359507808 -0.414887347172479 0.21246079574001475 0.029593397386400645
Ni 0.2585386819647973 7.973161005617089 0.15054511892305728 -1.1905434052961625 -0.5153979403947317 0.3723682428633458
Ni 0.859407672188014 2.948755851122716 5.64698630827063 -1.840854841873049 0.8281965512245608 0.49437505828616146
Ni 4.830970362342519 2.7658930476592785 8.634508291307286 1.0575795766412108 -0.38318898762793363 -0.5952453488406781
Ni 1.603728768659196 0.028755809232494087 12.218040807034226 0.04220183017903054 3.235664680023892 1.145492278593795
Ni 2.6746386219496565 2.0787510410220924 0.8710852952881623 -0.3581451572854284 -1.6988075628595904 0.35499941256759504
Ni 4.641838881885862 8.918315423416521 1.6469183696728096 0.940789015312012 0.21876565491212 0.2916649141750074
Ni 6.256838228794384 4.9448311462431445 4.337737257305857 0.02696804394841162 0.22081353858008423 0.19985776226402352
Ni 5.504159206816491 6.120818184021738 2.2433378101194124 -1.0348880485809662 -0.5530196074022475 1.1201648555725998
Ni 0.47099094487007964 0.7163151067007297 1.5782907941146438 0.6007901899183072 0.481699519701022 -0.9091677888623051
Ni 1.481373135697923 6.665475863816004 5.368850791943224 -0.16644267713868754 0.3974575817318058 -0.6887915949299558
P 0.060958925084885186 5.626570726942637 13.058785891965755 -0.02693667648984393 0.6559364960731477 -2.864696402831866
Ni 4.161311723783006 4.976286305538989 11.531440905896305 0.1714319028231628 0.007497336818309669 0.1991597077557344
P -0.06035906951525166 1.4504954771057623 13.02833111292113 0.544446778131572 0.24436792886125655 -0.31466626016618715
Ni 8.141604920543372 7.933741925326886 8.808571660661519 -0.9500269889705121 -1.5994403392131615 -0.5251876727916439
P 8.547569286178584 4.2355764513713305 9.7253465761386 0.48386593122472144 -0.5081525716862281 0.17265446237635426
P 3.3720545523959387 6.157200728353858 1.5140810989396636 -0.374478090117497 0.5746040184412426 0.45141269579202253
P 3.5290788566332365 1.0119023217123801 12.69304724470041 -0.8161655882019557 -1.4832763557243682 -0.029016441837008095
Ni 6.390501698114897 6.475319785336682 12.090806224579568 0.42059905284527566 0.3209832035231504 -0.39124631071477134
Ni 9.287738897752472 6.861639812519141 7.072126710126401 -0.25109830560655466 0.23394647641761648 0.6332138576646514
Ni 8.77676254932148 0.7084126615877315 8.26855075264619 0.03951219916200937 -1.1710618995327833 1.1716951622414078
Ni 7.848933152632582 4.30904012959648 13.666834519969616 -0.7582358057647071 -0.35078768847909264 -0.34381845625011104
Ni 3.4625917594896944 7.20196470301138 12.085966396101593 1.84554813358366 1.2665177039399476 -0.9711529723158501
Ni 5.038460776459855 0.34253522786295265 3.9696261998916667 -2.518825692038417 -0.532153819696832 -0.100317246264524
Ni 2.6213595247710266 2.089416174985297 9.167003992572507 0.912424605236706 -1.3769764095138477 2.952560510934702
Ni 7.635332408489165 2.902099382981499 8.02185269801242 0.6675324284408632 0.4255988200527122 2.6016383537602743
Ni 2.5895410989035095 7.535443415806713 7.260149761813083 -0.04778960867945318 -0.5299647824653131 0.3731814827932605
Ni 8.266391645176608 4.5797296126573475 6.281563641986809 -0.570117957645431 0.7882560062758812 -0.33904931699624186
Ni 2.2047672832825262 1.4280847239918142 5.03348495588069 2.6019792820394607 -2.6117103932842958 0.39203486805433774
Ni 5.023659992296071 8.588981675349245 6.219602473745207 -1.2607388924746414 -0.02515181667527926 -0.44791625260298984
Ni 4.26332442873062 8.615826143543094 8.603070829613651 0.49926529649892726 0.25484543135381266 -0.35285896918582454
Ni 2.630375987370487 -0.4975690175780346 10.214857595994742 -0.3347239501480106 0.04992079608984306 -0.26524657208247865
Ni 4.949097199828426 2.7685197444082945 11.059665677812513 0.6872916133456616 -0.7172102552819648 0.23911670776464625
Ni 7.5256817910089495 2.020665647664411 0.7716722749598758 0.48028489874168245 -0.6686084351138615 -0.7136832159653128
Ni 6.7526784700723566 7.26509857026256 0.8118700497473049 2.9484634580471933 0.14140116078902745 0.5569392541716279
Ni 3.6989292652088164 4.051754251577579 0.5556423020499933 -0.4022213216690363 0.17245083100598044 -0.39303656984597474
Ni 3.8977571687708847 5.0923360033971266 7.503166715187239 0.5833377987698147 0.03681305506329144 -1.0735337859776222
Ni 1.3314930740368505 6.344888457051304 9.420736378358253 0.3304140099187471 -0.47301844698725626 -0.17291774334006996
Ni 8.990009341420702 7.9138088365222945 2.7901881296821838 -0.3351312128887583 -0.8485907986101967 0.03527193582841667
Ni 0.998228595373529 3.4918766338829834 13.488763109441264 -1.225013156938258 -0.8365654920145463 1.8385758160308852
Ni 4.896367659771044 5.916662370741806 -0.04542415615577349 -0.3037897224629994 -0.09377044628494173 0.8039474488692089
Ni 3.1514679126434366 4.302706250910908 9.547589065186282 -0.7613761511659016 0.044840553353458254 0.7668315178535181
Ni 2.169204417368539 0.687716712982627 7.390437646375286 -0.5914048920486653 -1.7295970374366212 -0.004970456631397891
P 4.023987645163331 3.4329156749422967 4.650431533485038 -0.4470155951655915 0.658078482116815 2.0178426415174346
Ni 8.826157488541458 3.248497345389903 2.2332632171983624 0.10593999176794011 0.024850740495092685 0.6191686924254949
P 6.277749342984247 1.2914778639880053 7.450231324072576 -0.38913466368840727 -0.36537304249243524 0.30622738537021454
Ni 2.6662089745813593 0.3813088113988762 2.8725844397594846 -0.5866866606373895 0.5302036379489966 -0.49664045728157047
P 7.6160979092454815 6.151490923009365 2.8502677633730724 -0.6509215593570595 0.2997996274669998 0.857844970218613
P 2.9281428018121725 8.390889619458001 4.52034763707462 0.6139043587027619 -0.0739500691249049 1.661930487327583
P 7.302850350134061 8.063754099875718 10.951244577959496 -1.8262679451978097 -0.10744640111013755 -0.36293460825427176
Ni 0.21628146515180946 8.902909194966618 5.4642119928182415 0.39022995363511503 -1.1862632898635699 0.7479691337313763
Ni 6.0221493944390065 7.5647282902000015 4.136913250505086 0.04975238883277883 -0.7154498209474324 0.02064364439228058
Ni 6.2411153064102 6.548038301363527 6.63763753554017 0.5365259806225986 -1.0667252476962208 -0.21186250003438353
Ni 5.8591544780878095 3.759194257996532 1.4792904073536672 0.8537736283627168 -0.04757723555833096 -0.5904268444061122
Ni 7.907838224408396 2.4961909045111614 11.358346247399867 0.08416711886722279 1.3545754161108283 1.3228526310862507
Ni 0.3739168023917152 4.737210328741106 3.9556795578976875 -0.6352059483940157 1.2449062963177593 0.31512983006616696
Ni 6.785847502424297 1.1390363072702683 9.958411888354426 -0.14558614540465248 -0.3783766538409548 -1.7008911848614965
Ni 1.748159831745181 4.4586780135431034 1.9973485910267774 0.8957314608517412 2.1305598041082083 -2.109471615979341
Ni 7.60356986978652 0.025521805291861165 12.70723885876708 -0.1446428076547767 -0.013921752287414732 -0.015361570057734832
Ni 5.3497057121633365 8.271924474499006 13.16900748998042 -1.4298604019970729 1.0278738220466621 -0.42238031311541446
Ni -0.11654336781451348 8.677451057342711 10.604904365621461 1.7372440124589175 2.4621922598150885 0.9082450199377197
Ni 5.987434150525588 2.394140941453632 4.258095253004032 1.7544716891911138 0.9145244251885282 0.5689072251667815
Ni 2.751856054748755 2.9145063335832364 7.177262576137651 0.44894855052224614 1.5656794407126327 -1.026350186313284
Ni 9.469986942402311 1.2601531080768633 4.005807550430245 -1.1817851994875583 0.5339232528924288 -1.1949860144485485
Ni 6.275085388125316 4.8070785993594445 8.195656192049995 0.06807998349737308 1.0810699464536673 0.842597300030923
Ni 8.160122201171191 6.787021132886624 4.9499429589235 0.32685097515783706 0.13780470168702072 -0.06430483272565699
Ni 2.0287972301533874 6.145157044323794 13.489172017197582 0.7533975038357992 -1.2832805252205834 1.0727022912152622
Ni 2.2577390010543565 4.564556247394412 5.613913215551721 2.61605350074434 1.1918351275243926 -0.7484820688120528
Ni 4.163677613762617 6.499164975682361 5.532020821411022 -0.7195769557419285 0.3102416487359302 -0.5924227917902184
Ni 0.6104778567703276 1.7329585228998097 10.37205701334864 0.3100465020059886 -0.03232879403969271 0.8215872734381593
Ni 0.8664913703356273 4.609200777600212 7.556525917302188 0.7061812511613128 1.7509179104015846 0.7945302693203671
Ni 8.497429184760303 6.2111877296208755 11.044233368685669 1.0946358580635598 -0.8709971913298549 -0.5603580500451898
Ni 7.1487414929976225 8.650010459390222 6.844869005793596 1.5347184735547441 0.6213371608317235 0.23111852005051808
Ni -0.14423825236717436 5.686742574455565 1.4652347853881862 0.044370555695575194 0.7630594524055956 1.7537366107973023
Ni 8.471590685534164 1.6531050788242163 6.264576738223756 -1.2783288376422628 -0.6453960015531401 -1.010078445736454
P 1.0341733569141467 8.372232620918002 8.690143963938048 0.033633371783729174 0.6942865566062558 -1.1154275979979305
Ni 4.31293360208261 1.4845214459857508 6.367559085481911 1.0331011318838725 0.7033900615694209 -0.42425953241599834
P 5.96203343409095 3.8635914819787143 12.753521814356397 -1.1087874669735938 0.012192685411449971 -0.5263989194909258
Ni 4.294407006927314 2.597616794227613 2.7801405488908224 -2.7769739625132175 -0.22004117919043392 -1.8979186767655765
P 3.6903040127634643 6.403989133904172 9.157665247322281 0.041676296692863705 1.2092558941040012 0.30907642478323544
P 8.136100034803412 3.19508784482657 4.615572845848447 -0.259844684340617 -0.11671317112404415 -0.9266913995683654
P 5.972158325460386 1.3946176267605523 2.185370711260712 -0.4557594027964925 -0.1695493410884693 -0.8778424963864624
Ni 6.005085180097878 7.179516691787516 9.299432355549335 -0.6423464160935388 -1.2922616456732712 0.14678530791907624
