# total energy = -340866.1974672942 ev
CRYSTAL
PRIMVEC
9.29586821946341 0.00000000000000 0.00000000000000

0.00000000000000 9.29586821946341 0.00000000000000

0.00000000000000 0.00000000000000 13.60544277994344

PRIMCOORD
 96 1
Ni 3.0721914686074463 5.7166614513800225 2.360558366152504 -0.5072238892243717 -0.1231743533683556 0.1741773267787839
Ni 2.344585275891049 8.033786732722776 0.5363595082748054 1.363116106591988 0.1450215311504341 -0.6431614557956665
Ni 0.7352018465909442 1.2642287740601654 10.447252532514964 -2.8457975090448344 0.5427423938459556 -2.6043135865995923
Ni 3.4261130571102485 8.650084200076513 8.93213664306434 0.5410935453886229 0.778128430923576 -1.2694387342414846
Ni 0.9364471668267629 8.688950224858647 9.132435643921344 -0.6045951654866942 -3.207630399594495 0.9077385126149464
Ni 6.500433279526618 7.297563270220912 7.031415128070148 0.6460518899695842 -0.2675114568572554 0.4380866681070778
Ni 6.968684750544484 6.422357282840383 1.1052350337908041 -1.715777615055026 -1.4755640746817749 0.24614661802823415
Ni 4.508170702814639 7.766251647042355 4.945306114336393 -1.5331053634313532 0.11835147805841553 0.4320219499702366
Ni 5.903592064234352 4.681138921690789 8.853442471145382 0.35252601132643807 -0.36439010975387565 -1.1728274760736381
Ni 8.01278736654654 0.6486935678956501 3.7666262853772823 -0.6851318866901813 2.0951297454353726 -1.1959393795007534
Ni 6.686657406400694 4.845322545154569 12.897551350722425 0.08195982680325885 -0.6416810145953982 -0.31237977812485557
Ni 0.5891777015801418 2.155181962105831 0.3354423321850784 -2.9488619790371926 -0.31347892472630534 3.5132373777718917
Ni 8.118695192507522 8.711790172930808 10.121619200413623 -0.8705066248466815 0.45538453595557704 0.17241869221646433
Ni 7.977974340282705 7.8896821844872695 2.581823268060364 -0.1343357693018138 0.9783356061072184 0.071942808886889
Ni 6.914108708569857 2.1941037620969333 0.4626191044989713 -0.44713926522764924 0.9141073922557676 0.07879994101803849
Ni 6.173069986360472 3.0392933911848257 11.087361366163712 -0.4133529128058236 1.2881311684446655 -0.3000312838618317
Ni 0.778370928744916 4.387138499355324 4.273483496868767 0.8435097845428634 -1.2299393905952818 0.1860681646790989
Ni 0.883128855814352 1.6569327245316519 3.317496415167083 2.071311559969852 -0.11323164033334691 -0.79819074889109
Ni 8.564896864246931 5.625032078914703 2.7744903611569924 0.09020689730339948 -0.8233435940076336 -0.038017102673721624
Ni 4.3772012162909615 1.227147555964988 1.201805160183822 0.2891994833536503 -1.2911588995273957 -1.7402447469584545
Ni 4.335927561655066 6.502162311004608 8.378367832897167 1.0006252707433543 -1.0263779542274258 -1.853745324682472
Ni 4.639195964547285 1.7677952482225727 7.809782338467799 -1.6381081880970048 0.4338397199052657 0.9498364702262609
Ni 1.9378910438369 8.52178262771511 6.826544419251447 -1.7628151760598028 -1.655068727210743 0.12771723554403167
Ni 6.949628220813946 1.084669784657698 12.06862670215625 0.6709039160162574 -0.882586438829351 -1.0978366243890447
P 1.9829202292099353 0.889993854451426 8.35185043938042 3.3192337602958 2.58895381631407 -0.2458897648224217
P 5.844107803870592 0.8179248477709823 4.269687064311718 -1.019281966612593 0.51205550628506 0.23215493173483243
P 5.868639599948098 5.276176738559775 10.817496735922084 0.42947475806835067 0.9528886267890234 0.7378197040022003
P 4.23569021527244 3.9123148495474642 7.734884599105891 1.198530280156381 -0.20064297716948024 0.38988259759802535
P 4.774608876052033 6.771398540558536 1.6106802029085974 0.44538988663671036 1.0693544577889518 -0.2975085174399779
P 2.3837673601906664 1.2226204681704655 1.5968024013306858 -2.279972265237486 -2.340553369254653 1.3931545619356072
P 2.9086399641786302 3.6764043073515738 3.4327214897860725 -0.6664718483868329 0.34819318827903906 0.3277202651366679
P 3.093162947179198 6.367920678888176 6.421537387268562 1.481080376514314 0.9947896378981836 -0.8975679998398477
Ni 4.46724099530071 4.513720336106898 0.7129242985425381 0.8771272154869926 0.844452608072107 1.6850519038363947
Ni 1.3893697512467473 1.9156646230633807 5.729687751434366 0.5975827387246031 -0.2319746974032263 -0.12810238679759228
Ni 5.335028879888571 8.864902417414555 2.405674003099439 0.909371420232679 -1.251040177129639 1.0978165697843867
Ni 4.289792167970844 4.6621753506418635 12.065414979706542 -1.2915440507809564 -1.6692568457856671 -1.819599017818066
Ni 2.987078499723154 8.340262210130621 3.0719460576879896 -0.31780866244991074 0.09879875273746856 -0.7975207194072588
Ni 2.1541129372672887 5.551734158463344 13.553252144038016 0.2957565677458777 0.5170426750870064 -1.0609736899244244
Ni 0.5359941806560687 -0.24245018544732097 1.5950882432417535 1.5428488159713623 0.24330657747627776 0.06535769947020356
Ni 1.1408726035605412 4.276434005423145 1.5009248171156804 -1.4204887309741858 0.31083737333840017 2.1094297069978123
Ni 7.303466146503299 2.686180543212051 8.021265198309589 -1.21114076983154 -1.5912783722276593 -1.3676677305184124
Ni 3.0979689110185578 4.04071867645864 6.023510622687951 -0.4588393272733969 0.7817649992348987 -2.7324897640579136
Ni 3.2083573454332557 4.720683544848694 9.566449502914553 0.6813847609429233 -0.16974525914935928 0.013902726124021218
Ni 5.426212050682151 2.454341591270783 2.7368160666731285 1.0238477316064045 -1.899672683342206 -0.05750992129101063
Ni -0.050667129412826056 5.3459236373735415 12.311769429781583 0.5268457772203572 0.04525758628621883 -1.4211698162016104
Ni 3.7059465763679875 2.5146531839008928 10.144327147157895 -0.35183361324510376 0.3109376463616903 -1.1659515748894114
Ni 8.131793070746705 3.86849412703539 9.652381437783852 1.1595999216397705 1.543140379069852 1.0074651764833231
Ni 1.1880770220833061 7.862956563523711 11.66846281748537 0.42218028128946644 -1.3971477422554002 -0.7075146252607557
Ni 5.831511902512115 6.49158361303712 3.6933609004644876 1.1783270657356288 -1.2109651634856242 -1.8067347602608883
Ni 2.209386169354008 3.128031748652001 7.935728337837144 -1.2649483025702988 -1.4090519498921539 1.3986477238396946
Ni 7.688714810709472 5.036129535032134 6.916925356622713 -0.9351055917739894 0.8477600751787852 0.7464323853718758
Ni 1.1777400166880099 5.605222583863106 6.47495237530985 -1.9012752519426352 -0.5330249094478755 -1.4536356500397998
Ni 2.672859564136997 2.929416229518996 0.5111063528279871 2.46383056674946 1.3145448825515038 -1.8050110927015626
Ni 0.05321512687582131 8.806561548834626 5.150000201660031 0.8611763485846909 -0.9874578801234607 1.1902176465256276
Ni 8.968356134180969 7.162187542188807 -0.062056427083974484 2.0074908659694652 0.7876150302577726 3.906462923700221
Ni 6.8803647071445635 8.247740434321823 4.900163519371791 0.08161889852407234 0.9766769874578727 -0.21834527954524974
P 7.826925778530754 6.45155560473483 5.250939386088831 0.7653665032722173 -1.6062969571236787 -0.5968479174411075
P 0.41121853108822354 4.680209334874665 8.411510391652428 0.42208335070028596 1.301079243964901 0.564661305406234
P 8.505152319574655 4.324354205794325 0.47647366640648 0.36490458749644894 -0.6989507948511448 0.05829847863057701
P 2.219007392900889 9.446182349404909 4.746776117190471 -0.25025755487281415 -0.4928383099266609 -0.6033270974075481
P 4.910402918151394 2.6347279129396 13.296926016186417 -0.11171957456419468 0.945677967973197 -1.2410013048363984
P 1.4400229368573314 1.791546191374535 12.23545592969872 2.1556663693678484 0.9390913158946149 -1.0562639431535807
P 7.888734005934824 7.679140066503397 12.04209536483726 -2.1450106894262153 0.9543862943804725 -3.0456226182987094
P 3.8232697284309682 8.875583369931817 12.372204657458239 -1.0938172188170063 -3.058065472047753 2.581617687663973
Ni 8.589540210742372 3.130151206592763 12.072803335721094 -0.2726274379275821 -1.2669344797623923 -0.25845603152320645
Ni 3.7677176202994116 0.23468999470631974 6.236571920943518 1.4195703329249745 0.7182374109948986 0.5237347423952012
Ni 5.637665163745825 2.850726705534119 6.028571293314928 0.6858158001310835 1.4056025578909728 -0.06503399758219768
Ni 6.157564478267528 0.6211982490483413 6.509605512641311 0.9502658444541957 -0.8546069228972895 0.3538606709774615
Ni 9.38250565250043 1.1227921399869338 7.656925730358488 -1.6488983367339731 1.5169979163465293 -0.222176737476198
Ni 5.810159293345752 1.086352336794882 9.61657189445313 1.1707752215302998 -1.5679540956794222 -0.595097253298588
Ni 1.393264720006306 3.5930110740771104 10.706612831734391 -0.5390268926675814 -0.6035055319669413 -0.3377635083052828
Ni 2.707393714355995 0.3800392596886162 10.877564776806372 -0.2485626836688945 0.12579790703413174 -0.04342644661475102
Ni 8.818330117926754 6.909135419103595 8.246517098071804 0.1284695403290239 0.10451894305069742 -0.7339435088762456
Ni 6.770468953742411 8.753826088755925 0.260092813630534 0.26057796296221575 -0.1822307932108797 0.16512781498200593
Ni 2.0039102995180103 6.482826905229234 8.377551655672612 -0.6324242718838204 0.7503798000553981 1.4741222000289258
Ni -0.02371375967931736 3.4435056264399244 6.7562583600843285 -0.1410077820053507 -0.7964123168344284 -1.059591721975233
Ni 1.6148875128383735 6.58840007993641 4.232313026369463 -0.12312781640113633 0.8911430701501105 -0.2965980898105666
Ni 9.080696700909526 0.32137768365712577 12.479075535360723 -0.0741812112991045 -0.5770059430145159 1.141559519198292
Ni 5.628285632771137 8.140726400049655 11.547687179987305 1.7132697610315073 -0.25763045029811754 -1.2537300652569763
Ni 7.35507680653449 4.3433642561840555 4.6318503695262745 0.18001193118268996 -0.09118803026974619 -0.3241713714431449
Ni 4.754157966097311 1.2234292087004932 11.613782661787338 -0.21074561282112092 0.5448082752360488 1.686230497525528
Ni 3.5313515805636206 6.885021937093344 10.441741941868983 -0.3802407036328871 0.33216904493664084 2.310463491847808
Ni 3.8105343890500722 2.0226972490718715 4.769265611032954 -0.3488830152572121 0.29986107683255453 -1.456249690623879
Ni 5.065894904884416 4.1571215375736585 3.984816114097405 -1.6883025495632085 1.9372501273753475 0.9123294744197383
Ni 5.214842600431928 5.657827901787551 5.984136113917396 -0.5191520081205253 -1.0577155879984428 0.38350600464772017
Ni 8.20505380772542 2.920166840698565 2.378939086267719 0.33048394392473407 0.39898378856834515 0.40598361692494594
Ni 7.892480240803802 6.034022390404679 10.211143058740424 -0.6716045416277079 1.406862398440003 1.427597316994509
Ni 4.261393290738262 6.70203277233938 12.897973383136947 0.0927754293615241 1.4906736766297037 1.7408301871482792
P 6.496752115734768 4.285404518198739 2.268761668060282 -0.2393211104659685 1.528949689391767 0.409112906582547
P 8.10014063965769 8.863535924794853 7.182163433280491 0.056110726950638845 -1.077426179053493 -0.8548632618824697
P 0.8992711308763411 6.845421538726471 1.9128163690587774 1.0888909851599826 -0.14759109164982323 1.1006656091974076
P 5.529089423622569 8.209748221146844 8.597333866608754 0.21698619441419403 2.612829080269771 1.506695763089573
P 1.925304438346584 5.545970720203377 11.233864248384817 0.7910546520669409 1.4006997212727168 1.4408048168237186
P 7.908022932369391 1.8525828617212217 10.105537348494682 -0.7599517600145492 -1.4693695158352889 0.1331299219191707
P 8.05762133868819 0.7826609719013272 1.5511159980786509 -0.7236778652841795 -0.4053323564941923 -0.0926407035558727
P 8.723279865978098 2.5915764929351344 4.5966394801051385 -0.19827910492299403 0.07446326131589756 1.2260835071843015
