# total energy = -381163.0626083873 ev
CRYSTAL
PRIMVEC
9.30967872288715 0.00000000000000 0.00000000000000

0.00000000000000 9.30967872288715 0.00000000000000

0.00000000000000 0.00000000000000 13.62565584768906

PRIMCOORD
 96 1
Ni 7.666241059816704 0.7288063294589222 13.224202987853074 -0.7791242191779422 -1.106514868889333 1.8738572649409986
Ni 8.560761530790131 9.115609067341572 10.570102052951166 -0.2867849603748867 0.4783149194995053 0.32147968354359474
Ni 1.5293381469395717 4.568352399556334 8.727668242136884 -0.824270219586961 0.946553428599615 0.8116018800906731
Ni 8.527563216802607 2.8676416884321467 4.821043144620991 -0.19480811565525805 0.8035913510813709 -0.17431179547411915
Ni 3.726264038615923 7.971039938098121 11.535780121550012 0.45023178811004394 -1.739008303448192 -1.0251921614494408
Ni 1.761512222243795 2.551047447329026 2.65952382270273 0.7402879630370347 -0.7978104827335357 0.8674390416649512
Ni 1.4469847297960954 6.58369300959313 12.44661394238332 -0.09374164992953533 1.5682117202161832 -0.41988428616643814
Ni 7.66733960189481 3.0375805621080474 0.13298969016914713 -1.445350784323188 1.3356968340387707 0.82170477285263
Ni 6.425139872879299 5.206353985613262 2.321975356943659 1.9069028825420582 0.6926757604757103 -2.038784533876424
Ni 7.964932788918139 7.100687392843037 9.586916202724465 -0.6568163275749398 1.9590011458991938 -1.2188965025175589
Ni 1.203127007813705 7.040509630191507 2.0083127336405027 -0.10624878125761059 0.9050612228930994 0.5468412465056777
Ni 4.309561953054597 5.045892364780687 2.6689666297351318 -2.9081233636672494 -0.8075981582479188 0.36122225354885534
Ni 7.751573574121147 2.0244454757350008 11.517262239791016 1.1252749231056556 1.6808710329858279 -1.5771717576229483
Ni 8.5247703132142 7.143223314494467 11.858407965371951 -0.6369843804506773 -1.1823099616427768 0.13265992426128764
Ni 1.085890224851033 0.4063618863059531 1.460343187659443 -0.42482671777337805 -0.25638886458153265 0.3386168574445136
Ni 0.6909866910004484 4.929400356108256 6.135551147540343 -0.7047116085943218 0.5208947018432448 1.1423339354704714
Ni 5.097896229596815 1.4540600855533914 5.447877771163607 -0.13899383689911546 1.1734532825830952 0.5431334586367872
Ni 3.4888206852082395 7.737171501283598 3.69208913934032 -0.5217303103706628 -0.7700739360502158 0.26900346802174957
Ni 0.7252397915765273 7.880670887655918 4.286754171383809 2.2323649477721683 -1.1003532201633113 -3.718116504509906
Ni 0.9099261271670767 7.137172023386253 10.063759803987441 1.0470979603835966 0.05392683192544261 -0.2681462622277769
Ni 5.553726024260621 2.2021486213866712 12.723405583480199 0.7582990549024747 -0.16367179926176975 2.6293769573261234
Ni 5.5775029434765875 6.25439105716276 4.237374704972921 0.5416404190310284 1.4195268812815487 0.43348182234521476
Ni 3.913239624181103 1.1179899967604505 11.653832432360497 -1.2156209170900805 0.6450489026263665 -2.0288541621365894
Ni 0.438982069250677 9.166421293293313 12.702885189848313 0.14662718507465716 0.23426889275404167 -0.29079151043111856
P 1.921936604361858 4.106620268642361 1.3056144669260032 -0.16313495292169322 0.08417123263228084 2.66723568004511
Ni 8.798540032628424 3.3111454685924535 8.255130367239367 0.6445645067907801 1.1117329227551627 -0.8010644708944591
P 0.8310815278985014 1.6773434177678543 7.538039337365947 0.6044272724502622 0.13952656947413392 -0.009077279710919851
Ni 2.446723188623419 8.531622236684424 5.892659770199542 -0.12758662350343836 -0.5530124083133959 0.17610025483310962
P 2.52058617885814 5.383237879545667 10.72659309584889 -1.4420240339428003 -1.2511095969149937 1.6107945878837162
P 2.237758142138853 6.051831069574273 4.569962973958982 -0.5183351686461848 0.8889905425834819 0.047008764649370656
P 4.279491691086089 7.861381233538658 7.847492123993513 -0.1288822023864103 0.4293606010879896 -1.6648345483482556
Ni 3.3799160646176465 6.596437959634891 9.362024158043079 -0.09415354065597333 2.1766355154203483 -0.271539604180042
Ni 8.876145513671608 7.737069094818689 5.989334265976503 -1.5391726526713556 -1.7351400787420377 1.852501424973042
Ni 6.820158846744872 2.644200091681007 7.139503166914709 -0.9155916901107779 1.2824112352417527 -2.109003418093671
Ni 4.963203799206602 0.39563713652647253 3.300569673671021 -0.19346522847411843 -2.53870211924737 1.5331873816221981
Ni 3.402352390111178 5.662304806099233 7.2597767670458415 -3.323567611784463 -0.6965349863208005 -0.7280659670495461
Ni 4.933329040489282 6.01176221275927 12.414198572368413 -3.1370034813055523 -0.42186737803473795 -0.35399411123153224
Ni 7.1478688441298495 4.869036399884166 5.915933035801732 0.5824795645345775 -0.31300481330336416 0.009773020226363815
Ni 8.156349091188885 6.836227352056836 2.9020195387018406 -2.024769707654571 1.7943795811296452 -0.3343642528157467
Ni 1.9750948693278598 4.515789954022526 13.030214421377407 -0.2942280469164933 -2.330309322929142 -2.99997988075893
Ni 8.380768204195967 7.9455314186573425 0.45275853168442287 0.04350152282706057 -0.768928766702179 1.6179283707150198
Ni 4.6199373288342 4.066076618217329 0.31871405492672095 0.022960979671547553 0.19630115526101677 0.7738621994480542
Ni 7.202553896390846 0.8700257755352402 4.791952260844149 0.3768910704343638 0.4354219767907211 -0.7752572800233681
Ni 0.1879447231103569 5.45478275980201 3.79669361937263 1.5093817945621681 -1.6689763384307708 0.5592403915009788
Ni 5.013615708977337 6.95011265071342 1.4834386383998384 -0.2977041783905518 -0.40204262999932694 -0.04187375741565046
Ni 1.2573279567860454 6.985210139141061 7.596452915917467 -0.5087907194908593 -0.6136169093693303 0.038889477976345926
Ni 7.161535452355784 0.3612332191566198 6.9656262991791555 -0.3959128629525053 0.29914399616087195 -1.1990146759919673
Ni 2.525464450459223 1.7471194590848742 9.296498915987614 0.9404331746344902 3.0321703494485455 0.08363772872631402
Ni 0.26008262989530556 1.7941985039067778 9.924818436271401 0.8940425031850926 -0.06248166347398916 -0.2951531298339239
Ni 7.186299197506321 7.415605891793114 7.399807367161362 -0.29483379882129224 -1.3957326070754283 0.13017443883527258
Ni 8.834242650166884 3.37787724499811 2.2844368707797518 -0.6267490758759142 -0.04293922256568734 0.2528260869309388
Ni 8.97447433934077 9.147671600536476 8.190054782661637 -0.201526151105382 -0.34494768475854787 0.23693666939419195
Ni 7.4042480838669285 1.6135721191659085 8.968120483677145 0.8147172857912034 -0.9632144341950637 2.516658509183769
Ni 5.993021829681062 8.898423574628463 8.72062360831906 2.4052078720102448 -1.3409490835766456 -0.04103634911601965
Ni 4.725844232906571 9.125551804116299 13.215359724124317 1.2596448880795144 -1.5249567661822896 0.12789772698595392
Ni 4.434348885384596 4.352516810244288 5.130794771932515 1.2353294512626014 -0.4302368330453558 0.23103290231524728
P 1.9954830655232265 2.254347989453987 11.61253283603087 -1.2192749689029 -0.8418287972960147 -0.6527907513553144
Ni 2.788220820056497 1.6026332467779834 5.043985742597668 -0.38595652307074174 0.09836140808973381 -0.30367607970327054
P 8.586232811516396 5.6653304516533405 7.747589031668353 0.23208036974315513 -0.048189415221033136 -0.05845891546784126
Ni 0.5450472378597238 3.844571434620818 11.224052049465758 -0.1091646693528249 0.2288415510908833 -1.2828694058250938
P 2.3822257350884875 8.540494360416929 13.044466608389044 0.5320625455346063 -0.08295690060920552 1.1926607087494814
P 5.040772041535275 3.905717403849662 7.146560834282612 -0.23921569523635577 -0.039103136649048784 0.4416684719210651
P 6.739490481433067 8.181429365412773 4.179084014179291 -0.2622126703521613 -0.7658002483755264 0.04753506946648588
Ni 3.606895339247434 0.8853755736571217 7.225794578117839 0.3559232099334451 -0.3229734944803019 -0.3096826909086666
Ni 6.117343278079659 0.31478909441714714 11.049902408146403 0.00031675990947042227 -1.1274889000378387 -0.010457190777581992
Ni 1.9978942722878839 0.017284349340784353 10.84063945194574 -1.6915110291981774 -0.06387031629139968 0.13564831746565026
Ni 6.643526314135423 5.831098589303888 13.64568565418666 2.8281067766332906 -0.12405469909077989 1.0850968082248733
Ni 2.696604272678139 3.309823494227274 7.106147519358372 0.34392515703130444 -1.1570604430473685 -0.11993553471608376
Ni 5.16505625121936 1.763178654718211 8.849099966289343 -0.6296384816085673 2.498017239933498 -0.24621938024769854
Ni 7.997730786724658 5.042810861154812 9.94772303859992 2.9707299827548774 -1.714336511733125 0.6126694578543964
Ni 4.861151102086232 8.3540680458908 5.652617154518914 1.0577389850372105 0.013838962765621327 0.2969549589293531
Ni 6.5013023537351415 1.6406167355803103 2.2273583001434902 1.4571320932288325 2.0786379184279364 -0.49198238968426883
Ni 5.604817540571202 6.762522626358791 10.351451216822007 0.8164098430022779 0.5351398989083493 -0.8977909144839312
Ni 0.44746411744866715 2.340974549087725 13.399578713847738 -0.0009230260349016361 -0.0368567638170333 -0.3637442486397606
Ni 2.6453544918308816 1.7338997154330837 0.008520217880365099 0.19886197400965752 0.4195413010047226 0.11067982044577068
Ni 1.8920618456445377 9.128623998063546 8.432973158070459 0.02059787875600969 -1.6618698092929765 -0.7195124210525802
Ni 5.3666573419091606 6.211566535473863 6.806410313347009 2.004384202019683 0.08142863689013718 -0.7285472775613389
Ni 4.359973862825333 1.1655531448710112 1.3158718708383574 0.5922145324341542 1.2916746628215496 -0.2599482997980168
Ni 6.639299720038302 4.350692113233197 11.631854143055465 -0.8953825621527548 0.5517952480768432 0.649034883857308
Ni 4.057595500987201 9.250059446087455 9.497218380111343 -2.359033687447028 -1.228794221247245 1.4143160265045704
Ni 0.2727586883152194 0.38587500751712944 5.436636334220271 0.4053071596832116 3.708474610544768 0.9329319811614385
Ni 6.110277232000991 4.71319237965109 8.96953741676433 -0.6869072334230493 -0.6505055548655636 -1.1008921233859168
Ni 3.872705283434698 4.2983996483796005 9.262638683849639 -0.18064699366352757 -1.3157193624755792 -0.07744419832109244
Ni 2.865593559133982 6.043349952344146 0.7013195033096893 1.6623655179824723 0.9264839115432497 1.3308222795552889
Ni 3.7245696771056234 3.521339392655918 11.664038633040398 0.9250124692040456 1.2116858437017326 -0.40930805331248865
Ni 3.1833422003869765 8.454230878249684 1.4505875754251396 -0.34983895141257815 0.21326143726443914 -0.22460308752950348
Ni 7.978133913212672 9.222260745704183 2.7168062753009448 1.589386040300953 0.03995982822238924 -0.09203135210664795
Ni 6.2766318794051035 8.77714639114123 1.2352230558516715 0.11023244849570692 0.21587084986282823 0.130615125917117
P 5.824665601371925 2.636445129383865 10.73599494029533 -0.7805524669840364 -0.19516678454625744 -2.11728314160396
Ni 2.2620377840007326 3.959583204391393 4.826642916315746 -0.7552872646593444 -0.9226966765866754 -1.5226384024617583
P 6.446412488544328 7.600235438344033 12.248333614060135 -0.5471189256470964 0.9676359603015271 0.33701788838850993
Ni 9.032771546909439 5.5247356850129625 1.1639267440146959 -0.009964310301563485 -1.1892411415449713 -1.3446910671175807
P 2.1498840855689596 0.2756512054649456 3.470549509932885 -0.4978169940881749 -0.46243475793413913 -0.27967688857519574
P 8.581959669026135 4.737174111796872 12.65744371749708 -0.34063465920549074 0.7559863476088979 0.9230031520835006
P 6.796298140421253 3.654914661610768 3.4902525137812295 0.9671806179316632 -2.647347425761615 1.7302539542943298
Ni 4.464670508676061 2.612789235990063 3.0800792450449643 -0.24562905496186727 1.7967496240237186 1.069244671683965
