# total energy = -340873.9528247592 ev
CRYSTAL
PRIMVEC
9.17790437379105 0.00000000000000 0.00000000000000

0.00000000000000 9.17790437379105 0.00000000000000

0.00000000000000 0.00000000000000 13.43279076783300

PRIMCOORD
 96 1
Ni 1.2227263279622254 4.56387821845089 0.12435326374798862 1.873768047661302 -0.5906381890859699 -0.09423298774365707
Ni 1.8296519751141411 0.3908529947119363 1.4087367541891047 0.4151501139155625 -0.8017792375732966 0.6550255542231042
Ni 6.0298924390880835 8.837853967235105 3.243576080930675 0.8255092342003848 2.4465758934340704 -0.955702956309367
Ni 7.7004087279531195 0.6728808223114952 5.31000881442423 -1.509547373605755 1.1988393267563675 0.9992548727583888
Ni 3.294821828536679 2.184267849460581 5.448541940635733 -0.6620706339953436 0.480777779217701 2.0448176274443814
Ni 4.828881033189725 5.361529899165448 8.998975752019554 0.7355501912417333 -0.08031226389750684 -0.67827089790429
Ni 6.330239364083871 5.08480690037101 4.623418956150437 -0.14922374215723977 -0.2996564170209162 0.9613020476636991
Ni 1.1131237923380939 2.062981841398875 10.117081310924116 -0.25498632780705116 0.47867873059682725 1.077494827507899
Ni 8.442901202579835 6.016437631080633 1.2059270915523768 0.3434376758719247 0.40640579206402905 1.0003946427897867
Ni 8.761530513353822 6.675163371270783 7.3790480727978105 -1.1240284522930641 -0.20282481531214747 0.7365909738014217
Ni 2.434072054335611 5.190628139338204 8.833887276907124 0.0036003157567486383 -0.6327870545398779 -0.09575353815324154
Ni 6.604539396088428 3.966414990845824 2.5110719197790687 -0.7051273559755018 -0.19494181301964492 -0.40304201779811877
Ni 8.96301305099882 1.0687945135686623 0.7719746572749641 0.7122194869355928 0.2157260967548478 -0.9007222291981132
Ni 4.809891948764476 0.6084767130136206 9.038629806233052 0.8766947559352644 -0.31510463325518634 2.118951530445319
Ni 5.096930912224926 1.8300190912944263 12.839021093497172 -0.7149440849556075 -0.8984069508013753 0.6868642960002558
Ni 5.79774652248477 2.511221519622535 5.710145259545127 0.4718923038026131 0.150267867151038 0.012161832173514539
Ni 8.566408263532265 4.905837762481999 12.27331249769632 -1.3443948760334008 -0.9162730324485187 -0.7180175816746086
Ni 8.368771267875756 6.391235717438249 10.457186000454335 0.01708446628611251 -0.2828462874421129 -1.5340093633028613
Ni 6.349347761267714 7.280455351420431 8.13151325846197 -0.123918944843864 -0.47055250194526704 0.36785595681528904
Ni 0.5350892707841686 1.166098657153241 7.057480914791091 0.9416721892479137 -1.0533156591585342 -1.1078778106751308
Ni 2.0585213798084103 1.5052130507871406 3.3436501160955054 -0.8543991777618575 0.9209272433910785 0.8981619246701048
Ni 6.682037621746622 0.35045369465245707 7.444023047756028 -0.3461748722974296 1.408022223076059 0.5011779401406079
Ni 0.5486945964255362 6.607962754469587 4.9414397718556025 -0.18019525083808968 -0.7640858367875808 0.30755484593238647
Ni 3.369107787617379 6.57359150209039 11.038624606789956 -0.031991979525564256 -0.035236711715107054 -0.2289279401571025
P 6.919396588109986 5.068130647881556 0.14252826804345564 -2.237488385041663 0.40245734893924234 -0.3654820572664738
P 2.9304773754126825 6.182355788760507 13.278045237805223 -0.42291690234517487 0.2102622454267992 0.2855166351854244
P 8.799343479923193 8.353398277826315 12.954664525867896 1.6802364847256224 -0.16593179894054003 1.6822393740882642
P 7.1739274138061875 7.908903184641563 6.096659858796544 0.1349687749001224 -0.8595776366390034 -0.2894859042458176
P 3.109804451577471 8.987729147836518 10.650981125284162 -1.7080067128603553 0.17305941112425682 0.10545919547677965
P 0.308998935574658 4.962731592521691 9.00326091563393 -1.4755123955082332 1.6961079045402403 0.9720618572833645
P 8.29431092860942 5.159258061732839 3.527034743842895 0.6412536972499924 -0.12225621242946041 0.1738497682360361
P 0.6540918162045012 2.8325766680351405 12.092749157794422 -0.1723330744811935 0.09945309849201582 0.44137665171225915
Ni 0.8812596374031487 6.725513355396892 12.304920283028421 0.9677981969110042 1.1624810998423076 0.7027370013664542
Ni 3.179886930393906 2.9182156949911584 8.82170360867391 1.352688997721393 -0.8767515773151288 -0.0074358874527549355
Ni 4.100990604633853 4.100366507127368 6.801156726554196 0.8690354396177936 -0.4959760842246942 -0.3864401475753796
Ni 4.495456940350246 8.343642165335238 6.619343356058427 0.06611257535835711 1.3193289342037084 0.518767371087597
Ni 5.0298128965642945 6.618856927119548 12.645401266643432 -0.2994604989600262 0.348862960652554 2.2244140683562077
Ni 5.11287293235381 9.12139614907834 11.401457459041627 -0.4400522764738809 -1.928355395988879 0.4144181208455443
Ni 6.918185104715045 3.0684763475818704 12.465119688409903 1.0220083644048206 0.8411160874997062 0.7093498786972816
Ni 5.97511870498954 6.658946014006687 2.067320236859395 -0.5121544937567696 -0.8948464871436267 -0.16805861547555573
Ni 3.988084023387155 5.272430802210243 1.9825990003540894 -0.3549369347607758 -0.9462379542417251 -0.29390768746259704
Ni 7.178709102054402 8.941252239412417 10.124643904237992 -0.5247636978803479 -1.4628738808086161 -2.321928297954298
Ni 8.36978083737154 3.4573533394534217 1.0582647037276334 1.0577245868595073 -0.1094130379182051 -0.3227030144277345
Ni 2.8529240823274447 2.3956166344507412 0.27980218575658006 -0.9509613278593235 -0.5963295830437924 1.4708687260886346
Ni 2.17934849264476 3.934218901834816 4.252660065566409 0.2377347398154551 -0.4721226746458644 -0.13720666309170565
Ni 7.373317389223559 8.281884045906768 1.2819797972506992 0.7796047583587863 0.9774539748332135 -0.7306535252710642
Ni 7.134581737184126 7.340332000424938 12.111997976917223 -0.3903451390567406 -0.08394266156124253 0.6197127378544232
Ni 0.3608559316208368 8.712327767291105 10.908272664656106 -0.4605344555876327 0.7836064233190118 1.3227335890098832
Ni 5.51623265753761 7.316056443003583 4.740055437788832 -0.8338840885276412 -1.1343151789310528 0.7152860416760585
Ni 7.7413054704368855 7.242247734957254 3.8474601705289286 -0.26195658847729725 0.5495936124398341 -0.26773694260450015
Ni 4.375648574914187 0.8720395145352872 1.6578076444940149 -0.3095451368895379 -0.6107601566468256 0.03999042435000855
Ni 1.4495307041423904 4.774685507075129 11.092556727045196 0.8526402860892219 -1.0338218120999807 -1.0816384173626274
Ni 7.8420605061161455 3.225244134468136 10.264653755284689 1.2859765839955077 0.7194453152600706 1.5996722527183094
Ni 1.5438520287621524 0.6597527477044982 12.483213927145705 -0.061261417913642875 0.5926475062065149 -0.3016222824980354
Ni 0.518073435827952 8.926356500397347 4.8784674156608405 0.9674852936562757 -0.16763695455710484 0.24612527787199545
Ni 8.961039801529786 3.0018447608601155 3.8361227050912725 0.03359686211883891 0.42153056352060947 0.1667787203218676
P 4.150624712208405 4.728970364725122 4.511631161463159 -0.19864574423379336 0.5679839420215638 -0.3419297238678305
P 0.44704104389502913 7.917750684586436 2.9343660535523535 0.027448583129255955 0.7329670038955892 0.1498742312570451
P 3.776707704683473 4.1940729121451525 10.468738228857458 -0.3129659896456287 -0.28085085427863893 1.260973377082951
P 0.95050050237628 3.042493699922189 5.828111619546605 -0.8209678946866055 -0.41131737043303357 0.05368694800049463
P 4.994762479251571 3.242425171705481 1.0550423414551806 -0.5425981549586075 -0.5066623602939467 0.9411813656544242
P 4.082643973524102 7.862811748206763 2.8995487550141097 -0.03548379472890663 -1.13650498749352 -0.3539701999721323
P 5.667291787820441 7.035111608135865 10.24944780309728 0.6504592750086604 0.3853821386245105 0.2230066895766611
P 6.1357962791958425 1.7588260860326288 10.816298130218817 0.37799330235960704 0.7197412492339347 -1.3799185228613076
Ni 8.388586363706647 1.4387650221555284 8.99915013220519 -0.21542784878813867 -1.2288284169192902 -0.17189804382630394
Ni 1.507112877020116 7.853055635715685 7.272969852504416 1.3920078499256736 0.8743493956315394 -0.41215143629855466
Ni 2.410787710601025 0.6871350258015168 8.74822622298029 -0.5789831213455449 -0.9988856623444281 -0.5311184364537821
Ni 7.502762554392103 0.6348301480153902 12.152000791501994 -0.3138031408349435 1.629378778643807 1.8166659033316712
Ni 3.0512402429174825 7.064260632850506 5.290249703810833 0.763342273753337 1.1702460884997072 2.5596717795205013
Ni 3.7365360166557706 7.70440111641372 8.72348259242907 -0.1917482457830117 -0.7323378549520226 1.3614058087691006
Ni 0.9651576158741646 3.2571465305349157 8.07266453476226 -0.06930074327835162 -0.2776441744158831 -0.5065361191287275
Ni 8.54954845295267 4.72277527918281 5.990460490163656 -0.6345318051451266 -0.47545276746036175 -0.8448850676238353
Ni 2.3495894433474906 6.33721457150929 3.4832836730574126 0.5490017444921061 -0.12529319948357132 -2.04025186245057
Ni 1.7931055593667544 5.03893573364438 6.277787639825632 0.18634404404830487 0.7162221803370827 1.5553214945170761
Ni 6.880463917190746 1.5411445469325495 1.2959164452447742 -2.586046412859288 0.511493720244319 0.7711139472789559
Ni 1.3927286531477707 7.013148882650306 9.767304945624286 0.04965957200865641 0.1991226838702119 -0.7549095696049516
Ni 6.167946478684314 2.7029663005854685 8.757709751707505 -1.7329559266065253 -0.22307096715569322 -0.4116269312536524
Ni 1.1610966991968559 4.765168020101237 2.4068072534162837 -1.7080234250309034 0.3919842173220604 -0.04721368157132514
Ni 7.258153043468107 4.893566904155969 8.801178143034168 0.39984150858295014 0.7157796934830253 -1.1675168624940022
Ni 1.5392997881266166 6.9951418340073195 1.412229864644518 0.37045765610419423 0.19567689141345657 -1.6815181796515235
Ni 4.3061718377952225 2.7578685253471122 3.3910273769517545 1.3518122515433946 0.5395269722324515 -1.131969818627328
Ni 3.8479190657542848 4.281492452575554 12.900879252084769 0.5933579020099781 0.6439996354262457 -1.4321810797104497
Ni 8.390596324793707 0.7440903478014055 3.2020818568634954 0.66105144870221 -0.5431352584090001 -2.3878719518349585
Ni 3.1535830560764753 2.062128296279712 11.421149570952123 0.624471335585331 0.5008614373414535 -1.4402749124621776
Ni 3.217901810862433 8.41446805441675 13.379261004290742 1.1950243238856515 -0.5502546430626007 -0.8312204256525492
Ni 6.008691479676616 5.080988892096044 11.197561132511256 0.6338944286714439 -0.8622220162403861 -0.22959102766239817
Ni 7.912565168539908 2.6879420709072988 7.16589674736245 -0.5304466071977381 0.47855506053476937 -1.1454238872497047
Ni 3.8878796619783236 0.40532104337697406 4.171486089153108 0.8477338499265399 -1.413804376975475 0.4788980456964849
P 4.558940505826055 1.4688777268434179 7.257669367900582 -0.17252410744607705 1.3615654742754162 -1.6478220729506587
P 3.554143520385601 6.10032367827579 7.287477366158835 0.009693058918047823 1.7324555899313392 -1.4411588577290275
P 6.401120320592427 4.448511958796282 6.852671386762259 0.3541185526245385 -0.38045230542306085 0.007517905643599956
P 9.3461354967444 8.658288265553132 8.925888427267484 -0.4403222423058159 -0.14176651454824615 -3.231839906961163
P 2.3695697414595105 0.22249167885226542 5.796692899047351 0.464174366333065 -0.8439232179311982 0.42235588763538223
P 5.487762797756497 8.685225415281554 0.11238435848024203 0.23825950197067353 0.4131091722261337 0.8677416605070346
P 1.236970435757289 2.7577216788749985 1.7889929403571103 -0.4811953263710938 -1.0817548883358337 -0.34213155546599144
P 6.594893418451436 2.0036834003783164 3.625752284721572 0.0774961346049504 -0.7699561795254288 0.049404261464740716
