# total energy = -340870.2359519037 ev
CRYSTAL
PRIMVEC
9.22024258106893 0.00000000000000 0.00000000000000

0.00000000000000 9.22024258106893 0.00000000000000

0.00000000000000 0.00000000000000 13.49475701379965

PRIMCOORD
 96 1
Ni 6.022634667138914 7.986887444759252 4.915491933813582 -1.69570809799866 1.506548181768115 -2.2928210961756963
Ni 1.0003686383749018 6.689894388518797 10.662774204300383 1.138616120299252 0.7983807534147089 0.05033165837501654
Ni 8.423696427892528 8.577582273348874 4.738832089658784 -1.2215948752853283 0.7222308484250077 0.5208723332457417
Ni 4.068865305113773 0.2010234126409482 10.90279186604882 2.374678078852504 -1.2205970301484335 -1.6870956737393006
Ni 7.078241777660547 5.0260463281431065 8.819687397973961 1.4879583345810696 -0.8061218308127086 -0.8239454892576906
Ni 8.477505762469114 7.677262485126566 11.951968779529036 1.41733784405003 0.5767318634175229 2.1136239475848178
Ni 0.5179434280510499 6.091380794384121 8.279802559112099 0.4027021179601967 -1.6789807579416505 1.1340999775964533
Ni 1.9550694162018538 9.121945383938606 9.910103689583154 0.1423054177708517 -0.47259755739975384 1.0992116503597003
Ni 5.160892373068155 5.6904293338979235 5.948434766521182 -0.11583102562940696 -0.37056744220918114 0.12130850380421043
Ni 1.766902709546785 4.323353215265995 6.278557247006715 0.5070287424944301 -0.4924891541173583 0.8225162130103317
Ni 6.456456291738465 4.7716229596876 4.151959051539006 1.0558412537938655 -0.042997586607448526 1.2780383029850375
Ni 7.186874673476405 4.23054225538801 6.490343448587219 0.1607433127610651 -0.22571123299201773 -0.004727230272340246
Ni 7.020891870006954 0.570110637458327 3.1646960656944603 -0.9424098387448866 -2.5151819246382425 -0.9260838478913535
Ni 4.594631186806834 5.714134577077568 8.517351039949018 -1.3725433134431586 -1.4639558010188851 -1.4774929162733714
Ni 7.117132760053289 0.9724220836967602 12.01844396107407 -0.2726863161899756 0.9837506064752025 -0.3304808586009405
Ni 0.4074637176848684 2.360658658609234 5.984709044124199 -1.9917719125723115 1.1221782864582028 0.48868006478391324
Ni 3.8046961404541113 9.064484833376355 1.3767758136241437 0.8047905135957947 0.8059295122962442 -0.11982009218414202
Ni 2.0515131515807257 2.848833612086266 4.15166215973411 0.3105573802041361 0.5254072450016177 -0.5263456976554871
Ni 1.454382593804255 3.029347517559264 12.293587980248212 1.1226498267779828 0.23661682416092797 -1.808209287923886
Ni 5.097281920833084 5.963708098036966 2.924245974578025 -0.08343204047341116 1.7630352624904089 0.518981543980932
Ni 2.5388859439699987 6.57801596738235 13.141274936822647 0.6829251088468496 2.8791565441212543 -0.17128946370802758
Ni 0.32568016770297603 6.965856243192758 6.2528364588410446 -0.38606322385193514 1.9024911266276077 -0.8258193092416357
Ni 1.0760576081383013 5.861096020500497 1.960720502761482 -0.07970676910302402 -1.1838035154691677 -2.738945804095902
Ni 3.0801694936021264 5.3271794445364105 10.927878301538192 -0.1695233729465403 -0.194000275041982 -0.9220220191171541
P 5.738024225104973 8.093584089673621 2.172493796002643 -0.3551109984447949 0.09947829530299643 1.0695002393381967
P 2.5072328518518656 4.60859985402471 -0.05188875808715849 0.7066908438078797 -2.482557453735002 0.9374260123770499
P 3.693472356527215 1.852964451996727 2.794143744361622 0.34506261306985736 0.45280109149911696 0.455618506343254
P 9.03388284889046 9.143732816701538 2.4414851474312482 -0.08148108739462742 -0.30754327596816067 0.29538067246369776
P 5.82838260050774 4.3618108462665 1.595552802983258 -0.28790930378731705 -0.27333860506199376 -0.49975971963684246
P 0.4614141219699921 4.255464570562875 3.2736664223817193 -0.3097315418687311 0.23810909243573833 1.6528290392469471
P 3.665424379182805 3.892767895744645 7.1831238788729515 -0.04887564265478034 1.300792823072734 -1.410601553767461
P 8.191281778017267 5.901360819009056 10.904883939046664 -1.8475389387614438 -1.120310894232161 -0.4291826807492286
Ni 0.5888692205967893 7.071953572351906 3.7032577997736396 0.7632389154062533 0.4786805303690401 0.7263487272481233
Ni 6.603408514919006 2.7157762941844976 3.490473045942511 0.4845403315839268 1.099388799367513 -0.36931171542520913
Ni 5.3438957439859225 2.9455631749791675 7.9260642717980865 -0.18139929844851985 0.2043692769811319 -0.13317157379038355
Ni 5.026802388018926 6.702701305195782 0.6419022107643032 -0.19104273507555486 1.1788788244740405 -0.33802190417299205
Ni 4.307724904418271 3.748010090252457 4.8253603763735615 0.1883091381944757 -0.4064543859137774 0.08086273708433815
Ni 7.567661463859965 6.57534209708982 3.307848626986891 -0.4065400036490482 0.9218219872912059 -0.8648586825322847
Ni 0.25076938639712676 0.8934719142007116 11.555762977799962 0.2837849972062984 -0.5655827887792388 -0.6528766262009015
Ni 8.882910600028733 8.603961386821048 9.769394492523551 -1.2020058974098073 -0.5187743130661324 -1.6120539142121142
Ni 7.110724691593604 5.4946282665455595 13.198560302779525 -0.39797411635690816 0.09120242844744937 -1.350801550890693
Ni 5.878015165282545 6.088384215608008 10.410827392950305 0.27158022760999034 0.31223733900972034 2.181198452200682
Ni 4.593958109112507 4.993056300878709 12.648432696648792 0.6000008612477925 -1.1968089265899002 0.7230500018921934
Ni 6.301159749196749 8.252743913775925 9.439001858936049 1.2857099605976825 1.0005226837272188 0.7866914900022387
Ni 3.1028697303614745 2.634499857533947 0.6586646114257553 1.6820943638699677 -0.8172063707616444 -0.1434259045285401
Ni 2.239052881753408 4.095115335192515 8.852991835503792 -0.2366713315479472 0.24251467770260166 -0.035979246308086424
Ni 7.325602440446817 3.564222998731706 10.827895837130791 -0.17139924981301446 0.16455960118336174 0.708389057445909
Ni 9.163252069837014 5.012649315953288 5.246275505678337 -1.651143166904092 -0.6728798087957057 -1.8269348893578472
Ni 2.876079428342917 7.218223497595733 2.4354800035639195 0.8717536098799052 0.14892163753578871 0.3721792667809913
Ni 6.200198095047739 3.116488028368606 13.034301684636635 0.9331692939832251 0.21516816736884878 0.10289272030118408
Ni 2.7729233565055535 5.385838626609105 4.000466781006595 -1.4271939109085032 0.5901411948448934 2.028562084817468
Ni 3.241689699755767 1.4028690995822897 8.55417761007108 1.4889055289856876 0.08556785586949134 0.14444431849072542
Ni 6.752315429485811 9.239604897052352 0.4302736753286343 -0.8529488184685762 -1.4273805729980127 2.4180500180802356
Ni 2.9744778551080526 0.7200456090513984 12.691548394103732 -2.040843730398298 0.14789962402917753 1.2411494003784882
Ni 8.771474750526913 -0.01931917387565492 7.272081699456976 0.49370837123644 -0.1307004865420717 -0.014574812490381351
Ni 8.08884488508617 4.452279864577923 1.6536477062218045 0.07656925191530684 -0.2634542560687463 0.8344242773018276
P 5.06009668328213 1.1146535427746262 12.792071164715072 0.9750628488932174 -0.022399964961754972 1.0345131817400506
P 5.066126721803905 4.170066685564872 9.93153337694143 0.665012490232487 -1.9160148721456551 0.7310281350016636
P 2.470278120360612 6.65121547170098 9.069057151576583 -0.18413598065339257 -1.1736124338687788 0.2673245376574299
P 7.255952729447581 6.703650990161749 5.828830704287799 1.6434149450218987 -2.181644281488849 -0.19178681233043102
P 8.609438210799542 3.387406410456311 13.133218289023981 -1.0575590078159207 -0.7559770916375175 0.152175368586396
P 8.504954424058301 6.627537889248499 0.8303510568364459 0.7868773807607996 0.5115983641429834 0.6164461512880094
P 4.373151744403786 7.030019909971111 11.836453894794747 -0.38923005161569096 0.46813000854670345 0.16935985078548252
P 9.05285810772504 3.9066628010234177 7.92289343044084 0.2200175250413501 -0.43565723272997875 -0.27071016630021116
Ni 5.279501571147868 1.4651241761863185 4.885533522246371 0.25348326089896345 -0.6049648901212872 0.41907361733968473
Ni 0.6726157601830949 2.0128434550052967 9.497380745640147 -1.6686426092404358 0.815092666852751 -2.4881251776307667
Ni 1.9758241818173263 8.321490041021132 7.699298864433976 -1.3878696593875839 0.2734275652313743 -0.9604762093282943
Ni 1.2409800837331275 0.21979767019147012 5.316772556953033 1.6157480752342495 -0.49678032529354443 -0.5672609478126102
Ni 0.8547302997346559 1.378315594102946 0.10492820242434406 0.12323168896885228 -1.2129240869842077 2.2198205354482545
Ni 0.6100047822228877 5.175128427315284 12.621430294791184 -1.528472235534716 1.7492086410199617 2.050036709751476
Ni 5.743537930053019 1.789750470184342 9.991909368146777 0.2632161719160112 -0.35342923986699776 -1.0805732093229068
Ni 1.332140620223654 8.450508892756941 0.845309978086798 -0.6774077785730463 -0.7746265884179047 -0.12487822343333979
Ni 3.1411982779685466 1.980471183980897 6.166591233567581 1.0448019652605682 0.4159736382581223 -1.0697743189351898
Ni 5.707062651165943 7.623250305217442 7.259949704522796 1.9163658277271707 -0.808200567718608 -0.839893785056831
Ni 4.254607088020788 2.738790019185039 11.520217099345599 -1.069432876435371 0.9794656059466036 0.4762480096681475
Ni 0.47786487843872855 4.405634658336842 10.543926201942819 -0.22138740880568322 -1.4963511866304553 -2.3488811723940577
Ni 6.326413993097583 7.847375957185858 11.913076875112054 -1.9126418419083644 0.9057849884330013 0.4950042072297282
Ni 8.977888316867908 1.9080185192956987 3.7062811172526766 -0.5349794620710852 0.5111882731887584 0.48992422160365945
Ni 1.1568453719422855 3.155286808337468 1.6587483443108668 -0.8815572262338882 0.8437792361541662 -0.36255511342766594
Ni 1.6564718664652605 1.0512274953873164 2.610965188838482 0.9714635615777334 -1.3984857443405334 -0.5591079796881726
Ni 7.404850423771999 1.85666176919433 7.902029865965188 0.5480432372335787 0.13396218801247897 0.06625964245918266
Ni 3.4575632347868885 4.7035499101367195 2.0244028728871792 -0.17629617289399963 -1.2944774223776676 -2.2366759164426964
Ni 4.059838687815884 7.93817690422325 8.81524785126412 -0.3379992784651727 1.3599526212623418 0.9484100221923797
Ni 8.238895109709093 1.7770173154464624 1.3564663857160135 -1.1095541699362892 0.8725411387782069 -0.2704695110443149
Ni 3.652884849535074 9.143529971369002 3.903372096515127 0.17618150169300625 0.250855079247497 -0.5190437646774351
Ni 5.473670655597551 2.0338840481347984 1.4899699633493633 -0.3649853201357134 -0.20647809579401857 0.313592310375718
Ni 2.8688968595226356 6.442911755670438 6.520855074697713 0.4537991937463281 -0.9481953350784121 0.25780631375434954
Ni 3.9251493870114325 8.649647687853774 6.147199219777061 -0.356892772935566 0.8212903110230306 0.8075696190028286
P 1.4952006068560968 8.358684498814476 11.982142944768128 -0.03293531727544005 0.2295861425663917 0.7594491093465179
P 2.4261592605338524 7.528208046681552 4.711815857437596 0.37722994183102126 -0.023450003492824133 0.16540420857184415
P 7.824970768182927 1.2519060709629521 10.122228274059298 0.6683107013677845 0.4738108609815646 -2.1832422221035883
P 1.5589954639389283 1.2121576060281225 7.267007800070839 -1.4498206471690838 -1.497636223990466 1.3105028512716461
P 5.209990163784455 0.39627218747426857 7.985360572619793 0.31748264656905967 1.8571049851833243 5.373605607087519e-05
P 7.475210093435113 1.351807397237338 5.417361713309567 0.23128924130042747 0.08882647201610509 0.07468206219492299
P 2.4778848203307424 2.1687761942717865 10.423390895228243 0.7114916076306327 0.12896087814314564 1.3899949332607027
P 7.8156030019166804 7.026608420287538 8.16493493539345 -0.6828955411604949 1.9652504692430155 0.28876702380192204
