# total energy = -381168.0064580518 ev
CRYSTAL
PRIMVEC
9.24553536243597 0.00000000000000 0.00000000000000

0.00000000000000 9.24553536243597 0.00000000000000

0.00000000000000 0.00000000000000 13.53177555595882

PRIMCOORD
 96 1
Ni 8.571443479869789 2.791652453346237 3.720494079804232 2.799711770430365 -0.32561427453725855 -0.21214403583054436
Ni 3.3413642558493573 4.053446152295324 0.6665023311271626 0.07633759552047498 -0.26435002841013827 -0.37887236253045076
Ni 5.483628788778922 6.176775828580146 9.759901591462386 0.8200366411215878 -0.7279479534144431 0.5946959040951113
Ni 5.113012253885803 2.743363021580864 6.557065042683092 -0.02163274777842726 -0.6669030223869805 -0.3340922301012827
Ni 1.2128755707716814 3.5327930677777615 2.1108352596492246 0.4550811457825453 0.9683550978557387 -0.5233099961529568
Ni 0.9404466225812759 7.127429522321478 7.158891154975966 -0.6477413618568651 -2.0368652053665244 0.7890538195868282
Ni 0.8795324121301631 9.241828011341251 9.470551464252837 1.3700940805717177 -0.6474603402813365 -1.1334070652944868
Ni 5.694288314487141 2.2931794084237596 8.80504487729591 0.28424959554754275 0.3729799083054157 -0.11108631185556998
Ni 3.1449151181601653 3.1455992877850245 12.020344407890198 -0.2671497026424625 -1.1998934790524947 0.8978819315358407
Ni 0.0412692966821935 4.044718366810638 8.448455668819491 -1.1054977404787283 2.158461672724799 1.922363440071502
Ni 6.622031571331173 2.357140022812588 2.7551103989503996 0.6247179043784982 -0.21380728246558017 0.7739100219668542
Ni 5.10907365577513 1.1253573320025787 13.254793511130064 -0.8289452564651272 0.4871235189300707 0.4002904231949106
Ni 5.728043764491999 8.992309500048144 10.001132404759229 -0.4821206663988406 0.43308201580363476 -0.706901160046473
Ni 6.9473080002741865 6.500619199525145 2.6787635406909844 -0.20721034597435284 0.923507859634061 1.2698917626185033
Ni 8.970443808659077 8.925223894670095 12.554998006771594 1.892015423907264 -0.7787053864729685 1.330797082744308
Ni 3.161603309685438 6.443712928700739 0.2874510942237923 -0.48955012609369236 -0.1499102267013031 -1.0807439305728161
Ni 1.699153754407824 4.090520749534296 7.0234514567532385 2.77612704113189 0.9647691802766932 -0.7639035455734456
Ni 9.14667296027305 4.6473701054210785 11.10103585305642 -0.10584460384065641 -0.5136727301735089 -1.028009576293578
Ni 1.5619130258753329 3.132609310448178 4.538963428362198 0.6002134914792308 0.19264324679345535 0.720861735991623
Ni 0.20192434379515706 7.19349811879771 10.503377628153903 0.045725784171888995 -0.44306200983448213 0.1674466929231697
Ni 1.808269564037335 1.4198646188978878 2.923513204788115 -0.21781974605908294 -0.7537425458800437 0.9769585232540337
Ni 1.2819674573469513 5.505845810515891 3.683498069616765 -0.6727435403281575 0.25389489451508535 0.026589577563070337
Ni 7.916036715861451 1.0476948340456316 5.209056725466322 -0.17411330631006788 0.19871824934294166 0.3473321258303244
Ni 2.4927350460312296 1.8148061576153778 6.602072309356237 1.0487002718737102 -0.09156701087571972 -0.8740979417423655
P 2.587279891758342 6.03662275637427 6.099867766317638 0.12007488850742547 0.7890080539505573 -0.22428967005414277
Ni 4.64868297145797 3.9655950742492636 10.45187629736588 0.16415516665609148 0.0451367444376384 -0.3152897526827989
P 1.2216773205401354 0.6750183938495606 5.197906609688218 0.5604968896158992 0.8259972295803967 -1.088913353757486
Ni 9.26569073839207 2.5664034726646774 6.512829778221781 -1.5917067180143296 -1.1202342753579544 -1.9479664853515872
P 2.461679292383922 1.6660085097440553 0.8730161587301564 1.936816896492671 1.6874227180614165 0.9618424935482017
P 6.919451201899868 7.411091796109228 10.634149255517288 2.259276170340715 0.2444933986955273 0.43467198599857393
P 5.491182391258781 4.460249713022191 3.6295198598760448 -0.39172993521940924 -0.008223159240740678 -0.49164608939077253
Ni 9.212196070156487 7.34287823540371 1.7157208294184256 -2.887095853572989 -1.6947922710526102 0.27923954392746103
Ni 6.957968102672325 5.429043147357753 11.663957676640596 -0.3954572634723254 1.2106694866220762 0.7790833386376776
Ni 2.3257976575656776 5.502415716856126 11.683470379252281 -0.05047461171078404 1.2619077159717624 -0.40458442258457417
Ni 3.0351151389057955 8.943104760271135 0.14789713271644075 0.1949137879951869 0.24343436130339363 1.8469599263295222
Ni 8.223275105100416 7.902676917105762 8.45127093437043 0.27045048488092127 -1.712349820320399 1.7555446105403187
Ni 4.237219660853686 2.2245867807639272 4.125716653965546 0.6467237192256282 0.12203072668221562 0.9759449943878548
Ni 0.12981841265631996 9.365542521479574 6.956536893781404 1.4907598085856066 0.1368968451607707 0.16097419782494857
Ni 8.192256333594994 0.10476578519037472 10.52222742587231 -2.6380881119468755 -0.6581309326213053 -0.9607888554727065
Ni 3.3518024653961906 0.04076818865966177 4.405350647948553 0.32524814944709146 -0.6398300774295884 0.11829208557538981
Ni 8.474827634197158 0.24710727564225243 2.90079322592152 0.7095177717337136 1.0339583376778452 -0.9993548886713629
Ni 6.982126686858218 8.43570052808361 4.2069479286143245 -0.7577573234663918 -1.1392462976840831 -0.0795977543289855
Ni 5.075558589692518 7.721131582595926 5.574117618094877 -0.21730938208156766 1.6330523708406521 1.7026228228406224
Ni 3.339404202329492 4.283031289112814 2.973905071319609 0.22122440086525774 -0.28617560892566196 0.33746088946319946
Ni 6.4314441031306355 5.8542915513493945 5.229233257524828 -0.696646315087684 -0.9737035066518456 -0.5437937179286053
Ni 4.834758618348626 5.630457137594907 7.21254484642165 -0.3020837955154862 0.1448657222988602 -0.2062461822888706
Ni 0.9219222677114496 1.663392023205744 13.056431472151909 -0.3231496150468499 0.6889378906998329 -1.3819995737600521
Ni 9.087741917180479 4.688891805221632 5.827120771707028 -1.0524558822614005 1.6833138380993655 -1.1880931439834572
Ni 2.039472669562261 3.8157619264051816 10.147397700465028 -0.6426575195760545 -0.43048083073536186 -1.6625223552753112
Ni 4.6665823281299526 2.3263893718358255 1.8335154231946253 -2.4701462245548425 -0.6390350923321187 -1.4062715589335395
Ni 1.0028447414754944 1.994631822527595 8.373733251142342 2.6922717970781314 -0.5773687256705734 1.6081391525387403
Ni 7.201329087341701 0.34002398257291006 7.5812993304708955 -2.641955308211766 0.9541081010184213 -0.9906362778514424
Ni 3.3473091351572526 6.078255402600476 9.287534240496008 -0.6892417950934969 -0.08048452780931299 -0.20240212595243207
Ni 3.2829879448850523 1.6688561346691435 8.964558100778195 -1.1641584875447306 0.3017690924885448 0.5380028222784412
Ni 6.688516216903602 8.955429059054065 12.390735351717822 -1.3159654170481143 -2.1072062169839323 -0.4066343631350674
Ni 6.50500158333843 1.8417476479780617 10.964635543698247 3.182053065346023 1.303628235639 -1.0160146087152309
P 5.772634982068946 0.6742722791370457 5.2387182523645945 -1.5640815000978934 0.5199778464559303 0.4343495696621487
Ni 3.7824872442448183 4.463753770965725 5.254388510434502 0.12957331491616395 -0.33299925414742004 0.7960978709178032
P 8.36340968623535 6.23123203250472 4.3210211943634205 1.177993336545294 0.3628726446680847 -0.20052239243121595
Ni 2.365340812775423 0.5465747923177882 11.582523000211456 -0.748362255404737 1.1323382577103402 -1.4188059439551244
P 7.281016357566813 3.4607795919936355 7.321596861856412 -0.7337285646519622 -0.08799960523943554 0.10948631435830176
P 7.908446131239707 3.9252105753116506 13.118272085257221 0.5564054931553449 0.434232070247678 -0.09322717218696203
P 1.3062739701003816 5.899428255519134 9.074652088060544 -1.7376096233284526 -0.777554560697977 0.17508698307724688
Ni 6.205252077831028 3.970051422346317 1.0871214955084418 -0.7514766326640026 -0.3220496971144518 2.0257472410764916
Ni 7.784065942547467 7.551096939747568 6.127011733907138 0.9273380320134288 0.32231529207101267 0.3733336921004086
Ni 6.884826671560728 3.4593742706020336 5.007352425415377 -0.27647920757350447 -0.37992291528215216 1.0422568302412114
Ni 7.007570400474589 4.305636623339568 9.77624769817523 0.40172535586922425 -1.590537637406893 -1.870418928683411
Ni 1.3749220709730403 7.767414733164079 4.841804640931125 -0.07502787557011595 -0.5525912616155774 -0.4041594192320136
Ni 3.130649256928312 8.583850988471958 9.535612297362723 1.1258665339430676 -0.5946755923801371 0.6093974719713441
Ni 7.096419996351525 5.9800123426849385 0.4626308775617992 0.52309659459057 1.3614528599569522 -0.6734418519467628
Ni 8.722497038396051 2.31349184985369 1.1663769992270536 -0.5866082419909704 0.15215145732699603 1.7966807184589961
Ni 2.67571343853908 8.622534308882894 7.2651020173604675 -0.2671463602083528 0.11735260448025597 -0.9508746816827882
Ni 0.2489194005945812 1.8875685217726608 10.702593030056036 1.0790038079532578 1.9007101234677846 1.0798201332069661
Ni 4.507087595718606 1.5148532503276113 10.900900520374913 -3.1537377633410975 -0.5328313053798307 0.6502132204361254
Ni 4.826049323934884 5.8666066045968535 1.846749482667908 0.3195289875751271 -1.2507447573764072 0.0596465080180392
Ni 5.700214702724093 7.650634374629054 8.029917674472749 0.6763970779203448 -0.2212755658181673 -1.0912175764106304
Ni 5.730586286746542 3.517454724431264 12.600085709603338 -1.2991313762099108 -0.3454094548863148 -1.995754037148511
Ni 7.527890645715194 5.604061133825016 7.513830035370798 -0.7092141244503657 0.140706448714848 0.5912866213032462
Ni 8.124449576450202 4.5337147378752745 2.180117604255198 1.5728605318421043 -0.01638641177782339 0.21419680459451498
Ni 2.0500588076766304 7.516389199589189 2.2049085830673123 3.048660119573453 -1.003592066681162 2.0688206752271987
Ni 1.0852501991290981 -0.04223453058537271 1.1886328522130016 -2.0904022580527157 1.9271210093611457 -0.2234008396912862
Ni 5.176566064713906 7.897046386003883 0.66707832798701 1.2759099437881254 -0.5693643673088582 -2.8988835902365366
Ni 1.033022169253051 4.055618853131024 13.065226750045532 -0.6756224045378493 0.05140740793769856 1.0546940275632997
Ni 9.28261006830412 6.43451362090703 12.797487137446051 0.6832423829769524 -0.19688196746515124 0.8580997665418962
Ni 6.088804558572962 -0.04049359625617113 2.2450970766529386 0.0642544391036958 1.629873201781722 0.37988794827915867
Ni 8.091970010340349 2.019049281706678 8.830674426175248 -1.6141341937799103 0.23418378923940314 0.4656959451839141
Ni 3.919163995113574 6.686029167861886 3.915297512179575 -1.5547424820851548 -1.8304886681473764 1.7852958736608222
Ni 4.65857569441201 0.40490452774110974 7.756900710226383 0.7848135562532355 0.1955182543484052 -1.3251820505503757
P 4.497684886144533 5.758211946734084 11.86573039365403 0.6374844600155473 -0.3822055406687418 0.19808344397242017
Ni 4.133854574287178 8.198617261999086 11.98072266562895 2.2429447801705438 -1.2365108731652124 -2.4046879949510327
P 4.21190538473391 7.97158389297161 2.429833045453838 -0.7763772525604242 2.0248684380159645 0.28710531982878296
Ni 7.539022270422357 1.727565284910407 12.900423231166702 0.7799433726451277 0.7245070460536942 0.42242659297231766
P 7.576078376590385 8.336107619989296 0.854586108322135 -0.742507853506489 0.06023863307608336 -0.5729875658837422
P 2.012216830993561 7.752039407675697 12.021317962775301 -1.5412313349725972 -0.8512562612575018 0.002165640192751109
P 1.1865073036082037 5.64185688283073 1.2314738899252762 0.7423448455660635 -1.02167566365575 -0.049538730160075976
Ni 3.708902027430611 3.801560783921625 8.263909233495749 0.02968929953431661 0.4217210822648608 -0.36001049262894125
