# total energy = -340893.52075498266 ev
CRYSTAL
PRIMVEC
9.05935165539660 0.00000000000000 0.00000000000000

0.00000000000000 9.05935165539660 0.00000000000000

0.00000000000000 0.00000000000000 13.25927688097471

PRIMCOORD
 96 1
Ni 6.519987988260026 1.931018858871999 11.52866237071331 -0.36615028697809204 1.0821608655250008 0.5279927463406068
Ni 4.555567300962016 0.4183508800384897 5.8858062157333 0.3689201364137453 -0.6331025288977677 0.34442549370649067
Ni 2.767079216873426 1.487753856686948 4.734157917857411 -0.10083995153721342 0.8013490920144135 0.8787662937523123
Ni 3.1775403078215403 4.238562478536474 4.71319548476955 0.4754116298097813 0.04020742545682108 0.6193833795394623
Ni 5.101483813289494 4.573178679985657 2.69968126657287 -0.9904724985800685 -0.241137594849417 0.23586297671403897
Ni 7.064753962966104 5.889946339300073 2.570005711354557 0.8833549415642593 1.540887064259301 -0.24117127630082985
Ni 5.032614624329762 4.47376135827504 11.754281892334797 0.2777395623431668 -0.9566594066853654 -1.2798509307137442
Ni 5.515369339047761 7.922946316314627 12.447119341109707 0.33663170869368475 0.05696407608986964 0.14679276411824396
Ni 1.813138579110878 6.480597928591923 0.24340846393158233 -0.1165236808210574 -0.615669678133301 0.9136764753659362
Ni 3.0946925397293605 1.788098531980557 0.39586194624821863 -1.5429902266452329 -0.7838038840417985 0.08974692694784543
Ni 0.5387451297991273 9.240357189574866 4.854737884320715 0.25456209578543904 -0.48472930766628136 0.19173924692194722
Ni 8.85494520510842 2.348591540629557 1.48712060802761 -0.6445017718736449 0.4328043366622159 -0.4946331970435546
Ni 6.821727803661475 0.9156648783104471 4.809086906934898 -0.11903204906520791 -0.6724252377567904 0.06836923260301773
Ni 0.809741130460541 7.079375756044374 2.501535133854208 -0.10785649206436264 0.5166750073349423 -0.5811215078447862
Ni 7.560372956600549 3.807101811159965 3.6943128868573245 0.7942392204425096 -0.43864922547876717 1.0079176906397092
Ni 7.7944665954744625 3.9122537022748842 12.71717135736049 -0.8607256342005176 -0.6880621729630989 -0.1877308970935025
Ni 7.872032761729821 9.17105315175035 6.828102869206195 -0.3050673036238423 -0.6487219806025796 0.3408560311876775
Ni 7.239880283905408 0.5105343096964428 0.6585604870085249 -0.8806439703909995 -0.2861992630747458 -0.47921557693690364
Ni 1.805130112517823 6.720860985734921 8.913773914967381 0.01836101900569096 -0.35994544371896076 0.981064575002607
Ni 0.04306543851063945 4.815969296155196 1.4155734748089326 0.3631798914958584 0.4203841086209922 0.29878404171829187
Ni 6.354310570778364 2.1401449254263882 7.004504746815525 0.4778783461827189 -0.40045523090754903 0.9990661537863503
Ni 3.6548684710811243 4.043052617060549 0.4877355460900151 -0.4541678899396565 1.9514706418501035 -0.327918497190403
Ni 6.021533417653153 5.655988590696403 4.799181412169235 -0.39369580069652843 -0.09691541967182664 -0.3560828754397609
Ni 5.3317997026506205 2.819922413295699 9.164572997729975 -0.19620216778930724 -0.23214953241819372 0.12307639433791062
P 0.17205429489665175 5.486705551377596 12.302420663548334 0.5952288937804459 0.6371895544829478 0.05585258819324575
P 3.873081067039172 6.078978764561027 12.629420668317902 -0.27877391714495214 0.514662604890604 0.4211754941740359
P 2.306130360853937 8.482062303558488 1.607966013485458 0.12128202144164918 0.28927301690406304 -0.790347084476955
P 6.296792749059692 7.888692908861753 5.848162799005403 0.6562339727089086 -0.15454746836299837 -0.15009868856302538
P 4.7994540986448575 1.0191045520202902 12.645053485006787 0.5191316964055511 -0.5679386906059251 -1.1210341455514308
P 3.907171406167753 6.424239703846001 8.141116333321332 -0.7720446866233414 -2.072807170678772 0.29378016074579727
P 4.9537439114800605 1.1630123482088397 3.661482703501474 -1.6076223608033215 -0.766733301712757 1.2138972495307545
P -0.11709664586937969 5.588813500439047 3.7040190758932963 0.9089772701180538 -0.7659915384507259 0.1592585006854225
Ni 1.567376495698667 1.2924523602920626 2.6626883112718738 0.7154274523499291 -1.5526825142323322 -0.9880834295226014
Ni 1.8845443864485014 6.393845580068061 4.734741340084326 -0.17774010442937774 0.7532098133050255 -0.17813759697811257
Ni 5.772519027106432 5.587409300979857 9.112119353415736 0.14305540856299878 -0.01343195713518977 0.6648199146057067
Ni 8.776808299718038 2.5226579174609576 10.386030845235686 0.10510438324052222 -0.4760459209596704 0.008584913455533602
Ni 2.2399155618396396 5.226847117265393 6.804965285859293 0.22733025665267947 0.13728045375243453 0.7729134623815399
Ni 0.4923911467485796 9.124759866353845 9.245123314319894 0.5608969532677952 0.4898902830419305 0.6267092237769142
Ni 1.661494096869762 1.1442504315637982 11.65791394828846 -0.2939783927995324 -0.4324893765249584 -1.0612413417635145
Ni 4.107790741804859 7.1063726230662105 1.6498383354233541 0.03836265893859845 -0.724588550023907 -0.8160478316771687
Ni 5.66000188334428 7.842689522708436 8.074130583507184 0.0010994037117658484 0.7105590685140344 -0.10537794861688304
Ni 5.325403800597797 3.075368943300643 5.048920550823924 -1.119572987624872 -0.8195093078632081 -1.5940829315559901
Ni 0.5983810278633378 7.676586315713341 6.976036641134511 0.6093316517304151 -0.7993580297263136 -0.49443907875487747
Ni 5.130736458797385 4.583153025821577 6.95136168586358 -0.35513696658672383 0.14985366243175482 0.12676001383708493
Ni 8.144085082758599 7.3412906629129395 9.271841153320162 -0.21087493931013362 -0.9151692578613788 -0.356680914035076
Ni 4.576077672417532 0.3255496026184932 10.403997350832231 0.3847437337095632 -0.944651840701528 -0.1136018791885721
Ni 8.29913588110717 7.286390993734304 4.83862854575084 -0.9113905075452368 -0.37485038585525116 0.3438853049323045
Ni 7.211714760559472 6.05452757526843 6.873383319121815 -0.09850281876360456 0.6704593722796711 0.5739460731422696
Ni 2.5265172011358907 5.106113141829145 2.524499683590333 -0.8468673881611867 0.4790967919708523 -0.28594652363399137
Ni 2.2105089073588067 5.5580932400125205 11.230289010273376 -1.0541060162703135 -1.728099369845172 0.15053294788696658
Ni 0.9883933509451135 3.2415536844578825 3.8795711863460323 0.33049654233022435 1.2026358176843222 -0.09124382320834608
Ni 3.6600323013504013 2.679420933214603 2.7910647555066523 0.20290220551730218 0.20020306141858424 -0.661655400834796
Ni 0.933167545117893 3.2725004286681494 7.944879005932032 0.5036492844992358 0.11589967408381331 1.2013314970506022
Ni 3.710130514313743 2.598674934635532 7.1791690408359985 -0.27200985894824126 -0.8253498258043849 -1.6146116476369614
Ni 4.292193838526164 6.813039885717199 6.061027659861776 -0.6182654638849352 0.6464267568104997 -0.9725040870271058
Ni 0.7425750995545349 7.654508676474344 11.437425643271391 0.561500391179749 -0.8096252159802767 -0.8255668269111975
P 0.021128219217559658 5.761258253378867 7.88515885590027 1.6691735420432414 -0.1502205588528703 0.6605850505887526
P 8.392972642386425 1.622638538931286 8.261788705168403 0.13005899630333084 1.1434803903700888 -0.4286242371425973
P 1.941554884491595 3.4982866423544707 10.33109765645706 -0.4817707392585896 -0.18466742767683034 0.2032855569986499
P 3.93718503718901 6.270846766794411 3.6560072315457703 0.7561287867240333 -0.45383621763185067 1.6501772034463968
P 6.75198891697218 3.9280079142718556 10.32175021773453 0.9581714724545175 0.18878016429362326 1.1725719084194064
P 6.266733821281687 7.565482430761729 10.26478773425359 -0.9015231278328538 1.1175875817637266 0.08887840829996306
P 2.3987894064577446 8.43323239978409 5.689077871500852 0.14516474159651774 -0.11346972448608202 0.8257388337126875
P 6.87824909673169 3.911637666383111 1.6602076689781173 1.0726992058914688 0.0458319707324501 -1.51869073066792
Ni 5.55091823374363 2.7142179017484533 0.537942471269552 -0.05224455912701324 -0.16032910804178194 -0.4830262089322456
Ni 1.4367315898859463 0.9328051710639086 7.10451907978008 -0.24077275531083048 0.9773092217252329 -0.6568137564717785
Ni 6.873021851002965 0.6863210573491337 9.59311293023137 -0.13142605185418654 -0.3574694713746424 -2.143599925121618
Ni 2.6293680170080096 1.7311605087482602 9.251461236524081 -0.13849375733424538 -0.5503857693238264 -0.25474310144799356
Ni 6.593250962624319 1.836901257700904 2.588741355880685 0.6240283345106413 0.4584652317634298 -0.628906231428233
Ni 3.8786978648759303 6.903008303970172 10.496918211690044 1.399580520066609 1.0267551350611865 -0.7786277391574977
Ni 7.971341371224241 6.882162736514721 0.17452387407455536 1.0926036581248797 0.9871233796021774 0.37553687039931455
Ni 7.814107269200417 4.027244048955479 8.3238289550808 -1.901290678561603 -0.9279414699253825 -0.8271791657036399
Ni 3.122133314967328 8.320742434075987 12.722315257056799 0.03677294585397538 0.6667047903332453 -0.25565738573214675
Ni -0.024462966449350976 4.938134649104683 10.119015523557291 0.46344288748367923 0.7083959994244444 0.4861359582058208
Ni 8.596237308617617 2.298420852855419 5.833326299300147 0.3400067958135048 0.21388904354610905 0.3182544917380777
Ni 3.8821404183887815 2.4395021314228904 11.180447176953228 -0.512617035215485 1.105355044253277 0.8943929445459758
Ni 1.2091788026864507 3.2692934182903874 12.655249784950774 -0.21278115519391094 0.8200700654626843 -0.2911252396214535
Ni 3.1402429583151976 8.564511460191286 7.928822211599984 0.1902850309739239 -0.6249148508806527 -0.1385418369633614
Ni 5.822173331853642 7.798534244230438 3.650305275806326 -1.0299546158350907 0.562490008786528 -0.08273604284765106
Ni 3.239868645106855 8.477722874262025 3.618231548288168 0.4613093860804442 -0.38847209040374386 -0.2019562966642651
Ni 3.3921563412937936 4.197043471301214 8.73592707081779 -0.5085397798223177 1.6010344231731588 1.7333966136883696
Ni 6.943621376070473 5.9883308949568335 11.47109019288654 0.7974340732307235 -0.7993919682880427 -0.6288306409952912
Ni 0.628015072063046 8.895404268235778 0.2469860017795432 0.0277152065270813 -0.21128245916119742 1.15762351463969
Ni 4.696458333151146 0.37920361098655636 1.4968929303284342 0.36783333110746974 -0.30681308267035545 0.7047789714971475
Ni 5.813032446341887 5.615565764974444 0.3874494325849711 0.014176034390065907 0.09383549519492226 0.8530071825103375
Ni 7.801324524446117 -0.14842569470659986 11.559954276209995 0.33518906270988724 -0.9876316866971636 0.17025947978161646
Ni 0.05539521569745821 4.697762879745489 5.77486539910598 0.193094475398261 0.5761747053624722 0.08796669511897108
Ni 7.982873925492296 8.64772160233745 2.820062833241618 0.35116435509222105 0.0011233149711658073 -0.28510165913519286
P 8.63217575542152 1.574017000237931 3.593873670314472 -1.2649480454599826 0.4203815375178308 -0.2338811703973198
P 1.8556722336972953 3.343987770167919 1.5535365246418684 -0.48200496675658283 -0.8783194360228809 -0.04223525452012726
P 4.751077162437942 0.9048706611773872 8.171307527629041 0.9408152405642572 1.1261442130844863 0.06360600688641949
P 8.62609693066593 1.557836998727528 12.652903412951225 0.5768447348463034 1.3546587198532543 -1.208759671193873
P 6.356131500399636 7.6671827090124465 1.4087979859345596 -0.23735035989284287 0.18451264726652095 0.3025617635931693
P 1.7658125276605172 2.9714763020233192 6.033752670753506 0.5672835735204295 0.7215739315672992 -0.8809319339450635
P 7.03166921183733 3.9920665876649455 5.913358420992869 -0.1833980740461035 0.12282494044873686 0.8064522175689336
P 2.4748336016863677 8.70943390373099 10.109946206921197 -0.9711383170278308 -0.6864040685343856 1.2022164707587166
