# total energy = -340888.12830429425 ev
CRYSTAL
PRIMVEC
9.06809193758396 0.00000000000000 0.00000000000000
0.00000000000000 9.06809193758396 0.00000000000000
0.00000000000000 0.00000000000000 13.27206916743734
PRIMCOORD
 96 1
Ni 6.520474863544532 2.1558300011116645 11.220817762858982 0.182709275509195 0.045173254102528655 0.2970562603939078
Ni 4.427677168323079 0.612497910910694 5.970957570400963 0.35745044521124886 -1.2609607786774608 -1.2038511781486623
Ni 2.6887254820416295 1.5827175331837002 4.712884977040928 0.6195715842908684 1.4536415635770707 0.01444162934662674
Ni 3.420139627990803 4.5519735022084395 4.6879069182616755 0.6214410333994395 0.5593740888653657 0.4491928053225684
Ni 3.905309741937574 3.01806950702028 2.767505436098859 -1.2020498632738652 -1.341947957154805 0.1841660625603796
Ni 5.388332674206731 4.633794894245179 2.5797850547588426 0.7947380144557991 0.5846218076885609 -0.14300552916166984
Ni 5.261986951581451 4.434641462802102 11.308346611855482 0.07074596036531042 0.3181894428280972 -0.47716820748957184
Ni 5.778541731142669 8.320826599197673 12.336255620348076 -0.2857511197937337 -0.614953883013199 -0.5563119050002743
Ni 2.058357082680663 6.70850174638636 0.12439064203976286 1.0076590376616839 -1.5027419206481474 -0.7972805783719946
Ni 2.74168313797586 1.4242526295106388 0.3216316129286402 -0.8587440849941145 2.207142425759954 0.998265512261926
Ni 7.529844158414259 -0.17929521727691802 6.9712605871194855 0.725796197178763 1.3590149399394207 -0.2826477982780616
Ni 8.696290938916308 2.567621116459155 1.1448502131436626 0.9261028740547469 -0.809234151189445 1.962784524201026
Ni 6.930978309860745 0.8855689856041633 4.651766945323271 -0.6615880379319703 -0.36607803897925983 1.4402173197513648
Ni 0.8521331176314415 7.268012076659984 1.840384640388218 -1.466390378602307 1.008462764509902 2.1333432803906165
Ni 7.779942129418726 3.9718423312508357 3.532838779312072 0.6535091175785777 -0.09842028635212727 -0.46780039312142657
Ni 7.644274408454338 3.84643969016959 12.635646831402692 1.590469760283435 0.8981079315037177 -2.1643016764453438
Ni 8.40126964128544 7.215870548985013 9.571351819777904 0.11050987052680966 -0.06604546956584753 -0.9069113887279605
Ni 6.8979432515442385 0.9671663957741954 0.2812441458053737 0.05104488239195725 0.34642221242154536 -0.8037587298971707
Ni 2.032104957007787 6.674795649278905 9.157873132552098 0.4064944951230935 -0.11975710015669053 0.47745591393331965
Ni 0.44744957261293183 4.994895376600829 1.1281939421813347 0.29927383687051684 -0.9209511546504784 -0.11131334026471151
Ni 6.689894022075221 2.27298974677438 6.87450676836581 -0.8999930643415726 -0.5580553700539421 0.7401321541854607
Ni 3.5505387876370764 4.117439612702892 0.6795156431336274 0.44385288116689364 0.20373292894871367 -1.9422617216573261
Ni 6.321321432101454 5.88465654103006 4.533433788585573 -0.7221735128245111 0.7761090865007021 -0.07673303118668076
Ni 5.067204340371302 2.918719493592981 9.231905033758787 0.9924725597292328 -0.7288606950366996 -0.18467359832441746
P 0.11628739523448402 5.513617430094972 12.18448931606519 0.5067639188688174 0.3269394211065853 -0.23787126539331938
P 4.054271285436136 5.9024753413572455 12.704395662344435 -1.3279614130677257 -0.18780134532012172 -1.523431844897331
P 2.539156376394506 8.570643459357282 1.5040436758001745 0.2881954675691682 -0.08216345817363269 -1.7145774240993374
P 6.1682520430312815 8.00763284566061 5.549861686088727 2.024535480156578 -0.4208273668059978 -0.17864101897709234
P 4.602555318099045 1.2563659784890042 12.374346139826114 0.709540654551849 0.20185602364097496 0.07778589793122734
P 4.100645506745667 6.207480608026398 8.10241254083605 0.7171899435669906 1.608200859014611 -0.9694653002007821
P 4.669686401469098 1.245837923944545 3.6691430803186833 0.6898310919380635 -0.42210674773905366 0.13617642205497837
P 0.30241632646894245 5.754719854064034 3.3626243491331915 0.3877100154267388 -0.03945203534803528 0.7585998739723452
Ni 0.7851453101113477 0.26858962374095263 4.8937435333389185 -1.9345970060232167 -0.2078970876287323 -0.878907704426183
Ni 1.7927617428420193 6.794403779719401 4.661137004548757 -0.1400698435721136 -0.9810992848952846 -0.7995814585910295
Ni 6.0214487053738734 5.673596705093551 9.186753191219792 -0.24004384756460595 0.5250215795274248 -1.2167586302389497
Ni 8.817522257783555 2.552314177552138 9.854617243238714 -0.9746643279032182 0.19666959434402903 -0.13013175852279524
Ni 2.311928132832871 5.638222079100497 6.814544011539595 -0.30700874362092934 -0.41074324309711835 -0.018431210121994064
Ni 1.0096050652557365 9.060964249429164 9.154662121256496 -0.9385485560172674 -0.0652509986890102 0.6827060508575081
Ni 1.3148642384944358 1.3877989005970075 11.355462603071764 1.5350745713425822 -2.460073670810189 -0.28240354347773944
Ni 4.249779343987851 7.030110689085576 1.3067682461625727 0.10221009241186267 0.7182757204320017 0.11174605692675595
Ni 5.8103798013455945 7.7602190298199325 7.843792377186552 -1.2344992420518224 -0.13660682472417765 1.1665151607023652
Ni 5.358770695037966 2.9731099080268018 4.889563143033151 -0.34530583942891496 0.2978854411634224 -0.1336513416402795
Ni 0.5666342231677903 8.017761904167207 6.993756709181409 0.5357633914249612 -2.056257236739891 -0.09872110542199773
Ni 5.509808831551758 4.764230326258531 6.964425059543591 -1.116797995982896 -0.3715133510622183 -0.2230455132343965
Ni 0.9596217434219214 7.557846425798661 11.490360443044915 -0.9812535510849617 -0.682567725507431 -1.165786767176773
Ni 4.802543013984922 0.5295892546707835 10.232393946358584 -0.37717543444400203 -0.8280052611493611 0.3827254177279538
Ni 8.180271176769493 7.566252546869043 4.3002831742892385 0.4051348957714055 -0.15257774623113723 0.32570966246454225
Ni 7.504516978101879 6.303756538343817 6.91389855901278 0.5667364427677078 0.7322450381279002 -0.5944441930956214
Ni 2.674261875669181 5.303990352658053 2.4690826972452307 -1.2601632224768298 0.8815019475159206 0.7075963863412846
Ni 2.2857122795270723 5.229949383359595 11.239225989151189 0.4062826362226035 0.3299962056550382 0.8846356080488958
Ni 1.2844861310664097 3.2343253595407484 3.6857993512810108 -1.4049646671966576 0.5414797250834481 0.7075704181993556
Ni 1.225616079298426 0.9277474008519179 2.390578413177796 0.4983199018665224 0.9068705081876962 0.3260539331778385
Ni 1.3615377068323615 3.290538460420251 8.000256859815249 -0.4772587103208491 -0.6467568864564088 -1.1464309883579804
Ni 3.802912849675702 2.893283496179365 7.018761065426794 -0.37478970782064486 -0.2714904961096615 -0.7394009324463912
Ni 4.342482446148063 7.013198697935346 5.85369898253796 -1.2883093458937425 -0.6338175526869213 -0.2648822467645245
Ni 0.5252637748967035 9.001577316430316 0.015919941910639602 0.534497380228344 0.9313597515783121 0.6626969547254329
P 0.3984501387361142 5.94299157538364 7.948363797854764 -1.226333161301262 0.7523302389135496 -2.526813338229584
P 8.963808714210098 1.346974351450448 7.7049535445303485 -0.8642986962637567 0.8189608915589057 0.28880430479776065
P 1.8151599295128327 3.016908791273777 10.17089052074072 1.1678734745024726 1.719105650986994 -0.682999670838527
P 4.381466172665402 6.394074732368635 3.373706464084771 -0.33212765017574414 -0.29091749448602156 1.8095727439303158
P 6.963913619167788 3.926701370421966 9.873981246403432 0.615133860234489 -0.7050270829522116 0.6050844464182868
P 6.457224923451851 8.11068264052989 10.04787188098569 0.2180832841331147 -1.1573440357260585 0.7242687047906431
P 2.5255451706483965 8.40498755891096 5.7365999930901 0.7440790546483508 -0.06272386139178229 0.5168837809116389
P 7.0512665471839595 3.946088950625285 1.345920639186825 -0.4438531382772098 0.4505848005740885 1.725095550021842
Ni 5.5387632485719624 3.0387810286219556 -0.06369699701692057 -1.2170897883261231 -0.6103019860634844 1.4746778154220797
Ni 1.8989490974635677 0.8560487196575375 7.00410884274554 0.43717546914671807 2.046749554359772 -0.025002435581608553
Ni 7.116837918769648 1.0319035029170844 9.295995585958506 -1.5022672950045741 -0.23699863298037896 -3.663540983256871
Ni 2.943357498930875 1.4171704498386124 8.996750371181378 0.4940145896229492 1.6365349300726137 1.0369197342990142
Ni 6.472169138688086 2.001228104532435 2.602613068979533 -0.0009353673300758085 0.7206509055323975 -1.0413834264973225
Ni 4.365179879847272 6.7365130818625305 10.647729778778794 -0.18037060007368935 0.8308717840638787 -0.11586882084587785
Ni 8.04697929584873 7.216414634491187 13.167684470851258 -0.11717108459706918 -0.03374187233713544 0.2175418098073479
Ni 7.903685309706142 4.135349093947773 7.863979763083947 0.5661003518456057 -0.1427101094084381 0.29595711379245804
Ni 3.1727983568842832 8.58658516468817 12.478000776416424 0.9374229270532565 -0.8752773067624474 -0.4976437017351042
Ni 0.5953719127947029 4.921634263194553 9.678006181125584 -1.2475745871785415 -1.3333010801130842 2.0014765414545854
Ni 8.662784339827782 2.514935503278011 5.615637996548407 1.1688569214616646 -0.15926878509806763 0.0008543775804953027
Ni 3.4191965464467686 3.0817547155179006 11.568771325767123 0.46787624066468453 -1.3076296434889092 0.07852971807578733
Ni 1.2068451293354368 3.316509475248271 12.633669080587753 -0.23672018250801166 1.5625115845076123 0.6282737400505567
Ni 3.4542175168608096 8.28626810146388 8.288487063519892 0.5117498021191831 0.701952557791946 -0.9483418879586054
Ni 5.9854302448651815 8.198915173447709 3.286429708039463 -1.2589473477918574 -0.309103421366429 0.3722034351507074
Ni 3.2159534056156196 8.592234585860606 3.575893172224766 1.0130557831972231 -0.8246623128190572 -0.3015016977597711
Ni 3.4459927576258185 4.470605514760177 8.836888981375804 -0.961621635786647 -1.0337822171112971 1.484206066627489
Ni 6.9981365975061065 6.0810895449422695 11.248197959147992 1.0528281779991544 0.2170137052180198 0.6918512076918859
Ni 8.069268665418308 9.053501209902816 2.0405935977132725 0.20651357701764433 -0.9954925775024792 0.7863446481857812
Ni 4.744198911539573 0.5400529257636789 1.4694171673781096 -0.5255316863946239 -0.21787322500483766 0.02188780121202682
Ni 5.978420609927311 5.4813622276706475 0.19801629273517474 0.3061520520475889 1.2004195267592939 0.49544900807663056
Ni 8.204356028509444 9.303318070062426 11.028664898262004 0.47064660432097005 -1.7503779787377145 1.3867944240455343
Ni 9.238209171156985 4.9734221352905115 5.4964279553365945 -0.005117523732223444 0.2527443258504099 0.17973373782063884
Ni 7.669393022656019 6.13816411453988 2.116497153061198 -1.6574331136778615 0.2232110922779833 0.2502081896921175
P 8.533019946605378 1.6007176953462772 3.4645805321350625 0.3788291679973411 0.8158675973455627 0.2936888865835716
P 1.9374068746582718 3.2488524425555836 1.7437641225835556 -0.3141764650139621 -0.9547187380192268 -2.3699845300315765
P 5.040598559119412 1.0903110820048207 7.862386499360035 0.20237975735492886 0.7318470313585332 2.507457816521107
P 8.59730364915979 1.826077912003383 12.385401957311561 -0.7484866967977432 0.03596150569627355 0.04625851674690743
P 6.312198931781277 7.944691220688092 1.2190970281252893 1.1224235696997895 -0.5250506329931475 -1.6212070414662918
P 1.8920845519940106 3.4792091777777174 5.821832801250548 0.5492357148797832 -0.16727005813598936 0.5155074693894025
P 7.090467907903768 4.199043370537162 5.620946457470308 0.6335678985699604 -0.5031623175604883 1.1593461537577519
P 2.6424056692827165 8.36169648880308 10.432417007802362 0.6345315480348104 0.9661393211513425 -0.9935783911989017
