# total energy = -340858.6896660742 ev
CRYSTAL
PRIMVEC
9.46659685564904 0.00000000000000 0.00000000000000
0.00000000000000 9.46659685564904 0.00000000000000
0.00000000000000 0.00000000000000 13.85532139651617
PRIMCOORD
 96 1
Ni 8.501846277461736 8.60945308105905 12.180711503351713 2.645834074440882 0.3427360218192097 0.0890110772230854
Ni 4.912235910992618 1.5981603052786166 11.205906704591573 1.475562274909562 0.7934799736789818 0.015586541584347349
Ni 7.071604462744316 6.687875969402441 2.478024606697553 0.18229301390738284 -0.7887871961890027 0.3585549911293373
Ni 7.355810625988669 8.969032286464198 2.0090219578067874 -0.207114700936753 0.17907887784545934 -0.2414813513420809
Ni 1.2083069239339737 5.1457579160193205 7.966283041188804 -1.0402868509990342 0.314853950696961 0.897236584642358
Ni 0.6036782388174675 1.0353995369624835 13.523708217107293 -0.3969495317471357 0.970662920053309 -1.2333461022839856
Ni 4.808018148979526 8.621380992780049 7.015392758769611 1.964589952840881 -0.5720768811440147 0.6836612156819257
Ni 2.9447458058067624 1.0054093589211102 0.3195269818334193 -0.46598468006892657 1.0598236354803812 -0.17779846847113895
Ni 6.296138735333608 4.990127067850073 10.158167458955816 -0.6396516428701952 -0.11741816761086875 0.73268469676848
Ni 2.116210337834205 3.29081617785805 6.735875400823205 1.0441455626234921 1.0358786946290097 1.2957557748694586
Ni 7.9365673944489465 6.303863478162447 11.498156634970316 -1.9827403984976626 1.3798910120574814 -0.49717576095975025
Ni 7.990640594250816 4.271328387710722 4.433286709050062 -1.4703038547241 1.0035732976280844 0.4077944448814396
Ni 8.173478441059869 8.36804540106124 4.337075794444607 0.5013304065580722 0.008341172875843699 -0.2332263104221403
Ni 4.292647163262861 9.241613469078878 9.512509597498049 0.04614975908318504 -1.4945958945022453 0.4904289291542199
Ni 0.7347167623289245 3.419344159950134 0.9335143443526089 2.2974848201999527 -0.23881357470193068 -0.270945679349785
Ni 0.09403738402518447 5.53064133414688 12.92801221254629 0.7212972808671448 -0.22099891511801298 -0.3393902452754284
Ni 1.5214335398034495 8.204159680653333 9.503600583434054 0.6463403677442804 -0.24027601818007005 0.5489279538313773
Ni 6.462495237455153 4.224724332629384 2.4626726269848973 0.769886759740074 -0.4358492941361268 0.45879587562997115
Ni 8.240293679890682 2.2111319019822004 3.6084384804547507 1.2797961662164088 -1.233624809866669 0.35934663379269727
Ni 8.971664000320102 2.7154553694620343 6.806357052518734 0.8028344183106884 1.4511522214963137 -0.34740591649105335
Ni 0.7291106438200542 3.703758588319773 4.688446513934456 0.9841789522618729 -0.21689569158291677 -0.1426401754024511
Ni 6.484533474349192 1.7972238986668725 2.222988814228671 -0.7662455634430609 -0.21620920703885343 -0.7839064710579338
Ni 1.6871841797423393 1.3666830851183716 5.7829479068148375 -1.3257320095165748 -1.86777377775108 0.5766233628641166
Ni 3.1650145755879087 3.621209865933165 12.568646952224391 -0.11219831397282612 -0.7820048831598467 1.2699205589739095
P 7.085548759541963 2.2543185156895063 9.459830827375944 -0.18643274710736923 -1.8489101080773576 1.795292836972534
P 0.49655896494525864 9.065724104177137 7.711705431995554 -0.8338059269915382 0.49016127731513004 0.521115045384167
P 0.6616734495923616 3.04506333001902 8.561701674469308 0.35489322600703394 0.49384078304924633 0.5400432497472376
P 7.945200930551766 0.591147304892794 14.053452336447764 0.4187699700563368 -0.8315883505149292 -0.12930617729770633
P 4.695640180693812 0.8033372811321131 3.07776568798743 -0.811709352202815 -0.5960794147061992 0.5469883136065031
P 4.251912398075983 7.046442248970968 9.256587731587034 -0.2848784873807932 -0.5795783317273825 -0.8922920961528892
P 7.787137167055298 4.241783139709736 12.093921745686526 0.15180332995895793 -0.4710530957307693 -0.24371795398208349
P 8.399701700104911 5.870264953910864 8.802104948567436 -1.2987040588645054 0.40591239736737833 -0.8096774093744508
Ni 5.414221129111271 3.3416991346043825 0.4870724884884215 -1.084057054106449 -0.5887993361050182 0.17189393006124587
Ni 1.5008720919796292 8.60435058548951 12.405361414041174 0.3556653282863681 -1.0116655877179157 -0.3165598776444742
Ni 3.113080826618536 6.497142981025679 7.303846583910162 0.8589112066995982 0.48746007633388305 0.2533588195059572
Ni 3.6066786401460726 7.2382260295707725 4.978341155078133 -1.3894724850983295 -1.7406391541833959 1.5543290486968198
Ni 1.9012901951343015 8.225715121120569 1.1623948770643853 0.5136922705575346 0.5579640958917166 0.12133755726993296
Ni 4.037740116507792 3.6902686881591173 2.721143847361359 0.5407101939072751 -0.705089817869347 1.6494189851241334
Ni 5.953485804656354 2.98121113592525 4.625487966560101 -0.5771514674534447 0.3723456171555265 0.41151303138360734
Ni 9.047851169788844 4.858721240390382 2.469420417044206 0.0540247909558876 1.6613273065259453 1.0299623291445748
Ni 7.12559246317675 4.877086437802082 0.28218031157110196 0.9890815317698128 0.9326154783622842 -0.5445894743570234
Ni 0.24344489158698246 0.31995487199991873 1.8207417646101125 -2.364950310041779 -1.774147056132854 0.5131839634625485
Ni 8.509078757267167 5.0105749165146465 6.46587670576209 0.013080744443358118 0.8764885534617293 1.2006820363920612
Ni 6.6578857913610685 6.471611569984774 5.564948280239663 1.0191570109989543 -1.8952215895493878 0.7336213496501365
Ni 8.869462623383656 0.6699434683855888 6.133723177378298 -0.3147091975889806 -2.7516573381252996 -1.411341517257279
Ni 2.0727586594219884 3.226102523473319 10.394899586890922 0.9795815626991774 0.5425166509883947 -0.013595736406563683
Ni 0.9680920351082652 3.446428092834089 12.47208861352357 -1.30570363011079 -0.7152886127792196 -0.011143418211329196
Ni 1.0771093615995702 5.984261710215856 1.1225149455508459 -0.6983010770822877 -0.18114964433155897 0.6806329703785633
Ni 1.890204810511054 1.2238510755576903 9.14764329788958 -2.278125184726419 -1.5925821786407475 -0.4143489581705057
Ni 5.066124905386735 4.93690586174256 12.559433113749748 1.345962734741153 -0.0371832939185166 -0.021477967368117853
Ni 3.552151043707213 4.789965349255757 8.980215177032468 0.38391712404320977 0.020852160858660863 0.725716492980763
Ni 2.3714865818568276 5.830959644811186 11.129604989303923 0.21230832932255045 0.2937945589235004 0.7763759670088435
Ni 7.117034659846762 1.4519013877472988 7.439725378265229 -1.4016214617560376 -0.24981301113622784 0.14251521978881262
Ni 4.052422807840548 7.8243219585156885 2.896385697055388 0.30639733528917557 -0.8608084237223111 -3.7855979351913325
Ni 8.145315316163062 7.085984222985745 0.1551007187594248 -0.7082916126360963 0.8232893437309304 0.8275820575690134
Ni 8.742922626578405 7.361926047394832 7.171833000948497 -0.5314346821426202 0.20277802123461205 -0.6409353946786251
P 2.1418932144207723 1.007321611435112 11.446545696945137 0.03886350983441694 0.7684101751945476 0.07101206954250351
P -0.053290312262721566 7.5496013250685134 2.635725799544088 0.12771620710276713 -0.8080193049457375 -0.8554422743143913
P 6.036413190907122 4.642816571643666 6.498312105706268 1.6892224902743167 -0.45318264320825175 -0.6776553758074781
P 7.103090363049117 9.13247307683172 10.640041839248997 -0.8702662267011011 -0.2785173210494558 -1.277714858207348
P 0.590904013360072 0.8654021817870533 3.9710877031385685 -1.1258760470247644 -0.18564444687811898 1.2750974751891588
P 4.39321081898682 3.8373606661915844 10.868072271585739 0.09006034442320619 -0.36224246728325354 -2.451536836983771
P 0.4442408721537647 7.0830022450554955 10.93963500861344 0.32802442664064796 0.7216721477080603 1.2930023804940378
P 5.640633720088393 6.814595831543167 13.267149249244833 1.2088128930293116 1.0775315942831054 1.6217320607318262
Ni 2.337577232821412 8.934280410331029 3.575005301228514 -2.04352333411299 0.8530784020679051 -1.7250194453682677
Ni 6.044213666508791 0.47812371471868975 4.877405462107636 0.48878110913815176 1.54365588525369 -0.07804043714419463
Ni 9.327399767504042 2.4514509233705524 10.582597584396455 -1.4982718006919358 -0.08926381666383981 -0.28017285437500783
Ni 7.174619966988706 2.1230452205822705 12.527081019855684 0.15369566188566433 -0.24534134851811942 0.15129733685681684
Ni 4.779078763161192 3.2137296817119316 7.33618447790932 0.22485274164646438 -0.30814131456347577 -0.178368482041996
Ni 0.13958402026585956 5.0528906033343866 10.330984913259568 0.5473582953514122 -1.6130288765308738 -0.07343430583075096
Ni 3.917893003501547 9.248751282918269 12.227334491626257 -0.8673973897937383 -0.11418551960618399 0.3045803366850948
Ni 6.331752071757739 8.877603896463068 12.532595312377497 -2.1297187962641515 0.37344630641887294 2.0829080065582
Ni 1.309249243522093 8.274742624932523 5.5026126349218485 -1.2881694778817685 -0.3651267308095841 0.1511692959193848
Ni 5.722974177349713 7.808285543868565 4.210479944719392 0.8391509933535354 0.6903612534099208 -0.5464296128895557
Ni 2.1914887140289654 5.743270560468623 3.0885311016454633 0.8583116254423863 -0.06778636351635423 1.2110579803097463
Ni 4.561422774042742 7.066057037134391 11.455676229369665 0.07511066509190935 0.5928753059466048 -1.339384567303003
Ni 3.607899831107985 -0.025029681420893506 5.279251128030186 1.0155656941032705 2.319587051415631 0.01805711461202697
Ni 7.469570717378561 3.8959115661871317 8.339808436710921 -0.2674890882597522 0.9955907936432401 -1.2601323692388944
Ni 0.1581110964794869 6.213656279123229 4.6107598355636465 0.21916057635769354 0.2040039232219132 -0.10269423113713282
Ni 6.523119322106969 7.433985780744243 9.444908631149106 -0.13946691988079207 -0.19303096915017723 -0.47744588663099063
Ni 4.1131794248448195 4.885379176427159 5.428888673889461 -0.1022435167529594 -0.3514554039700786 -0.9034781946766955
Ni 4.812098252115836 9.257470018390524 0.9053417528591977 0.762674558262351 -0.3987539319457261 0.6184456982165413
Ni 8.90358023754436 9.697865559003757 9.723968752479541 0.39237579633352426 -0.05470870439678965 -0.9235677663377191
Ni 2.509679959081564 8.78849482262991 7.38388855151604 1.3355729068663966 1.0908527368720438 0.9060012182088655
Ni 3.1192435810077197 2.532589122863169 4.567932952527292 1.4273597470624064 0.17920666167257526 -0.6926117400069942
Ni 1.7568772639407575 1.6977678347455765 2.448220920609278 2.7804015001375277 2.4916789564202957 -0.2928391369887666
Ni 3.8646433976042225 5.560820844120332 0.8512836996118943 0.042944621882326034 0.7226121430238265 0.22882972401634138
Ni 3.8972747560981036 1.9832425219348595 9.24529502849816 1.5910222903527955 2.480762052397476 -0.5588732379695471
P 1.8743387946028025 5.376146477570109 5.901839840223741 -0.49244158870887444 0.2608445863600411 -1.5219357199677788
P 3.582510419016141 1.4124067467155408 7.213509692497469 -0.27672526214603954 -1.255284811338606 -1.087172202696663
P 3.1263529950573004 3.4802806422898818 0.9649472317164269 -2.0945386488185926 -1.0605697696177865 -2.08685156458698
P 4.983557249806919 5.495037464319354 3.1662594330413305 -0.7812952586873319 3.0432579747212745 1.046764231193262
P 6.9649537854040044 8.484721204205155 6.204177375943675 -0.09695450043987817 0.919924256047861 1.1468917300444827
P 5.138563302600304 1.491235096636789 13.372878826735578 -0.5011355169384466 -1.1612503127590001 -0.03822253381630836
P 8.25064066997882 3.264820903583552 1.4738733584651103 -2.014304546457189 -1.3636766070811484 -0.08022253239717796
P 2.233794934252102 6.766827385079541 13.450884529411942 0.9696547905037689 -0.4443817570871701 -1.4955916827566114
