# total energy = -381172.3101756934 ev
CRYSTAL
PRIMVEC
9.23498546295018 0.00000000000000 0.00000000000000
0.00000000000000 9.23498546295018 0.00000000000000
0.00000000000000 0.00000000000000 13.51633471166520
PRIMCOORD
 96 1
Ni 2.523875298015175 4.729568413707897 6.99194586895757 -0.6032363374659546 -1.237369878731398 0.161622887152541
Ni 3.8059590673784953 7.423395145556012 11.716323297447975 0.23635945673448325 -0.09044755255929585 -0.7961058413376031
Ni 6.00687769568918 1.8481144862295131 11.436792298955387 1.0818497620424852 -0.033148975948142916 1.1179758183410813
Ni 5.5683267154219065 8.304172630226054 13.15032534491715 -0.4935721027688919 -1.0284744317451384 -0.6927927456695487
Ni 5.832724343560637 1.2654792658567386 9.157248853095016 -0.6699595498251171 -0.23449977781792516 -0.994918193056248
Ni 0.8004968342623304 5.300327443029801 10.114421829871757 1.1019290492908635 0.6652909407048543 -0.3942925537402629
Ni 6.810940157762351 2.6351384004886445 6.254034529836566 1.051245921113699 -1.039302632708894 -1.1788898802176344
Ni 2.6336608028462347 3.0875141536977164 13.374331918002078 -0.3795508766547141 0.12514844637559092 -0.495743656498914
Ni 9.034641494721944 7.628411818440393 9.426008164774434 0.4762132997754702 -0.9231926423864873 -0.920288324255499
Ni 5.926976603175862 8.282424239926833 1.8989909435532675 0.7268575485637417 -0.2549341344128771 0.7837311218223341
Ni 3.2752152292101053 1.560537045075476 1.5374015599894424 -0.03155180666435212 0.21626294309492433 0.376853532328209
Ni 7.48857567155682 6.237244403126157 5.472655962069968 0.6920432690980339 -0.05645525477425116 0.9945993762642483
Ni 5.298886785328451 2.8936625779987954 2.7291505504869775 -0.7411071165042205 -0.6756064636982494 -0.68386150461819
Ni 1.7769866297180041 8.369759495578524 4.363559166196213 2.1175826751222497 -1.6923250404590406 -0.5930408849901916
Ni 4.421055260957964 7.98447591032013 7.937089353928043 -0.756780304265103 2.151156654422953 -0.20680076924076
Ni 7.697868142618925 3.827984507235669 10.760096906660902 1.8169124721248384 0.23406397583208718 -2.5356129387990847
Ni 6.7632691638241 6.002020093439757 3.1297346593325273 0.16098473934790986 0.7067144979569635 0.06519777685357159
Ni 6.652209231026462 8.097013440760179 4.330890405821055 0.2565037928928421 1.299085353463324 0.023064595128947377
Ni 0.2910784240680221 1.643079343374602 6.943259950138689 0.2214187762642509 2.099644345476274 -0.054675537166009064
Ni 7.800247189267404 2.975687717123078 12.772489775275027 -0.30755124638796066 -0.39035285236622447 1.4027761441857711
Ni 4.056467277678572 4.605099282305388 5.343845464094354 0.7540114832707143 -0.7130525243598493 -0.8960132537582182
Ni 2.501194174204182 8.430488758681575 9.502429514839879 0.6298629389145475 -0.4851640812108547 0.26627527045730914
Ni 2.30048100445332 0.7226228210146932 11.24418467577167 -0.7954913476820558 -0.3469441463632863 0.37668795328462223
Ni 6.017479458773471 6.211432619310308 10.034418229021998 -0.23372741842827488 -0.5578501960216715 0.9967884134957672
P 3.7550188886564126 5.78566285864988 10.118638524143787 0.5908528761999373 1.0488542809530712 -1.5016702848505235
Ni 8.410965999831234 6.132556610161411 11.45066047632793 -0.9928466552391998 0.7437877486601772 -0.10134980129409642
P 4.435646537676762 5.198142331071888 2.74199087399952 0.9433935428143947 0.7483887377672982 0.2561338111479331
Ni 1.2538062444817002 6.864576952181832 1.8023357407720733 0.5742175816361014 0.3910910160838297 0.4984528278999609
P 8.82100858058526 7.367052500453867 7.121485930769125 -0.07081126638560707 -0.018133990596549413 0.9816137626378578
P -0.15852313956742525 8.900891203128047 11.164803512928774 1.1664364849456297 0.33971703248722784 0.14029970019473256
P 2.248044758118297 6.382575366242441 13.249941283974321 -0.15329302713060697 -1.004518178039857 0.22825431112884562
Ni 6.649568025240654 7.159209922078377 7.956728473592724 1.6819061591185613 0.48472133724648137 -1.10750062984137
Ni 4.020912584408084 2.1676265064301354 10.44759978126762 -0.7075290234384589 -0.1678405859274787 0.30946414713995735
Ni 8.78992362018306 2.3767804527132643 4.193037010273892 -0.5314490803203235 -0.9824858808301661 0.27876620383546824
Ni 7.859572734610164 0.2421145321926623 8.201022462307941 2.0436230929156483 -0.3438174278088466 -1.2983045094332415
Ni 6.784962144211731 1.0197547779239635 2.815735925335148 0.6972410112488896 0.8147733358401192 0.5656262404226646
Ni 2.527837106693887 4.878445611165964 1.6445320065567963 0.6086261410229583 0.06979053843057657 -2.41951014756553
Ni 8.184348696411872 0.4582224223803829 0.905552179640625 -0.32616680460661895 -0.2757528709304412 1.4693808286891983
Ni 0.8714095156171635 3.874519597986317 2.873275424527644 -0.7873075263196827 -0.3873415763437264 -1.895734267519748
Ni 4.676975172623368 5.852551856924726 7.894188229879196 -2.5458132763708545 -1.8026523626613986 1.7068440600108217
Ni 0.8682372981786146 4.7569039700924804 12.370163024709958 0.4333008166826603 -0.2910195672815246 1.4122565728723806
Ni 6.882640583360294 8.59694936808432 9.999303121050128 -1.2151262368418492 -1.477765453208468 1.704038986461859
Ni 2.947696476784675 3.1360532362508833 8.726105254508848 -1.6200492737127647 1.7122845143001026 0.8384100014224529
Ni 6.369193872593366 4.07986873034024 4.274946712082361 0.19982433792292684 -0.47370698841384873 1.1995957453064179
Ni 2.579710018927741 8.525553697000126 0.12743171467554032 0.02937922449306553 1.8263160248269257 -0.5951754148346912
Ni 3.140800018677125 4.190734728447312 11.279097537566237 -0.3214650282555754 -0.20982027279337412 0.32836792602299575
Ni 3.1458330856465837 6.71060204285745 5.692418135927074 1.2635766190337527 1.314783480924871 1.9921066702039112
Ni 4.45842924632567 0.61099863061736 3.3256262432765005 -0.44715263496408797 -0.22030137483035608 -0.15430218512141167
Ni 8.762024729697307 4.18746554366348 6.399146623802068 -0.5457505845446601 0.06912436560148741 0.09276385939729831
Ni 5.810514203998163 4.205575349768267 11.783053453976262 -1.7368732593830603 0.8651448463141359 0.3655463348455059
Ni 8.999179151304105 9.000582869064393 3.5391437200973717 -1.3066870770699817 1.1266862016308854 -1.589309935647379
Ni 4.396222385580211 7.523539325770345 3.9030307679951437 -0.5457292443884214 -0.8456497137040018 -1.2005902480092032
Ni 0.8306490611527584 1.378635540309546 2.145569667623061 0.7726866910827145 0.2909591463572344 -0.37945188918300454
Ni 1.8069541569031309 6.51093242644154 8.119883881769105 -0.4801208623599925 0.3700707050784207 1.0234345553283857
Ni 7.870617776987179 4.950062921896522 8.536470373081954 -0.49117660595352175 1.2074579216633141 0.2873590877108019
Ni 0.6906762364872636 1.5824147251684086 12.848965611753533 -0.33390428246019266 -0.2243567758466523 0.45203310298484084
P 6.474389589747689 6.255141804569847 12.33170854606624 -0.7364922434400283 0.05636475194297389 0.29705188951853356
Ni 0.9256041031466545 6.295674154898205 5.812672420054607 -1.1375349714199312 -0.3596255984856968 0.5118603595551185
P 4.822149140990145 9.268600611427031 10.795793818704471 -0.688718318489859 -0.1299875196354471 0.24550924155455137
Ni 7.158138663787629 3.9673496698707225 1.7141148500334606 1.0841300734362296 -0.3543908324493187 -0.020281633067171522
P 8.462173993126003 4.520876216688021 4.006755351996743 -0.7881241086837072 1.3774335516559246 1.1749311526802024
P 7.549665099085207 0.7746915149361671 4.932637428199876 -0.8178951692985528 0.2931659242005661 1.1603535119763437
P 9.026477767747629 2.919298897094608 1.0174201736489559 0.5239723123273041 -0.14869563756791165 -0.1648308525668774
Ni 3.177527555076278 3.531384485477666 3.372879815880771 0.18231075451919568 -1.5413408639672679 0.39437071527636597
Ni 4.044304802084486 0.9867766455424266 12.861103152887404 0.1352500535859671 0.5716385080550156 -0.9266818864866686
Ni 6.09599530349703 6.046061738168839 0.993460004378752 -0.8521384067521388 0.06184428700030639 -0.9048771319067513
Ni 0.6341387331960263 3.6782946310742757 8.652089618104954 -0.46098105620674806 -1.0048873884538176 -1.6362778197564853
Ni 4.8145210431612036 2.1342882096232607 5.142681627062557 -0.7204992104458817 0.7843474152500943 -0.5012758991710529
Ni 0.1816650891431446 9.024076671578712 5.804170692619591 -1.3603686257538377 -0.8498956334645491 0.6231168784399655
Ni 2.136209086558394 1.5412728658125563 4.258361602044836 0.1815365953573325 -0.8041762770505635 0.22162986383379252
Ni 1.371210612156436 7.3789748664310615 11.429412622230075 0.5789201293180933 -0.40612014250281026 -1.2460164986628024
Ni 2.0963785951101803 8.681735767802857 7.197150935541359 -0.4725376506960958 0.01012911801420191 -0.7179648740598021
Ni 1.1278133405104565 2.8997207283326767 10.775451916661119 0.06936013576137733 -0.32596163057434835 0.5739931243301211
Ni 4.781662965588112 2.8406352926068084 7.44554064022163 0.35019402075915174 -0.03577535782739645 -2.1059186085207604
Ni 5.577635580569089 3.8115831734049186 9.20743545701947 0.7975040072367103 0.7721668140235024 1.6978855652659532
Ni 7.5904006190893965 2.6002209212014438 8.376437313423692 0.7605030045323289 1.199488273194276 -0.31913715145334715
Ni 9.169185995048634 6.723346322523235 3.7228580524708335 -0.3211528963317953 -1.4023066607485204 0.40501636791567025
Ni 1.1824105733975043 1.2326396582541777 9.048631573899987 -0.05485320039445391 -0.33592105577990533 0.16164217042625065
Ni 8.08021500256303 1.4001622909624059 10.260371537000802 1.2885374027441487 0.5609527462063952 1.0816425311276856
Ni 3.7635612500265947 7.123082659721453 1.4360836131479184 0.8690143565718711 -0.8654538929141223 1.218718839289114
Ni 1.3874918911787404 3.585870898541533 5.119378988743225 0.41212675370820634 1.0990057049964814 0.658014461648099
Ni 3.926438685146497 0.047359774934818494 5.608346524068054 -0.6064797841039169 -0.6821650907523735 0.6244515380909891
Ni 6.034868936027584 4.841127035709848 6.63170848723655 1.524939025570477 -0.8192025752560665 -0.3299093023681866
Ni 4.256423178637699 5.359699163298886 13.314751487066001 -0.9477582475409936 -0.2385577499373827 -0.9701024195641487
Ni 2.208149621773228 5.662209575626528 3.850020105576634 0.16365123043647944 0.7580465725720364 0.07462601214600696
Ni 7.444118452490811 0.12879756899624303 12.369716974921657 0.17383999804402317 0.4176371420034743 -0.7341188581118454
Ni 3.5694603297255174 1.0477460182623672 8.1702182454578 -0.3946681919121267 -1.3680402833664826 -0.46946261131519795
Ni 0.42346470833826827 7.889872721264833 -0.09153532695024355 -2.6684883215052877 1.2489393287365524 -0.2988200371625499
P 5.314438500514816 7.389696684323799 5.932224845301997 0.16905723194339917 -0.09461942454879833 0.9241298094887762
Ni 8.373000975406562 5.92748452736544 0.43260642025215335 0.19924609682195363 -0.9716473954537653 -0.4379334303586651
P 5.631447839708606 1.0437749745983904 0.7651813271102059 0.8727380852803615 -0.2371935226000044 1.1019257068567538
Ni 6.07970478948946 0.29564789477717485 6.815368333196949 -0.6331308110325419 0.10468246521175519 -1.341232162034703
P 2.4821978095139494 8.841639537667408 2.347787216473601 0.29311115970323065 0.4735275254131909 0.3100670708312789
P 8.202319977737684 7.4675199051524785 1.925929395571454 -0.4425537027394959 1.0795252276743665 -0.5757419887004278
P 2.7614175890031047 2.428450195271287 6.286501044034419 0.9947230463263061 -0.38684612476454666 0.7307782237743866
Ni 5.148365760493203 3.107831121280853 0.35918736389638234 0.32264850704071524 0.056880515237127845 -0.501518097088846
