# total energy = -340893.908369717 ev
CRYSTAL
PRIMVEC
9.06471299594616 0.00000000000000 0.00000000000000

0.00000000000000 9.06471299594616 0.00000000000000

0.00000000000000 0.00000000000000 13.26712374480274

PRIMCOORD
 96 1
Ni 6.577600480520532 2.0012166830679092 11.30952024905053 -0.4287381370126423 -0.7723349641702505 1.216671469841782
Ni 4.549561311765265 0.32268202653067996 6.207116596597587 0.37941152286337243 1.070632296060111 -1.6642275108918758
Ni 2.6682526519053202 1.5892617372931022 4.816855222616505 0.5966041768614176 -0.4347074672221998 0.5852794958772178
Ni 3.5921916511129246 4.176892832015807 5.087637235019789 -0.132334679711385 1.0872915018833467 -1.5016103781468655
Ni 5.3073713163151455 4.60044154568319 2.5405344719997465 -0.7970414657779951 -0.577753876924134 0.7510362026924743
Ni 7.33137668779739 5.988104066454889 2.657312449818104 0.0995680268033253 0.13450700477235544 -0.5707172817923267
Ni 5.03597380990099 4.443032804905574 11.630770050931465 0.09051491546212154 0.12947921254046088 -0.6357116843858406
Ni 5.751360957736835 7.736560292981304 12.410942702385945 -0.8389098238770069 -0.08287873907310242 0.44623963623151536
Ni 1.7601134474098026 6.398273263773998 0.43598278045256295 0.07900074417493491 0.7632893090282143 -0.5898277773695325
Ni 2.762598184529186 1.493366138750839 0.2277699493459966 -0.1428792879964507 0.5219570816694882 1.5353671628823364
Ni 0.5508535426613842 9.00532097368505 4.749590519999731 0.4555246610778671 0.8179486482443074 0.15798297640710857
Ni 8.768632253244835 2.0088491713912466 1.4223287025946663 -0.6390376634352801 0.8552800377049141 -0.07628385946440411
Ni 6.896478953487706 0.7651351991034308 4.76332174721136 0.19860614924510955 -0.8779013746488558 0.4116878663985748
Ni 0.7122190306517515 7.44092374407712 2.442702650766432 0.007646203691348123 0.2874580751825114 0.0501442249545588
Ni 7.630883869141082 3.926788336375427 3.8358837687961445 0.3601691296939926 -0.8866384974115376 -0.020185988029571687
Ni 7.685136176284995 3.727065515439452 12.684551092294237 0.6907003819168944 0.13887582326401243 -0.9436126008037362
Ni 7.847303891373479 8.933564705790111 7.170548737286327 -0.41205913369506453 0.3640414681652053 -0.8440219482925916
Ni 6.8284301531987595 0.5160939942947936 0.36733208322220323 -0.260792392965867 0.20033110235601626 -0.09353210502189054
Ni 2.0294623286920412 6.440931803025334 9.26234909709427 -0.14858328035976345 0.8339064571251444 -0.9978009139206816
Ni 9.05357244084078 4.610548700648179 1.4235760070997625 0.7419612369743996 0.18439206252825666 0.2818800668741016
Ni 6.365187061422239 2.1856473332182906 7.3160092798941205 0.3534204981162494 -0.1003450141786659 -0.4695140333784237
Ni 3.274301231859817 4.356600766707211 0.3280546819098273 0.5790952214433768 -2.2654046518359565 1.293631015216972
Ni 5.896686436121329 5.688080196471731 4.730061502370517 0.4513131940996808 -0.7897408183515238 0.9498647523610351
Ni 5.296819990414476 2.840935434042584 9.43947902741613 -0.4031140086866348 0.2557286052897144 -0.14753607004217173
P 9.302933630017368 5.349422519797287 12.445597100082049 -0.3785188358457739 0.4511558425862101 0.14919725979467854
P 3.9294714914154603 6.110804021258563 12.795264777133601 0.7540433649499143 1.3530186131466697 -1.594376551537009
P 2.352755316877107 8.525697945566165 1.4464743785410719 0.279099418805171 0.042986530863855 -1.0216301551297953
P 6.244318178639127 7.854247461510862 5.711603126636885 1.3695019555136736 0.022110458745794176 1.1819541209652549
P 4.880985347487188 0.9591916679599306 12.392873103545398 -0.14323975665966296 -0.2057489309374779 1.1208320568429535
P 3.944011291024288 6.271321958585946 8.014324853787754 -0.010366687946304727 0.9324540130837554 0.6537217478100161
P 4.587787206372763 1.2137741318090145 3.8864576154155785 -0.04052521380755601 -0.8311633471623685 -1.3841996667351644
P 0.23242196004378368 5.667276680198501 3.5418444223178174 0.16523914374888962 -1.8899667689083517 -0.05200390387111689
Ni 1.564397229607931 1.1112884869353188 2.6777832911252215 -0.01086728173180709 0.5053313001873491 -0.47655448516497284
Ni 1.7396362608036042 6.59457868791912 4.76640012373702 0.7405774692529956 0.13444786939964587 -0.24877994188602315
Ni 5.858297376680316 5.635169466847835 9.354476494453623 0.39853513106670074 0.7550422385280738 -0.22074129058125208
Ni 8.813992076962151 2.497310294658889 10.458380866201068 0.5911197567080787 0.18425990782576654 -1.155025672005527
Ni 2.2626067463597797 5.447294225767681 6.760210029834622 -0.3094461494178284 -0.03122553367318493 1.3521624357939614
Ni 0.5584452397763426 0.10009165417750396 9.050115159312845 0.764270184884245 0.18483994869895265 0.9312221975591832
Ni 1.5908752562023112 0.9385966400850823 11.564142597636696 -1.2415499782510167 -0.8958996109984892 -1.3649361905198623
Ni 4.019438767673326 6.811941440300718 1.6104559426954714 1.05595386811233 1.3205406951236225 -0.2804003970047816
Ni 5.662816841415744 8.026748949388665 8.03081537962839 -0.39523563437982256 0.008541718922423999 0.5062288723009539
Ni 5.570383963229198 2.7278712691292983 5.03365324337988 -0.6691609651832218 0.6545712402945049 -0.07830448943885869
Ni 0.8085678648426687 7.804808516955659 6.942685421396708 0.27196794996671225 -0.9335012234013471 0.2886464390636577
Ni 5.038158405727504 4.575794591109372 7.295578323324085 1.2114583010719588 -0.07746759535986013 -1.126949225484285
Ni 8.166336464461196 7.325421171374074 9.257148671261614 -0.24168986780846122 -0.8209876921809474 -0.6828055525498499
Ni 4.724374301451204 0.3890837684724173 10.285390790294016 -0.17008798720075868 -0.9654150413908082 -0.002787590047466167
Ni 8.216672815600734 7.222282867166316 4.648468207957187 -1.1675240615828537 -0.02171990817559485 0.8354344637338966
Ni 7.111919986719011 6.271321958585946 7.077585573390857 0.30133611871618426 0.2279627480303558 -1.1349774951054001
Ni 2.4061736704274956 5.371757972562968 2.589516555021106 -1.6205190142603318 -1.5687539658728982 0.2146760582237787
Ni 2.2842714103654522 4.993233688232896 11.591366650108762 0.7685852673198312 1.8931235693697783 -0.9560145740125148
Ni 1.2130036312063022 3.288949808024322 3.9944391957648553 -0.9067532658835417 0.7862765139520072 -1.050861284080771
Ni 3.789031893323459 2.73157873673529 2.2567110570420854 -0.7523037565509884 -0.11829311401665434 0.6831863329280363
Ni 1.1889640124016818 3.417768444084829 8.169496423403613 -1.3874433704834426 0.9127855881205506 0.3761392798700038
Ni 3.6439964857541036 2.7715903797984858 6.951641357814116 0.19551491191429554 -1.0593991463484531 0.6596921064608381
Ni 4.139328661455344 7.059915728392424 5.89033751115498 -0.11981160754370979 -0.9593464665992253 -0.18966668066363465
Ni 0.6008671900190817 7.252685914478042 11.32626277391182 1.4804396576065213 -0.4350874762694378 0.1582064052718243
P 0.17874616864495993 5.858569318069508 7.8357753894143105 0.62258594563716 0.21967531121058295 0.7281078760310751
P 8.541162345898249 1.8830853436026695 8.05295866047904 -0.2235795313609956 -0.5964715079382953 0.9204078805524987
P 1.9815281264903692 3.4670714179454363 10.121674822229728 -0.286425520152939 -0.7501774542366049 1.0543988649203841
P 3.9831255275031485 6.1538251490288225 3.7429079143025117 0.1381353455535621 -0.48283003376103945 0.7623511134846612
P 6.983944368965 3.937031462035013 10.427030556383654 -0.07376674946950522 0.7282986518856425 -0.3756152890457337
P 6.214350237550109 7.665547331550158 10.223300225842278 0.03396144454710925 0.05879727264386648 -0.20072473825000917
P 2.4868133570360564 8.483211635861316 5.754442053676387 -0.7429405701685334 1.386253978161032 0.7915205359597658
P 7.023611552935219 3.7401912198244784 1.4246637726565328 -0.7702546846024542 -0.19863186027672244 1.7741655680756157
Ni 5.428122357829608 2.7614016424167387 0.13302013052353145 -0.673654225067885 0.4732225925782624 1.1052141478000386
Ni 1.4091912140827747 1.3166314299146065 7.0495393514521325 0.13513563949528984 -1.000473318546522 -0.6508752795001566
Ni 7.122679801018061 0.8503317169235619 9.357939214809344 -0.24398791981401854 -0.8057022267767867 -0.7049833741984697
Ni 2.799500631042614 1.6473393533116558 9.099031069929502 -1.2452377115152489 0.5701272136168116 1.3292621341570205
Ni 6.213280601419285 1.932361123324358 2.587155197291618 1.0332320010347817 0.4933381323812149 -0.28447765239794875
Ni 4.020444950813338 6.86510598188786 10.625440806881127 0.8257586312070294 0.017031501560990023 0.35831330743217643
Ni 8.022678893263748 6.889390347942753 0.2959964180092159 0.8711573710568028 0.3637185376081478 -0.1919318225487275
Ni 7.654270828611641 4.341163560514048 8.281656836433482 0.5358996598925093 -1.5378549623011968 0.07084186251322637
Ni 3.326912825955601 8.434307509371525 12.62492884918507 -0.24448748515825636 -1.3149385184454967 -0.23108766681258266
Ni 0.33174583303246735 5.062732842597536 10.126225308142217 -1.4083497816188066 -0.7969170243849888 -0.201850110103704
Ni 8.522697525572074 2.5094660747557955 5.95025163802188 0.03930573957815811 -0.1407460437035318 -0.6783475167784963
Ni 3.434248092269897 2.503773435008698 11.433355105918436 0.9064617027850519 0.5835992799613174 -0.18823303354090162
Ni 1.1062394418093107 3.1883677528749743 12.443288317687802 -0.6271740792284746 -0.5413861369283772 0.9031434370450963
Ni 3.2202392836883402 8.571166545839159 8.166193241996222 -1.235744170202517 -1.9246216399780596 -0.08402673663461657
Ni 5.643037637708472 7.804953552363227 3.6316367496153026 -0.8597236752985644 0.9202405017366991 -0.7346657317542509
Ni 3.0360080572233668 8.371652213301564 3.589792221588949 1.0151843995044516 -0.03144330611094585 -0.12132830129855234
Ni 3.7191429563009755 4.619087660268825 9.388997640869022 -1.0417708917437285 -0.7637739619741168 0.3710981179016706
Ni 7.161975331756383 5.927959695878471 11.419517821565023 0.7396665274029519 -0.19434326020369755 0.01958589255172756
Ni 0.3678723401153991 8.894677087135578 0.297110471233608 0.608371601809991 -0.17765860045916498 0.17456144959108003
Ni 4.57525977304396 0.42638324941406625 1.5404455385191491 -0.01675665063304856 -1.04587308683756 0.313832194300666
Ni 6.004148608417248 5.461471436857586 0.4219796118517417 -0.4629410081465963 0.5558295660472169 -0.2634015484539399
Ni 7.877018020499251 8.557750770638993 11.326860138496745 -0.4373384770871435 1.4812801512299456 1.003208458089498
Ni 0.039329976647619905 4.953004492058346 5.721925115299337 -0.46649812937023527 0.11907858603242717 0.318972857961341
Ni 7.804799452242685 8.767200028595088 2.488195725764452 0.6080180751253141 0.9886254180690005 0.7273637987761989
P 8.6498935780104 1.5914372684066425 3.698170836366447 -0.3480468925091619 0.4562098600703498 -0.1781558518105577
P 1.7420021508895793 3.156024856987008 1.4077218241098375 0.33225183445843426 -0.28292496319884824 0.8625678296155791
P 4.603242541991873 1.1218307481230165 8.185550030078947 1.8641282105786927 0.8379847409595761 -0.06065695156042456
P 8.427581492345496 1.4809746761166322 12.467209188752475 1.107582648032215 -0.038313036647585626 -0.6751274671793018
P 6.362231964993013 7.5415239286524125 1.5434305485011859 -1.4178572068886097 0.4895555254103311 -1.4097206938244045
P 1.7292209055975298 3.371266466532904 6.112243497678689 0.4934278638815438 -0.2828205764105 -1.7090788628786113
P 6.895155505393635 4.092500354236388 6.0348698271543295 0.2707235360366499 0.9377260601159723 0.44798130151297044
P 2.4445536651555355 8.34313462628824 10.394247115445197 -1.0170983286977129 0.8144218660379715 -0.3080988913613146
