# total energy = -340897.3051939763 ev
CRYSTAL
PRIMVEC
8.98001500039981 0.00000000000000 0.00000000000000

0.00000000000000 8.98001500039981 0.00000000000000

0.00000000000000 0.00000000000000 13.14315966691548

PRIMCOORD
 96 1
Ni 6.316937661688305 2.02442763835931 11.425493076831621 -0.13447975107884583 -0.3957475410192346 -0.44750127655275834
Ni 4.562907254567156 0.3588467868425372 5.978232150457474 -0.17670420696569566 -0.23312912272264366 -0.27401891895846997
Ni 2.7163557530470572 1.426502320543174 4.820739648837152 -0.05968070369008431 1.4128443270550504 0.16087263925007778
Ni 3.35149425296445 4.115711488288083 4.629204909204501 -0.5289795357339083 -0.4149297703746402 0.9049828042466801
Ni 5.093033459240318 4.429985072746982 2.7152449251933106 -0.5262323120060745 -0.3991156861605191 -0.23641010746676058
Ni 7.259354314390641 6.001846895865697 2.3647702063220573 0.20526890597726583 -0.18075292311377256 1.3794148437520115
Ni 5.068284537939386 4.609019631519365 11.376732493460093 0.4906798688227613 -0.6376934907025599 -0.19083781815360037
Ni 5.48282896973 7.7644083172233795 12.284569802456513 -0.6009423992254553 0.5273242595186726 -0.2008440374366928
Ni 1.9511058160000534 6.387673239731645 0.4524652390727544 -0.4469081230534496 0.5390379484111748 -0.6682147992198686
Ni 2.718268496239038 1.6870843954018284 0.344958295665461 0.06515355387919747 -0.7012843280803277 0.5455628940138864
Ni 0.4345644772000119 0.15125488241373442 4.761582902116534 0.24789831061201822 -0.3516376951842137 0.37090631360583864
Ni 8.49798574141538 2.2931725468400788 1.3833048564553638 0.642150755142965 0.2993031474465555 -0.23266812392582506
Ni 6.853780917570863 0.7180321202500399 4.91905105689896 -0.38135579107393675 -0.43617839534077135 -0.7819578319719952
Ni 0.8544089138352603 7.529203764714665 2.7136680345618 -0.3818558706388069 -0.5356438351279613 -1.0089492172280172
Ni 7.614891067709403 3.8530101298927746 3.781694442881351 0.011664323711805718 -0.41858690751125327 -0.5014756738866847
Ni 7.519909449204337 3.7427086058218926 12.514759016595645 0.6110653465920701 0.3891228366138654 0.25903041596943777
Ni 7.963917310163442 8.776078845496393 7.2206414697867505 -0.9630102886040575 -0.22260354060097146 -1.0068946486918335
Ni 6.913731497616228 0.6536274527717069 0.4287795515461438 -1.4958565063822238 -0.37155217471995367 -0.34363462237407916
Ni 1.9001711710004572 6.487683666628772 9.257818035421435 -0.03713649984098121 0.38063948173320256 -0.8453262689263119
Ni 0.11639356623726524 4.7617876464582105 1.3362253318891821 -0.042451998516623665 -0.7472050018718422 0.552528783808758
Ni 6.430947931948333 1.8360359039716987 7.101879873597724 -0.5054529133668779 0.7353840979775143 -0.279361414217306
Ni 3.4463142311997705 4.308961410783026 0.47301061535882216 -0.5123079886154983 0.12700941084372963 0.4117778550092198
Ni 6.092042166383318 5.684277645907001 4.647263719340994 -0.5219010316205721 -0.36564480809658323 0.3957956206483506
Ni 5.1478295106838186 2.755526578415223 9.281042150177775 0.9140179178657549 0.06854278206640455 0.10124978538112239
P 0.1864520511506734 5.37559861078427 12.429354584072962 0.8534794941610656 0.49267735886876446 -0.9489712940124884
P 3.95545414085106 6.134472737191338 12.534447699452066 0.17407911063802278 0.6512298346260977 0.5173077558229349
P 2.349863381445589 8.486383562053696 1.3064000081167633 0.300385838987773 -0.371254955194509 0.5960717013967153
P 6.141540008985182 7.747588749154931 5.682918071638147 1.006357288131125 -0.5266786555148736 0.2711621662359653
P 4.708419417397455 1.0639791155654403 12.5869412750532 0.4332892467184344 -0.486798017269852 -0.2532917137134476
P 4.0047274830782795 6.205702216058898 8.124772726598522 -0.7259082972765949 -0.35219973833527085 -0.3579245566341901
P 4.796199063883891 0.9760198687792897 3.691992175186452 -0.704245981811813 -0.3424907385776231 1.5713654353538165
P 0.16463690074561002 5.505728007943853 3.518121125030919 0.21354451572249675 0.45739153908327673 -0.2746555241012044
Ni 1.4185550072807191 1.1039581422823308 2.607589811538751 -0.5618737153587677 0.2631164131133533 -0.8465619411056259
Ni 1.7881095639923534 6.505526956405605 4.654439649316166 1.0601198265645613 0.3839549192596807 1.1095264020221474
Ni 5.925256348051601 5.5649512067753655 9.109405327750714 0.5179983541320562 0.1769435766700114 0.19964050404689487
Ni 8.67530511732547 2.4049018932937067 10.293301767433858 -0.5631759791099591 0.8108279780391261 -0.919664317518255
Ni 2.29405258830869 5.362362068695165 6.956608375169044 -0.24998090417265983 -0.779142216900071 -0.3179405600420847
Ni 0.5088947552421768 9.038834083981618 9.24334763927328 -0.17432979319624817 0.15775980465270895 -0.2604095557051515
Ni 1.4342071734010113 1.134687753563822 11.357937322094761 0.26825039190580896 0.17651137422859922 -0.625810880332361
Ni 3.970109525307926 6.759598520399537 1.7506162054235392 0.6544162027738795 0.23440156167716406 -0.8780134747466878
Ni 5.557138593737697 7.779719242774211 7.836924632238408 0.007535132034780571 1.01073022038784 0.9142750281818836
Ni 5.335888984516954 2.8247086138660147 4.859394123343632 -0.7738177193633641 -0.7393693078775073 -0.31940068952737893
Ni 0.6426296284185676 7.311402481248479 6.739155516284308 0.08793095678502921 -0.3654730584054093 0.32269658666983136
Ni 5.015131829238291 4.530471440438358 6.954991972471596 -0.27757346907894775 0.021131896882608768 0.16393328045327252
Ni 8.234817422240809 6.98188083134365 9.069936365885019 -0.7004800870114775 0.6230829398782366 0.4345472874952517
Ni 4.691510049179148 0.3034571564084733 10.302620328984649 -0.3536123024120813 -0.2616246590591752 0.02966847359871019
Ni 8.017851280168303 7.240936303654714 4.595663655230948 0.04980329667537229 -0.17689292593773404 0.08999658106480629
Ni 7.058633019427492 6.100797680994496 6.914524432939476 0.789187516951215 -0.314076191990672 0.0012215311119269283
Ni 2.2688905863184097 5.290764409213186 2.6368332303400885 -0.5102035406779858 -1.232099117250762 -0.5756257748375377
Ni 2.5778480019057004 5.062860608887947 11.324106911638665 -1.3539023013032037 -0.24839119108803676 -0.19371796791487284
Ni 1.1007073768574622 3.2203052140365402 3.800371078048869 -0.44567630752887766 0.26930300154003944 -0.08454609947319632
Ni 3.5569659758550993 2.4910022769777918 2.558421535486866 0.5288139566903215 0.48604082738885324 0.6821236959914768
Ni 1.244225976360909 3.321653663166555 8.188004604119707 -0.8066666475725849 0.22924032919119874 -0.2888999498353605
Ni 3.5455074767331873 2.6863625029944034 6.937025656489457 -0.04851594532251644 -0.5160630847825565 0.2829319051773837
Ni 4.056739729876174 6.739959227625539 5.961145875943946 0.13193333050790826 0.8954324415540836 -0.8298453996818935
Ni 0.8513242786876296 7.241520004628793 11.388955191857299 -0.5273170604298208 0.1323202815336818 0.014792070707510008
P 0.29313911918976093 5.497232913767263 7.943646722335941 -0.16073894188569093 -0.1698190498100882 -0.19621142376068787
P 8.499629084157787 1.7361781373293308 7.991343173931648 -0.0665558335433628 0.08867451981927309 0.5635873556157649
P 1.8684537580705252 3.1833344923399007 10.309205373973754 -0.18309725497623308 0.4023200520304297 0.3633747811154838
P 4.018619566261349 5.9259029091305795 3.814132053013146 -0.2793881536901833 1.854561392825864 0.1461456174525483
P 6.905658464143972 3.9295018975420275 10.280947062816361 -0.24662227211307203 0.19025752017009814 0.3050549623286682
P 6.241352875552621 7.63997224956481 10.102056184283752 0.054497102606615826 -0.47222423322073515 -0.7104657374692797
P 2.219401723731531 8.452232565062605 5.813442589457106 1.7377150385580653 -0.6443305364031032 -0.710480649867615
P 6.790408951815901 3.8805518358542983 1.5841051755503874 2.0068933415947825 0.8632440297469973 -0.3475758664100143
Ni 5.254413308550569 2.8911786847910874 0.5733991008868525 -0.5489744907985965 -0.7736745089172805 -1.2478553516437543
Ni 1.3427906208453182 1.0412147775763752 6.972314421379251 -0.023032199229115174 1.0417225550042961 0.4270622919721161
Ni 7.017818851316919 0.7158158525515383 9.300204604156026 -1.0809030818584997 0.07324455841744805 -0.574420955896159
Ni 2.7814069816043694 1.5667072945168514 9.246213162055255 0.0012063616032753418 -0.6335385879939218 -0.7376042455572845
Ni 6.305236702161777 1.96702738256992 2.5527174299678705 0.7490939913644389 -0.3135830544043373 0.599318233358471
Ni 4.054638406369491 6.69399951092809 10.258314731047587 0.6666014319861616 1.4137388138448619 0.7061285435465064
Ni 8.162097260885602 7.031082333450983 0.28557166056120664 0.39966307402355683 0.599718039900051 0.47289786224899205
Ni 7.665044451405232 3.8600504616416607 8.198953038390423 0.06068626213646323 -0.058908087190117905 -0.6025909905724719
Ni 3.020670500886676 8.557137100127006 12.275855595914269 0.7372442911147045 -1.1439259625479397 0.3921156006936021
Ni 0.31394401790891907 4.938541281424193 10.138988291915952 -0.6378804099023854 -1.0834240485081406 0.5039038237122031
Ni 8.45837489531291 2.472072405387674 5.781452184071604 0.9047660602501837 0.1547834956332044 0.11808382621932566
Ni 3.6478527075266287 2.6406183066566133 11.453054538826112 0.49279305851102223 0.2521043782735658 -0.2416620998943193
Ni 1.096316149529394 3.255354212526213 12.43321868452136 -0.6240604733001575 0.9707822192399925 0.6785200378006185
Ni 3.0314016187947366 8.382008847873458 7.951230344991469 0.28628590925128117 -0.38425008190259635 0.10932999128609558
Ni 5.570420035901732 7.707959943022487 3.381905971715443 -0.19305899417463526 0.5832650365503504 0.5528699691982607
Ni 2.9636294456967196 8.543676057663255 3.4380400453918316 1.1424012983732972 -1.3668948569081298 0.807618469962893
Ni 3.4619574173050767 4.312014615878207 9.067689566135565 -0.42999077847282074 0.1408992814519444 0.1005859265448784
Ni 7.330027032329078 6.110343436924428 11.349000411180869 -0.40815902730971 -0.8313957748881489 -0.6961657759068398
Ni 0.6275189572019207 8.948755553658811 0.12724771035063126 -0.4834108459651739 -0.145621112407646 0.8619368808997995
Ni 4.54143603873605 0.3069925883083924 1.665238712945813 0.10925260108094088 -0.49124474018729586 -1.6323561161045759
Ni 6.037731035749051 5.616891613453374 0.3289783589981864 -1.0593405251963757 -1.3559576411703356 -0.5846752866343156
Ni 7.613481205356629 8.744101012131871 11.339116108685973 1.3273901139452882 -1.0586041612509831 0.560550368561654
Ni -0.020496884205144342 5.04932772630431 5.659865475168037 -0.20753507630362325 -0.9162419221002671 0.5713304898962934
Ni 7.795003228280084 8.683000990168322 2.4167375530450235 -0.17509855304147262 -0.29261185146930896 0.052146600096568255
P 8.384397531859687 1.4686814509315915 3.4810318671364664 -0.34844001418252246 1.683253417175075 0.2748169893797332
P 1.7789589287217984 3.2031444053986293 1.5792029853696261 -0.6917411644765828 0.5001191598587903 -0.09010405317694804
P 4.649070498356141 1.0244670496278125 8.09297898354121 0.12056339810806978 -0.03248923087695695 0.18546626942904187
P 8.407646790657987 1.5187809545375062 12.269020906508558 0.1826848500291628 1.0827095389396193 0.7325448287565062
P 6.193695936022851 7.505981445961323 1.1772593106071203 0.212301387344015 1.9589101288472843 1.645367183652263
P 1.7099744536006949 3.3810205422378403 5.97481435675387 -0.03571776511658365 -0.708525068803141 -0.7453003286499617
P 6.754892992546965 3.9364614091560415 5.902461478011583 1.6918023351863507 0.6362089357372334 0.7477482759698219
P 2.330780849600712 8.46858517235179 10.212090103908055 0.8274162214151105 -0.44029858815673206 -0.651044200977853
