# total energy = -340866.95516460435 ev
CRYSTAL
PRIMVEC
9.26739495966851 0.00000000000000 0.00000000000000

0.00000000000000 9.26739495966851 0.00000000000000

0.00000000000000 0.00000000000000 13.56376928611511

PRIMCOORD
 96 1
Ni 2.826926086361211 2.3405268743146985 0.04703944213595671 0.06793060240370237 -1.0641340899302771 -0.6129998446106217
Ni 2.886876862825513 3.7942845497517244 3.2407375024988827 0.6365642621941231 -1.0708678091096848 0.4023424206279329
Ni 4.52183990728503 2.636861087983352 9.59184991940451 0.7711082908520009 0.8849762792177662 -0.5147559359353587
Ni 1.1900168890098242 3.3662791918560186 12.041263121279831 -0.40617773521362305 0.3708366367101678 0.42886694928102265
Ni 6.484321948656729 2.995657542086292 11.795094241987266 0.524056130290362 0.6980982170428622 -0.5409860732764811
Ni 5.953865542096182 8.657331395955085 6.380871874840727 0.3594551343461035 -0.6582674581991695 0.19493589948237394
Ni 0.609049474250014 8.643930743185354 9.077145303654964 2.3598386998468257 -1.038317128867173 0.377145352537015
Ni 6.805668860683266 2.160294581738142 9.41556183002214 1.4999103647366232 -0.20165727736660752 -0.5354777418637424
Ni 3.937539937382762 8.9339075240739 7.3988191925461795 -0.6849123144802075 -1.5372127007315073 2.2008522218758673
Ni 0.5898752345677384 0.6439059992828678 5.360238866144496 0.7331230698574793 0.046687119643893785 -0.6097180885355564
Ni 5.945580491213652 0.2725216429274225 11.20167886263527 0.9526117189785528 2.054877582783545 -1.1161979005050517
Ni 6.431812890155147 3.872918393977973 0.5317482813849598 1.0618409230207262 -0.6739439883941619 0.7705166800145892
Ni 3.9511630076258477 3.144732853603491 5.577259008814219 -1.0439784409180086 0.03903988751128115 0.08578100032156194
Ni 5.959110887509506 5.976199963379064 3.0612475282396536 -1.0380705600740057 -2.199589038892728 -0.8434498778392053
Ni 0.5388971496744268 6.167719942728463 2.473272109590168 -0.6691882188767314 0.645005965203573 1.0220340754364334
Ni 5.94630334800206 3.29127816636126 3.189262685248408 -3.7743802120986416 2.3799087311238236 -1.4071657886130347
Ni 7.992803589934179 4.507605188990214 2.104283374770667 -0.2923218310327159 -0.4674805478881626 1.6285639960519953
Ni 8.781996389771408 8.442856079876348 3.316883977981427 -0.29506571232644024 0.7683952627962122 -0.15984342665461504
Ni 7.94155489711495 0.9001781923026528 13.150602705526945 -1.1108878011460481 1.291619384103582 -0.5440122616973148
Ni 1.250848067972829 4.716445929077251 7.810330441313555 -1.6128370722350416 0.8171585482428443 -0.7611344674687407
Ni 7.310584327386708 7.875543244501683 12.142896785730086 1.580392064332459 -0.37432485236908436 0.24019322865827664
Ni 4.159985212923439 6.225140720433335 13.342462798262684 -2.4077661196557245 0.4445393657109569 -1.745981906552548
Ni 8.011885155669223 6.098131075752047 4.150906873052604 0.014707995634135962 0.0983099860265081 -1.325506266659014
Ni 5.096223764833488 5.41703316796608 9.44001663121769 -0.2732799839099165 -0.7150677550176653 -1.9214738383776973
P 7.5996992405659975 9.322350373896318 5.276970397817181 1.4270614990956971 -0.6269136264782366 -1.6898660373955863
P 0.7989893627991098 6.22730929079856 5.331768502815391 1.0630634825739176 0.9372799737174891 -1.2111122305864497
P 4.234485799103147 8.013303067061871 4.999943874314818 0.46300657127720907 -1.0291678582677373 -0.023421207137417726
P 8.464680794449455 3.324891007022262 13.291028757548993 -0.5821334940490684 -0.33539552229373853 -0.5903021459027897
P 3.7147054312637113 2.399782596174761 11.526504754640893 -0.10919757947328936 -0.20842724910058946 0.40070154259040025
P 1.6905859475880907 0.02012414764140234 7.244042579795274 -0.9668512596167026 1.162511953080243 -0.1815905885237195
P 5.587173267689086 5.251758450472749 11.405108370943436 0.9631252169153671 -1.2391585952007045 2.4979383070664465
P 2.3647796463052813 1.680577161287048 4.406298663573686 -1.3411115772964388 1.5523112469358427 1.5419679560283057
Ni 3.3457333777547116 8.815155128090973 12.276499255017452 -1.1529968145009561 0.29663819901988264 1.4025869109931006
Ni 1.761212762773505 7.991487619883485 4.250193106419477 0.6452579333133791 -0.7478763169072539 0.031959069405099794
Ni 3.556066168392182 4.034374944845351 7.931400612716753 -0.38965839740236113 0.22886391968838649 -2.2045607810757066
Ni 5.450840623916269 1.3797019242040325 13.316799528795231 -0.7855080112170988 1.1186964985571894 0.9447729396604244
Ni 1.2910500262820175 2.940868704482805 6.233976254562422 0.3814524645528011 -0.641548859892908 -0.5281290148081549
Ni 1.6096537894704916 7.1771801803464195 7.234182071809803 -0.24057349481583087 -0.9245285875890916 0.034144507092192806
Ni 8.011987097011177 2.045388154565336 6.223599552690868 -0.14072676042982216 2.8381543906772797 -0.6329999418816324
Ni 3.7566774619650283 0.5530169522746757 10.165881615953486 1.7254616751120089 -1.8541402461280454 -1.8018501784750776
Ni 4.289274636706632 5.015273071926443 1.7732863246188744 0.08638315268193511 -0.6693465988314666 0.12235391434958925
Ni 1.951824537440032 6.66657453328294 12.258350915931034 1.4252185323496873 -0.9184001060938506 1.3363437235941502
Ni 8.132250078333985 7.176967030267786 6.10868756508123 0.34681636253617043 1.0774760584548218 1.385578292250246
Ni 7.470789779966456 2.04516573709198 2.454160888192011 0.4148747487669887 -2.641267538116122 -2.1572216296701106
Ni 7.677406345319928 6.042888135807124 10.413719553035698 -1.079143933075548 -0.1466906913227409 -0.4817892512013509
Ni 9.18089286084158 5.342829138417516 0.38498889180908513 0.235663201998407 0.7102399946117187 -1.5215773081870956
Ni 4.928585861685743 0.6474303894960962 2.757771860197311 1.827634743638349 1.005711941237642 -0.37635705230776473
Ni 1.8984814134133632 1.3905818456090546 10.893985603254405 -2.32309969255458 -0.18417197609765057 0.5663484633006698
Ni 8.727318760904598 3.455514935645594 10.50459655243075 -0.7694458155479136 -0.46109675584900595 -0.8145077408835586
Ni 6.046205863118025 1.4058267099286987 4.573079332709535 0.8149538272820417 -0.6286997718443817 1.0998171451541834
Ni 6.766968220319234 8.735455533471558 0.9896882509760347 0.6580985367214731 -0.022395336976064658 2.192572755475895
Ni 7.694875384373137 8.45995442314063 9.475730390262438 -1.141201364527925 1.092950242831021 0.9864548927802429
Ni 2.8871363498777622 1.674321669848896 7.781533865690194 -0.37708596005398926 1.2735872091922196 0.5151027777518161
Ni 2.1981982261559803 3.4966343660323784 9.628892622852565 -1.2908074297252479 -1.6390196441676803 1.6284387833280407
Ni 2.4438397906887968 6.738526585913771 1.5629535339814034 0.8350505980319167 -0.7899282517719814 -0.7262237716344848
Ni 0.7573769070130518 5.423816900903454 10.205515482966142 0.19180506716287613 0.6549044552642077 0.056533930530986515
P 5.592483484865473 0.46738993199030965 8.807199069721115 0.0546426270455446 1.839945185574586 -0.18461266317949496
P 8.630771042678429 6.859642167551113 8.342464246318999 0.7399899721806418 0.09887331472914586 0.2890022797411797
P 5.285445430291537 8.547725918563943 13.109369286185064 -0.009652435488099506 -1.677528084655524 0.10285621063629381
P 4.6526769859869965 4.7939398837525475 4.294045491510129 -1.0966672866712919 0.4756682259052776 0.4632608533798602
P 9.114862673438866 6.369295045352521 12.077559799452668 -1.4379565487416464 0.35012202987063573 -0.5032479352957592
P 2.7766319351984707 5.615689041252335 9.112479099516063 0.16847333441547113 1.534998466689008 -0.282772496781384
P 8.673669812852065 3.4141545529960067 8.047913079395087 0.6288848912719943 -0.3879594124333835 0.2327524561095153
P 9.058285228653805 0.6232721449316903 1.5015227545798084 -0.7464997482747014 -0.4530222063709876 0.23594396646361948
Ni 3.958419377694104 0.7912668427762773 5.541409945806511 -0.5824034598810035 0.5656406386003677 -1.7538705652720052
Ni 6.280893367088034 3.7173466387598197 5.431882314531045 -0.7072006935647627 1.0416107120167803 2.5810448458796387
Ni 1.1375912370607506 3.4827888783159358 1.260950454960576 -0.3019418706209832 0.10446135033988461 0.3006005261017404
Ni 5.122469026689556 7.349998557144426 11.191235435521708 -1.2237684858978795 -1.616927183144015 1.8840380621287423
Ni 2.8201238186343915 5.3860522674064635 5.776022383879263 -0.3741291914185105 -0.23706136789751428 -0.7984383461255218
Ni 5.88263634625376 6.177589718108658 6.028241018447124 -0.1541232363413862 -0.25516399103549603 -1.8209676160308186
Ni 4.619796269509126 7.895347667025136 1.919151410603961 -0.8391839034739998 -1.2128708651487692 -1.0233173130242312
Ni 6.248235068083519 7.996519815218178 3.743735545234097 0.19727020404250542 2.480486430138586 1.5563571348704424
Ni 5.4937579288793525 1.8917069478707127 7.155742842872741 -0.004452122234082655 -0.5816066750113209 0.02870688101638927
Ni 0.8677617723004142 8.329645585937886 11.535293951796364 -2.565527724080646 2.9926586645071684 -0.5203136325287943
Ni 5.531930327744163 7.782072301323611 9.14174923900978 -0.490635131627755 -1.3908631947982693 -2.07044638375608
Ni 0.3388307789113036 1.998059569714016 3.074852063693293 2.1693554368191674 -1.1469472658727669 0.994924620814151
Ni 0.9354322885691316 1.1417244951072925 13.284545288200649 0.6720220887811007 -0.9818377057232058 0.14308651891125038
Ni 0.3683872809019665 7.8383439220828075 0.42232815188828116 -0.5346745292361567 0.5151814535085514 0.4418926721167293
Ni 7.508952911436542 5.198684080893053 7.485070835234888 -1.1334253201269318 -0.29596894086699993 1.8264579497214284
Ni 0.6655648274904302 4.194218969030895 3.6915286038004904 -0.18782962745489587 0.6370108628132384 0.7246777673036034
Ni 8.514483773691868 0.19048110440093002 7.23045194543372 0.11562585159713636 -2.3006722167889992 1.892944620589753
Ni 4.120691459297123 6.575800401969316 7.3765199873632445 -0.6740332056738586 -0.10818122239363304 0.7916118101219916
Ni 6.106657078897379 6.368396108064372 0.5446883446369468 2.787657667479309 0.24371486865828992 0.8661516903120954
Ni 0.2263273871902205 1.634444070355019 9.015417040882756 -0.19247818197050076 0.911722951183991 0.37770456747459463
Ni 4.46497517326355 3.7789284766954028 13.090542573804909 -0.4453626329432007 1.122568579918086 -1.3345753188398177
Ni 3.2549499790463634 5.136212573064044 11.168285659229207 0.8583872158753281 -1.021751254088692 0.35586870254642583
Ni 2.874263938607254 1.2250569084581973 2.480704560158165 -2.808741484732802 -0.23142036756165305 -1.5473711293217478
Ni 8.75848500935868 4.6486085997035165 5.694463749878375 -0.026662339782534725 -1.8846276160836253 1.8028094570645532
P 2.362657412913671 8.758466474569234 1.073158748508315 0.5965980062138305 0.7598576576388462 -0.6538698433521062
P 2.1309540100445292 4.810176359307573 13.318142374290622 1.6475878454526658 0.27091765432532694 1.3214876324179243
P 5.546081639486471 3.966454208919108 7.657724252406822 2.3484929358167035 0.751569449488125 -0.23947974753101983
P 2.5490895925600405 7.964769720896536 10.299132850980843 0.40563548955690787 -0.13580566897912097 -0.2061636498773933
P 7.878610752155058 3.300638235031679 4.2314349727602725 2.1548027358159727 -0.7243862042051137 -1.609540403761641
P 7.646360572997248 6.892958451580972 2.042500434369591 1.2508267755672522 0.035354211129577824 -0.20494211876546642
P 8.607380138397101 0.608537914061294 11.10513207114857 -0.04148037863197372 0.25078617368277456 -1.3425789058705846
P 4.267431387344079 2.587799500318796 1.578469932966437 2.0145174337989435 0.881710721092617 0.3676924346542313
