# total energy = -381175.273817307 ev
CRYSTAL
PRIMVEC
9.20585122926079 0.00000000000000 0.00000000000000
0.00000000000000 9.20585122926079 0.00000000000000
0.00000000000000 0.00000000000000 13.47369381573705
PRIMCOORD
 96 1
Ni 0.8165967643998505 4.565421068268099 11.910691661647023 -0.5370018918177526 0.6139953757546717 0.6501587130491061
Ni 8.246353138544299 8.363037305214927 9.89882648196004 2.0429864877729136 0.629633853622877 -1.543542499604277
Ni 7.5079610024902985 1.3161697824904488 8.624538720476929 -1.7003584522864779 -0.06043326558539269 -0.11013191836210066
Ni 1.6430327427908307 8.856388088334901 6.9940333002900745 1.8032185195775137 -0.9985560469191512 1.5123473049483953
Ni 5.160754273350772 1.0265260794562883 4.123193139804695 -0.08163432514304005 -0.6253565664037618 -0.4237093163394831
Ni 0.7271536326479641 2.5655419071219567 3.108152280572333 -1.5217773400130437 -1.07818414026544 -0.2552886895388184
Ni 1.709333284673424 6.3050508099445235 10.401651006770011 -0.37968585957068157 -1.3013242700961718 -0.9973257740564758
Ni 2.6533841413129733 3.2053946096420387 12.377029714963317 0.5943223228057765 -1.084000489836901 -1.4653585949036827
Ni 2.847250166237373 7.329220191438865 12.09859597719581 1.2931327354243147 -0.02355207628832718 1.2652432081028984
Ni 7.625519725045244 3.5241656265496406 11.821240244628864 0.8868261879423115 0.0058441174856028386 0.100559187072001
Ni 2.6471241623515516 1.2343573809755082 4.409764850222051 0.037663575989044816 -1.357835574919339 -1.0100334514311315
Ni 4.16742449409285 8.425535830463598 7.874431217913656 -1.787671058761218 0.9106705986600768 0.09095483121301753
Ni 2.9712253672277757 7.786115802959967 2.9284807579429586 -0.5662638740066636 -0.2816931476742761 1.1688630921092515
Ni 5.765836475080719 2.4105521927182725 10.864095905523387 1.4651655050562702 0.6936093280335731 1.274867875676856
Ni 8.213258102711485 4.793090979584179 5.994001661202865 0.03340531493332311 -2.0030996788803046 0.46468935829627067
Ni 8.617790831390574 5.521660472179594 10.101484094984672 -1.3276593084462747 0.06830521213430173 0.7189192675532715
Ni 7.322628801826545 2.787955277280725 4.223949342359068 2.1096770471219277 -0.9468863864590016 0.018474147544787538
Ni 7.647153475867806 7.662140601969565 12.123360638084224 0.1226868722089758 0.10637502242282969 0.03812406056523112
Ni 3.5603538284575103 0.12295611323888889 1.4630684740864952 2.4750650020126987 1.8274426822322012 0.15615106540469237
Ni 5.594046081846747 7.457779906433368 4.07918824946132 0.16051988389634936 1.032274779327835 -1.477943887767861
Ni 6.1023839910684785 4.940384602205881 10.576148840904798 0.06877058180649447 -0.5411202848615003 -0.2051958866474853
Ni 1.0590411466500287 0.1780568162913844 2.499882092497768 -0.7506975884061329 0.14231210263907101 0.6489754913742823
Ni 6.069288955235665 1.016795494511842 1.8873146129832146 0.5393112566772196 -0.6888908395119813 0.2934225202960624
Ni 2.5497170485415377 3.546434581119759 4.239201596981546 1.3156442862632698 0.6699340959038204 -0.8756061508567758
P 7.992520197510039 0.7617602692829327 5.254727604583417 -0.21443566007819845 -0.20228668342049033 -0.34068659548934876
Ni 0.5023854056975315 4.729193164920602 4.2099094983677965 0.04123715227291608 -0.37889370268668937 -0.873484733638399
P 4.995960327191331 3.761050595130991 12.413031038087485 1.626670121463392 -0.279667375493499 -1.294262478153384
Ni 2.494914615074851 1.8008302418757414 7.964759031986413 0.6759278515934101 0.7171542052330487 -0.7786207971789623
P 5.16693139964947 1.1579580200919146 8.135618713642446 0.8441985830797718 0.549507223373615 0.7519535723004211
P 4.76205805446807 8.468978243285585 12.955293430354418 -0.16522937355687672 -0.2222818955954946 -0.12236317032096991
P 2.2253212564200693 5.7537676038771535 3.014429348498145 -0.9235729085440416 -0.4834226730397158 0.28619849174379747
Ni 2.1065473614784955 3.8219196846794086 1.711980887540049 0.9943209257918811 1.6995845502349307 1.7576475158159341
Ni 6.615030238751893 5.1049760196342175 4.094412886529556 -0.8445950471872422 0.02265527550567066 -0.645277730807721
Ni 1.7159799093942283 6.299352387919347 0.9139421990053913 -0.7406350619638083 -0.4552315553174805 -0.3304824012628373
Ni 0.7982274084886417 6.262602629075233 6.023415277055277 0.7974209606046009 0.8408378941376551 0.6809255619183177
Ni 3.211267942844079 0.6149757302444183 12.177012340124177 0.6465288296060027 0.00067260058699239 0.7197641320520701
Ni 0.20649737364935203 3.561108708273446 0.6057855287779654 0.11379136949155887 -0.9911283869965125 0.050050636799488
Ni 7.8731755397808065 5.152017920359023 0.16858951869737457 -0.043810569427047134 1.0488229134945033 -1.453777574934303
Ni 4.256472694819082 4.952389032449549 2.817282358129847 -0.38612467321748983 0.3711963340424317 -0.23799673522759013
Ni 4.487024037627699 7.03679632127772 10.230980045067964 -0.9219857665625799 1.0860401459747488 -1.6929318208051038
Ni 0.5816054394543305 2.2025920092792584 12.281716932349955 -0.042509591227436465 -1.381015612580228 -1.4654074458637472
Ni 3.9483988772543803 6.9726039193689004 0.8522114417646364 0.04241111797635922 0.5189468340882547 0.13708967789786713
Ni 8.496310416133324 8.703663013379025 7.094357748413139 -0.6179978120458453 0.7783639439731498 -0.6293196648165679
Ni 8.051216706124787 4.277959152019022 2.348680585950885 -0.21110402460180416 0.5783768552201136 0.7503211789033206
Ni 1.0048647110794844 8.577625701671918 11.443518637607491 -1.3635028005074452 1.0433966002726096 0.33772108510312154
Ni 5.508864338714334 5.83444768566819 8.462140136855373 -0.17864461852151814 0.25878487561753494 -1.1452238554237566
Ni 8.585478292927936 7.278348656525895 0.9458680917086449 0.9309689438977967 0.2082318452603317 0.3822371652376256
Ni 4.589834986217646 2.2890625716096107 0.48971907473720666 -0.5305509939860863 0.1455123547439236 0.19327573817113167
Ni 4.1541864797597245 1.4491851295692586 6.318529096999551 -0.3756201741417402 -0.2814692045889281 -0.5816791801204692
Ni 5.687402621034663 3.1884282254863017 2.809763939280151 0.3044931762879272 0.18177545084101598 -2.5003158061596875
Ni 2.160880296523075 1.8600791015753209 0.703686996808903 -0.772365817408186 -1.262214962799536 0.19364109193035037
Ni 6.2367341866022965 0.8439537930464074 12.909496160740765 0.13841379602592935 -0.20486164323651815 -0.8077971616326023
Ni 5.044567222656491 3.3970236126728715 7.557556606397308 -0.9271819660515386 0.029787772785393865 -0.02851764782371863
Ni 3.0270496502014006 6.526175360905352 7.131653414246095 -0.5668976509359204 0.8652474333302712 0.5262752494288679
Ni 0.8264304548801319 5.028162395437 8.314104522609716 1.2881486519461622 1.1826614314449244 -0.7908739035147024
Ni 7.876857880346348 1.1052729324504151 11.168466209064293 0.2423179883107633 0.4297056431322342 -0.829358689853462
P 6.131750657078679 4.932881833303588 6.159971194587856 -1.2163367122101827 -0.6455119583057142 1.624592412998757
Ni 6.316779064645776 8.239927454257426 8.15213769341947 2.121096087592147 -0.44126917960011747 1.7792144433534325
P 0.35941300972949486 6.625175087009963 12.279493719233509 0.1796416923274648 0.25739082348348574 0.8027516287888949
Ni 1.7459449557463302 8.730636158021623 0.42142730719379645 -1.2843231075524848 -1.380151979028352 -1.2296550265856436
P 0.6005630492708849 7.4344338672478285 8.283330281918335 1.2432733887000265 -0.8704711436230558 0.5786496492655261
P 8.49666023848705 2.962350926464819 9.703943210454408 0.27614393572127277 0.27720168756182584 1.4106205799308544
P 1.2987983408725021 3.6497978807945377 6.020800815253741 -0.4563998645939688 0.7568913759216706 0.2143562129905147
Ni 3.670713575206819 6.3078678004771636 4.6670048768645795 -0.6597476422891219 -2.275498802847165 0.4164852877872182
Ni 5.463000786970502 7.006380188206338 6.363477587112846 -1.0318027247874229 -3.1617374937171223 0.009335932688945212
Ni 3.394022505111954 4.808050488131696 8.801475184651247 -0.45568124126038945 0.036960636384749244 0.5207244948139677
Ni 0.6337621112246747 1.1598176020775135 8.977536172356109 -0.7515987600641637 -0.9686361194312673 1.010014168157422
Ni 6.353584058598375 8.064694072594673 0.9667322333530088 -0.3151223738669992 -0.551416781691502 0.42404484530203096
Ni 7.018136060461833 2.3890012945584345 6.449129749252506 -0.3785939120580835 -0.4550130115487713 0.4492082319415361
Ni 1.2319270362022499 8.265593367999259 4.797173774686224 0.38222456683213524 1.7005433146037745 0.09610526506570545
Ni 4.001212846815674 2.5014415637272753 9.63623785564606 -1.34789620431844 0.06100533603877881 -0.21889369584955204
Ni 5.57187839164218 6.519804911726964 12.14380038997841 -0.06312315371273 0.43618045222330043 2.3496396478266375
Ni 3.2335553091170253 4.463475469711055 6.298493481982434 0.28165329557527624 -0.8070980786830488 0.7552589825245702
Ni 7.756399314596039 7.0029003763719 5.232576484911396 -0.019848916405127107 1.004388080219896 -0.13326567616608662
Ni 3.5247087717830587 8.30402779765211 5.494114723579053 0.6158288294189845 2.1077952567181826 -0.008508294581327281
Ni 8.010582077984026 6.367761069775713 7.701698145494905 -0.705431774589798 0.2570702069192734 0.7229422726697357
Ni 6.982039917068102 2.874057605554523 0.716417768729125 0.20496988667960828 0.21643469278609823 -0.6239450307682157
Ni 2.32854646832364 8.279972907907702 9.550423670521516 0.5390885991434522 1.4221211243712861 -1.2788957658893265
Ni 6.048364054971969 9.020224625947302 6.0528279723225475 1.1005573657543175 2.8188682887541585 -1.3974187365286
Ni 7.0443635311399095 4.0254978828454275 8.465157814948835 1.376570432324681 0.1574075635196128 0.1835266292041678
Ni 0.2478445346895462 6.931821997605517 3.401596159070134 0.045045470275412745 -0.5565044806270545 -1.7399714386924099
Ni 0.8272985666684586 1.4944042717141208 5.972564915600559 -0.7235431394785281 0.1011579969982645 -0.9699844059290456
Ni 1.635833766985195 3.500580235227341 9.962732581889888 -0.3327246603297947 -0.7437586951944546 0.014821638393864798
Ni 8.729374956377926 0.3125165614570281 13.209016821756853 -0.34731104278440184 0.3564901381805087 1.7767844937557014
Ni 9.130713254616404 3.045010266309834 7.5532722031493 -0.37788248781335565 -0.6178589724751359 0.08057220242711285
Ni 3.6511695526552024 4.611358266823243 0.27520800743209267 0.665444435563583 2.135067976391207 1.2386479741128733
Ni 5.022740148954238 3.2699644514588266 4.933272161403535 -0.35019684897262915 1.061923198321887 1.5280467179615234
Ni 7.73723273195239 8.832618579984324 3.2107008623969855 0.10395330035521451 0.931877314644679 0.2282337423035553
P 2.2104446005352774 1.2985129594786726 10.489917630711208 -0.5322605204780253 0.9161812440656607 -0.8867765656512986
Ni 5.7668767362904845 5.629368933721714 1.105740589702239 1.4307587454416262 -0.8275126377836587 0.6242036837462411
P 7.351231382169395 6.676479296939384 2.805155490062374 -0.4886864925418164 -0.0230414552004958 -1.0122327730752956
Ni 5.547059416230424 0.2518352712774529 10.112061618259194 -0.2594492486744112 -0.671482928448179 0.3656628058187122
P 3.788778619589526 2.2431621964601227 2.6682497501760687 -1.0406331785948593 -0.5855934275732109 0.13245577867028155
P 6.697993371693566 7.108206110695003 10.0296296629441 -1.712616700828541 -2.067585517268517 0.5909096975798016
P 8.447270845651714 1.5119045952518615 1.7346843582969014 0.08565887292140087 -0.2517606217809019 -0.019915250866688283
Ni 3.7059535744190613 5.191612287290019 11.376298431168655 -0.9564292929524303 -1.23530631133415 -0.6646839032484747
