# total energy = -340890.939086095 ev
CRYSTAL
PRIMVEC
9.09262926167470 0.00000000000000 0.00000000000000
0.00000000000000 9.09262926167470 0.00000000000000
0.00000000000000 0.00000000000000 13.30798202151749
PRIMCOORD
 96 1
Ni 6.380788902868864 2.413365638955323 11.190322381934209 0.3128466904589451 -0.4432167902447915 0.8720639420314723
Ni 4.913111255192222 0.6373587540552337 5.929757215387499 1.3599204824728257 -1.2153108420488297 1.122804350077976
Ni 3.197168460179145 1.588482319062222 4.828774391689085 -0.47756724270020334 1.5910032641894019 -1.3154424546651087
Ni 3.4451335507523897 4.591595887121012 4.606983343495076 -0.3308775798187269 -0.0676565228067093 0.10956524722535324
Ni 3.7454630928166437 2.9691889685601 2.7482717220310136 0.13305561703780955 -0.22482445951169022 -0.7613054458289663
Ni 5.5159071071798005 4.804818041568689 2.6113458190959364 -0.1650367979300964 -0.5912154017456785 -0.460724974331884
Ni 5.409086899484649 2.973035150706427 0.6736047017855011 -0.4316604528657598 0.935164470036383 -0.2114863476418874
Ni 5.811908557750788 7.928227093778557 12.180902502037583 -0.3626235047717561 0.4860904496798661 1.9538242296839445
Ni 1.791602562482548 6.794667198227045 13.499351010225496 1.4094918656430502 0.29184000630029094 -0.009626981566802775
Ni 0.7598964805639569 0.14175317977073917 0.1340890026285666 0.19279108522522925 -0.3867185980477469 1.0950235804202817
Ni 8.43579584028509 8.822478081743355 6.842285297282161 -1.7832130229898644 1.7933585960642984 -0.32570914824391006
Ni 0.1097598547114814 2.510365807127938 1.3720659239809645 -1.2384867659446606 -0.09798217037344416 -1.669964413375653
Ni 7.19252428095679 0.8048458929525322 4.6712218594420865 0.5854661579667273 1.0802875597616879 0.18541227626265488
Ni 0.5024586889031389 7.789409923972473 2.3939065032310816 1.5106164383002179 -0.49540812753636615 -0.24259078235617576
Ni 7.801539491308643 4.254395733701307 3.642354496355843 0.5616135197188458 0.20237975735492886 -0.20134180300871773
Ni 7.875653511816234 3.868550014128294 12.606930368516148 0.10837945444736818 0.2425046504002727 -0.6776103815021556
Ni 8.466838076331332 7.4822972805343175 8.964455849455028 -0.10821978894105232 -0.8032761338337973 0.12409223719693466
Ni 6.771090010743769 0.9653462555821293 0.1831228240481822 0.4833781929550256 0.2242837565168718 -0.3196125484278689
Ni 2.2469796174526353 6.61499684548137 9.126932949669996 -0.21234303921522785 0.5899805008973129 -0.5665883472256177
Ni 0.28145869944844565 5.1585758727388935 1.2334033288710684 -0.9084885034070933 -0.845334753566744 0.3374331215490576
Ni 6.673271505944276 2.436224508732784 6.831519624324121 0.5412100163618292 -0.5810178923873864 0.07289463127719704
Ni 3.738898214543244 4.801044600455862 0.44534788497623684 -0.2054547967358268 -0.9070615411525798 0.13526599442556703
Ni 6.208419931360778 6.043034099068719 4.780094273544865 0.6618598035361182 -0.8526886228286541 -1.1800360780069354
Ni 5.71348084679573 3.4067899334685583 9.08928491851901 0.7351501275898371 -1.2169882297512526 -0.46705400187370527
P 0.3606264032584683 5.642421949695151 12.333198585351267 -0.25195216896641764 -0.12516824386993283 -0.7548028688237581
P 4.185182640325797 6.324860140736341 12.404689382338255 -0.6961107542991882 0.8113280576039964 0.03531050237583596
P 2.4472538679372633 8.492706606369866 1.41010039187242 0.12607378640333772 0.4231223334877616 -0.7269336532173158
P 6.771699216899334 8.071090483573094 5.678076876528229 -2.0501207848248497 -0.5881079664649483 0.6929845499653807
P 4.772566485840505 1.486417556432151 12.608367913190696 0.29329499357926264 -1.1105162767392422 -1.3292657337014462
P 4.508289218504824 6.511068093867854 8.202281665279592 -1.3522876485179163 -1.0658865538450095 -0.7113103448577621
P 5.236163277596122 1.1376061155399644 3.69032993573803 -0.8637075996469771 1.455365488246713 -0.9517393436759285
P 0.40561400468963116 5.758571194936712 3.494809311792645 0.033166459449639654 0.6198369221371131 -0.34447640154908415
Ni 1.0661198648675705 0.06772826702918588 4.60951200367213 -2.0709158671933303 0.5160075489542727 0.24387684815745098
Ni 1.928983096877002 6.738547490881584 4.778084802494419 0.5360143310935027 0.004559080125592148 0.16237879148195905
Ni 6.267394724271125 5.906062732987705 9.332688237028867 -0.22471493051701943 0.7432167066480555 -2.007508349470962
Ni 8.711038818420937 2.4547189165002283 9.934182024516792 1.390199078851709 1.405934744419411 0.7557564909862791
Ni 2.7520478909325963 5.438319702322571 6.894452438719802 -0.027964089313093778 -0.10800047384139465 0.20094148224650554
Ni 0.674217544992741 0.35393786522811815 9.158858989273265 1.3977954031417281 -1.08855777019028 0.6213644145252332
Ni 1.4679958896982066 1.1273314445580507 11.31211724063831 0.535165352829646 0.6651011932915514 -0.7092349503859722
Ni 4.5407044415583835 7.174648171974098 1.426362559174325 -1.1523272992377573 -0.40150038434261176 0.221828867218476
Ni 6.137015514351073 8.110416104809179 7.838800176456239 -0.658278513942763 0.5924065938403024 0.5366781899297466
Ni 5.336063994479562 3.1835113311394685 4.645697030786841 1.1442815461151454 -0.7348187123923473 0.3231863818220563
Ni 1.2664577637565113 8.00690561413829 7.1605591430480136 2.1582914656955214 -2.4965586531101005 0.06731919407194857
Ni 5.411723761949033 4.730222111714158 6.796120200371213 -0.8720397736617562 0.40751882262254974 0.9399163828990716
Ni 0.8379976189702818 7.3985450730879405 11.154523791559967 0.18469159604654645 0.8875723220797166 -0.34720691310636975
Ni 5.010311461206962 0.3953075095055612 10.455189676962501 -0.1531647290828588 1.2955904529361881 -0.5195525859930537
Ni 8.402353150133338 7.462129828996368 4.5202287498909755 0.8938370720425058 -0.1706556867787706 0.07596195734861111
Ni 7.418967118243142 6.28120642800699 6.8768600197677605 1.0768420244152488 0.28816589988281344 -0.38792187432722874
Ni 2.4416891788744923 5.654133256088694 2.3600510077142167 0.20192467209538129 0.2905382567697319 0.7539333217346113
Ni 2.4354516352518436 5.429272536280974 11.30407935643653 0.6051088718983191 0.08144072107499523 -0.11549986754223333
Ni 1.163047292006685 3.6122833531068306 3.1941951704348215 0.08509785821160828 0.536570717817605 2.125862141522223
Ni 1.803195664696654 1.3173583019483277 2.5652598280589194 1.1454089748513694 -0.522758751635177 -1.04302996096181
Ni 1.1463077616724344 3.6792596597022076 7.7398823727879735 0.41887898483037533 -0.4866720332149489 0.7246710824353841
Ni 3.9959104711580853 2.82276126812405 7.199684726441974 -0.21117575838000407 -0.23214233332934212 -0.6248009510106078
Ni 4.502469935824802 6.998296628881873 6.002019976592509 -0.78233141326133 1.2786111447693722 0.07531763889639287
Ni 8.321937937598788 7.215319502329939 0.11708033047036517 0.08501969667550519 0.5302596879979126 0.10919218015665065
P 0.5165368066741982 5.91220025768929 7.519861659496778 0.267482660501849 0.6636418351372054 1.3608941592400048
P 9.047147856338139 1.7428751626665524 7.813449017018475 -1.8319004608932388 0.6711980502179086 -0.7888558446434092
P 1.9496415503910798 3.517692731668913 9.908231660815568 -0.22545000891083108 -0.2992692088848265 1.1984765441003102
P 4.2826829031037255 6.273341303759772 3.6204367136992923 -0.34322376008890565 1.452664287265466 -0.36078645156301736
P 7.46562139860438 4.233118981402477 10.23771035352922 -1.5266236123617516 -0.005376948041197191 0.9143475332910317
P 6.740638795594717 7.998276709039319 10.303878325389826 0.3028134745926591 1.0314998488350238 -2.1568501052633047
P 2.862368760864949 8.653227882046595 5.645458887843787 0.42047204034910807 -0.5913565553092331 2.3052624072628425
P 7.261610077523675 4.155904374341937 1.3415774290522438 -0.2966158304223795 0.678251100409948 0.6703243893637036
Ni 2.6956554047115096 1.9344750449062726 -0.061499816035724963 0.04844961086095527 -0.718854218643291 1.8730712787045938
Ni 1.811242641527622 1.1836148192288876 6.817905230641626 0.4396912935900363 1.2064096829044577 0.4707926429805312
Ni 7.285914675341954 0.8483159345722955 9.183372717562857 -0.6530825715641203 -0.8120615933359112 -0.25772121023971095
Ni 3.1375208127089205 1.7231441573296034 9.244030556135815 -0.04850103292418098 -0.12949103961500277 0.07465249450856822
Ni 6.902051148931824 2.2920335950768673 2.378442668771842 -0.734256155020658 0.0030948368752398317 1.4641524904107235
Ni 4.306532869462628 7.223120978172843 10.41211152766072 -0.17366413458779126 -0.9696619895926204 -0.6276610461672223
Ni 7.35595519797353 6.28854417976133 11.324586872306096 2.623929818168623 -1.2523992622606948 1.0974666426441355
Ni 7.871052641447341 4.352587036297489 8.105598829865624 0.4674653783795111 -0.9378988382484105 -0.5751156679703385
Ni 3.2967509350410196 8.706892579511422 12.466105546185455 0.26529233771874955 -0.5975516283763515 -0.4006038406702713
Ni 0.33757386047931287 5.171269183084692 9.86516715045757 0.38872842938892405 -0.2658006448137358 0.25691388384706726
Ni -0.10265214647558593 2.5966912286343873 5.59528757851281 -0.2576268507536918 -0.9433056110862786 0.15185423780155138
Ni 3.7250865108073796 2.9352461838030353 11.418927446441355 0.15872371122787504 1.1846586643806114 -1.1871500633438974
Ni 1.2742592395994154 3.6003538236127857 12.318600369190682 -0.5333789503531846 -0.5079222008429769 0.007601209386025619
Ni 3.5667110956189094 8.596026151827818 8.076973414657427 0.5416350197143899 0.08871514324922142 -0.23326487696955955
Ni 5.685057287955498 8.099441301379825 3.542544705764281 -0.2669363010800757 0.15643980028970478 0.010927188435465052
Ni 3.0496041810946526 8.60726464150361 3.51326734904334 2.2160834370033253 -1.0714339660257999 -1.3575964623253394
Ni 3.7264504051855094 4.435166294578674 9.157701497577692 -0.4252614913179515 1.224551129700175 -0.1065727402559326
Ni 5.4565049606976395 4.873940208652323 11.306301595009963 -1.2077715962489908 -1.2701020788570965 0.028817438452324564
Ni 7.7070307035334125 9.236929212740352 2.402596328945608 0.4383787454261999 -0.7150122191893815 -0.25791301453554294
Ni 4.420745384687245 0.5335336584144559 1.2481197492110925 0.3730747820120671 0.4027393989560354 1.3872891042937656
Ni 6.074912857000214 5.728874668010225 0.1790293223879543 1.046898699888597 -0.08732803309370768 0.6579280725818798
Ni 8.23917682673385 0.05781275490017985 11.647039690446537 -1.0367469561665756 -1.6971607712847867 -1.75343990549249
Ni 0.47850688509733647 4.858264515933015 5.608462798205547 -0.3053760931135128 0.6558339090570124 -0.4217838171819962
Ni 7.44319897502792 6.618824842369322 2.463267806462348 -0.3069866321337423 -1.0331278713567498 -0.6223589172280185
P 9.060541299131376 1.7132695620319411 3.5420527945252354 -1.4159268226351163 0.017495071460969867 0.05125828395434398
P 2.1100264366299952 3.5386330566878037 1.2833764188857564 0.38590664366941274 0.3044039590082306 -0.08484717565338291
P 5.3742712223255795 1.2614295398158049 8.23471325506569 -1.4491560170018913 -0.06957970797135114 -0.17301133149514075
P 8.797909797678638 1.8097150798241164 12.476073795563748 0.0551146815859567 1.9570041700738232 0.6543691515860279
P 6.501793612096568 8.022708603666224 0.9795471238472202 -0.07530169805679289 -0.040305641597582195 1.036447422648286
P 2.2277396140918126 3.2791657901923283 5.869365790849735 -0.22928918015126315 0.19030688535079485 -0.1809231301430497
P 7.200998611359573 4.2523317068757365 5.7238164383932 0.30181177280102217 -0.1618745981520309 0.2013132637636275
P 2.6971920590442027 8.740798993751737 10.182388979026426 -0.7146846606466337 -0.12202841268937048 -0.02018727358115233
