# total energy = -381165.3613126248 ev
CRYSTAL
PRIMVEC
9.29428788591580 0.00000000000000 0.00000000000000

0.00000000000000 9.29428788591580 0.00000000000000

0.00000000000000 0.00000000000000 13.60312980205519

PRIMCOORD
 96 1
Ni 6.35758114098517 8.324419787030452 12.730012695397606 0.05826016919347386 -0.3041612468698052 0.021549958256633854
Ni 5.337960566054155 3.971681635878327 3.4455096837505597 -2.283802437616854 0.3680516177658629 -1.8521993203515907
Ni 3.3274573548059108 5.636669689310443 1.0966023744641324 -0.8358586957555089 -0.5907862846280599 0.293301678447482
Ni 6.517498660968608 4.538122020359938 5.079857257807493 2.8469295657667484 0.5173753758360767 1.6931902166728132
Ni 4.530826004250035 1.488954237990625 6.533216231469827 1.0667766697594467 3.119508409844582 -1.2384204314830993
Ni 6.409675625438685 7.1548637574689105 5.329162592997296 0.5428028147702458 0.2769726022701553 0.7150854956294781
Ni 8.201921070688378 4.585039586376235 11.543384917567694 -1.265900639181239 -0.21687615119889103 1.0166630409325073
Ni 2.1341915964591935 0.03194446798692754 1.1230985308031296 0.8573695732440911 0.3003254180634828 -1.5877477333665817
Ni 0.45167637464483995 5.0664558238853665 2.339969921908996 0.07577889480352756 2.239587947883169 0.9476073237854262
Ni 7.892263276123216 8.628398771604338 7.561095710751492 0.5906417886303956 0.5353846679293037 -1.3761397725451654
Ni 2.0412580103662963 7.527815653573491 12.520946980268729 0.5305363386980669 -0.2833335114911765 -0.08605507991855502
Ni 8.089534539731751 3.314575471585113 8.59380450209775 0.7381614036123352 -0.38301389550265 -0.9473998357603103
Ni 9.160989359051214 8.263412080348406 5.252141757454418 -2.0609312451767923 0.7907196373250253 0.4167583389429467
Ni 7.541552611293793 2.031870779447822 6.589397414373692 0.5307908779110343 0.2813437347546574 -0.9140279451680839
Ni 4.485720824401167 5.638658666950596 9.251298238202153 1.9469740395313309 -1.5977290129490096 0.4497049690722965
Ni 9.249452392597787 1.2562438540928387 0.9552251002590838 -1.0748411919351362 -0.8478865734543204 -0.11130022763858896
Ni 7.685892904525386 5.112443961097853 7.060324118403031 0.3727857900167386 1.5303054320887128 -1.187413344307613
Ni 3.337653188783699 5.522470772186388 3.801190933822754 1.4141527614538292 1.468100162204562 -0.6317100194256153
Ni 8.90841708161602 8.158581805566747 13.52061364821076 0.7100631027142222 0.5862436595627 0.21068390634525005
Ni 6.777794491763456 2.174268566479453 2.04577503435281 -0.22157509933645708 -1.162485470717682 0.921764137470077
Ni 6.720142023063161 9.126219427500706 1.337525191272378 0.9917367100044728 0.23232308188158052 -2.5693334709799815
Ni 1.5913401150182636 1.767522639068365 2.8305252328459853 -0.6825450997996115 -1.5360109671139224 0.4279876319998629
Ni 9.30116581124174 2.7279107163326097 12.535433987033707 -1.585726589171495 -0.6687678435098612 -0.3543077858172092
Ni 6.355294746127798 2.2638190317264844 4.519272274789881 0.35798343489658346 -1.9015516455324737 0.12537264657125505
P 8.43158292810967 0.8612338241874513 3.110641132882068 -0.10020463194605969 0.9361936826318458 0.040198940816388834
Ni 5.242777762256039 8.800612634662174 7.216827846390077 2.619693668600088 -0.4763724510611538 -0.4230873664847682
P 3.9563367663274343 3.58594079943333 6.8632415288416695 -1.046902813653655 0.03414013621681863 0.07147306833932207
Ni 5.651596315899622 0.5275335653253481 10.883837143806874 -0.21841444222028833 0.910985044576702 0.24316131014766512
P 6.825753018040019 -0.0022547942780414953 5.666016403790724 -0.02288076125291543 0.8151507737841962 -0.08554805837514945
P 8.521505164878224 7.095482551193531 2.0841083959371227 -0.4663999132294742 -1.1820633928496094 -0.351538193491872
P 1.6675718655067069 8.341279625531554 8.423193903726487 -0.5141671533114242 -0.5161379038845498 0.1695413706686693
Ni 3.513687004225191 7.517080750889493 5.303805916371769 -0.10367125033842146 -1.3328315966758335 0.8081054369016406
Ni 1.4692596416379047 6.807889396430803 0.9178062966177192 -1.7425960207994502 0.3882494328699765 1.6461891653329264
Ni 3.0497068510755225 9.280857791878505 7.03959227950526 -2.314690899665594 -0.9219651977372896 -0.2544566805558263
Ni 0.5564453071254457 8.583237826027242 2.6102097114758003 0.4953821593944372 0.18883955677664896 1.1999081343405142
Ni 2.3928702211354134 2.1734506691321007 5.503200924797008 -0.2562947622058296 -0.11948816276602002 0.8322290694227215
Ni 8.74549750659628 0.7987539022801712 9.16834671746217 -0.14032592544697767 0.38572872333065183 0.6463915326971901
Ni 7.985773108074475 6.040636624598142 0.24495467895917078 -0.1510335416724689 -1.3830930639345471 -0.2577230100119239
Ni 0.7485554525864279 2.673297479820772 10.2206162674134 -1.6120078914655271 -0.4415046926496913 -0.08559999465900742
Ni 5.831338552268313 4.147167088325571 7.666710423443565 -0.8974391875714672 -0.6018417711112731 0.09412217319740564
Ni 5.267909517111044 3.028478697196517 9.652277989314408 -0.6542357113319571 -0.21546641533555796 1.238685769329344
Ni 8.691005095828936 5.896807517208644 4.1673459170850755 -0.8438334864308693 0.581658868405495 1.2760169016796346
Ni 0.9997493871055709 7.788799261683158 10.501017502092251 -0.43668130311911896 0.22163706292264412 -0.969987491252839
Ni 6.473313615635511 6.901650174159091 8.0970861487627 -0.9567972178148102 -1.4338214435273502 0.3058877426426087
Ni 4.73912029347175 5.603777203943631 5.748479044979905 -1.5985805623160274 -0.6890373923921745 1.5767184721356136
Ni 0.8117268695237422 4.976514998540734 10.243347307668165 -1.5438404904606704 -0.42896310853925473 -0.9683674391509131
Ni 6.6663373896106375 6.304910410673293 3.0624316608284765 -0.5302504320265319 -0.483424987032561 -0.10800587315803337
Ni 0.7442410440791449 0.8673912900126882 7.127319205439217 0.18912597766881623 -0.8265824126599055 0.8195543021685305
Ni 1.9171142050414807 9.247268234908836 4.93858872677249 0.3492236864260824 0.07789876936000778 -1.128928460697843
Ni 1.4231599729689608 6.80756409634947 4.642163210087162 0.9505383813892919 -0.8862122085073963 -1.0306141037959606
Ni 2.264859991986751 2.6444201268864154 12.637947195807467 1.1431088659632829 -2.108585613829962 -0.21750504303214152
Ni 4.667730867051152 0.4233557495639651 2.179914846462595 -1.475604441001407 -1.575487170831674 2.41498680577388
Ni 9.277353845288145 1.5975672880037863 5.145669181976429 0.0021702681784414235 -0.5283077064778644 -2.4629841595887645
Ni 2.520926921724266 4.817331727312307 8.303704677851147 -0.3763915050901259 -0.9148455559733728 -0.20836194308029277
Ni 6.89346190639753 5.111105583620368 9.73597770024146 -0.5000499971837516 0.05196405177211696 -0.0917701280254613
Ni 9.085854334551266 6.5156955690892175 8.494080509164222 -0.04996501906421718 2.7458936961686455 0.11890657923093714
P 3.89668602569895 6.328294839377137 12.122415344625708 -0.44704233463846876 0.7701865503686801 0.5248891677146186
Ni 3.3700530768844934 0.0717993045230765 12.047108375797055 0.9889084965270581 1.6774069856966274 0.8375101153160027
P 6.534516502366357 8.658242730494658 9.359932665077801 0.4443920414998153 0.35623585607785746 -0.2515220234075346
Ni 2.069326760241339 3.802469827856796 3.765958146727949 -1.5211587325924383 -0.6628350229651939 -1.405574789976831
P 7.969266452518821 3.5185943883093045 0.9503121396021476 0.5257749127536816 1.1837484938615161 -0.8958841843795217
P 7.222014988544137 1.1032226958336664 13.07470252043595 0.034458438788185816 -0.4539015236521473 0.029086890063627326
P 0.27051582992153567 4.7147878473880205 7.865357241681738 2.5693573822393816 -2.4617582576014634 -1.1984333495672006
Ni 5.936029412729399 4.706729699658993 1.3398905875780731 0.4198937992481349 -0.10837482646167788 -0.845130093755106
Ni 3.9845449305230485 7.099163089256617 7.730386520221348 -1.044139649086221 -0.43990058138736493 -0.21426519593860519
Ni 3.9342907151010764 2.1043755204329897 3.697847745127192 0.2362954362657672 -0.033610231855277596 -0.024514183091280364
Ni 6.763695056809667 8.646067213164754 3.3938315834011514 0.445693019699426 0.4558411638770214 2.561184359510286
Ni 1.799141806973959 0.6727047679075465 9.848516657521913 0.14122066934710517 0.3263300696573606 0.5271062299705954
Ni 5.564006945428628 7.174456116653212 10.773964717764553 0.13375727109052446 0.4818684411787185 -0.7996801889524228
Ni 7.5235960468041965 2.569554636739572 10.533788232285763 -0.640563098940871 -1.201647228518808 1.5193862140730479
Ni 4.519431207115332 -0.06341028013989325 4.495712184042118 1.111739607623382 0.9022445793799108 0.19360483937577627
Ni 3.9840895104091816 3.7429677958369205 0.1491528755777177 0.8497714491818591 0.11728164203300447 0.3200966871531391
Ni 3.0634902802360156 7.737150903055472 2.7723996848845522 0.23383231943725533 0.16368491188789228 0.2660767812932579
Ni 8.317504836730109 -0.0119914904267483 11.475859126684533 0.4779133131857124 1.9846044482895948 0.3010646102223525
Ni 6.4204384109867965 1.3372528686328622 8.294808185341084 -0.48338076405818686 -0.047602689479627695 2.0423329133493153
Ni 4.259581502146313 7.982250572908037 0.4722567166475905 -0.3446854322360967 0.3070642794492131 -1.023561310714237
Ni 9.111980578226346 3.880114310127029 5.500452603824144 0.2658600372967615 0.48871503178690673 0.18719636474627116
Ni 4.110612653471749 0.8753992485863097 8.94200385029928 0.3757587566021335 0.34999630292604883 0.6770699356176533
Ni 3.4298711146976633 8.236644530798696 10.132890270908245 0.42742121797343163 -1.0475733573581185 -1.1282023811650956
Ni 0.800056961463112 3.4424091092610514 1.0847791106508735 1.8804847975598455 -1.4264549758599496 -1.0249823594314798
Ni 2.2823053706342527 4.513520039923105 5.831416624287833 -0.056470938503535004 1.1749931162663891 1.136668766764894
Ni 8.091133157274303 7.352311612550171 10.330597436625766 -2.007690383574781 -1.1102347409430813 0.6043825352552559
Ni 6.328471430849861 3.2342635286479466 12.888938514847379 2.0911694752360437 0.3452042808540442 -0.13901183462124447
Ni 7.74232782149269 3.9392724534894947 3.1287333939770203 0.7954473818179978 0.3979046965715535 0.430247374568317
Ni 5.154156725812817 1.578077165987904 0.5343499961724859 -0.5118318203100282 0.321008400334131 -3.41256531927111
Ni 2.403502886650992 2.326676301728111 8.24253060341322 0.39242259041105965 0.758529682856042 -0.7087415556893213
Ni 1.7926172167712173 6.631651106652472 6.999096137094482 -0.822960499636602 0.9697321807089234 -0.21506815145587477
Ni 2.8055830814669576 3.578068537465065 10.483796115786467 1.550142264308982 0.10893866938494788 -0.07224979860434654
P 4.884650255572218 6.596304929243603 1.8955282210730084 1.4430743295841857 0.6219796795117288 1.8144817511961588
Ni 1.8074787833441293 4.820008482267278 12.887415181037934 -0.40112834571517364 1.673257482304628 -0.6302010389802566
P 4.5004150937893925 2.8745002272694213 11.953355962928002 -0.8612917911166328 -1.4644697645408262 -2.889399562005501
Ni 2.6449684898806627 6.026416363899858 10.435627538600244 1.2320065575369556 0.6480069568134259 0.9875807788545701
P 3.105333164983513 3.0106522527394537 1.8936238214540029 -0.4530453462994391 0.022896959202831534 0.6339005993190308
P 1.3593268027233343 0.6170580065658727 12.504704282493357 -1.2763868834245438 -0.48770947334052783 0.4020719405753656
P 0.19464934495298944 6.141135761154047 12.018079525967677 0.23876729484502748 1.9112056236824697 0.8464994632988067
Ni 5.820259760926906 5.638528546918063 12.509111633881021 0.7496663189281412 -0.5987399922574979 0.7953352817201658
