# total energy = -340856.52776747727 ev
CRYSTAL
PRIMVEC
9.42661504783532 0.00000000000000 0.00000000000000
0.00000000000000 9.42661504783532 0.00000000000000
0.00000000000000 0.00000000000000 13.79680397935915
PRIMCOORD
 96 1
Ni 9.187263963916308 2.578028417455295 4.095816206576607 0.3645279208833206 -2.412422130370497 -1.196140696878282
Ni 1.1384805914105702 8.347823884882821 1.4590948552180416 -1.343181315341274 0.3034477657425484 0.546078400197724
Ni 1.6409191788612703 9.172341632135174 3.865533425097561 -0.2716948988109837 2.096426866980241 -1.3249257115651956
Ni 4.017500830578826 1.3760501463999235 4.8175678234572645 -4.089138260647688 -1.6147132062118321 -2.8892216416667402
Ni 3.9895037835857954 5.642800108137924 5.6653127504371685 0.37814808276991646 1.2457565601331964 -0.8036831394642289
Ni 4.970182837399279 0.7165009922425711 0.34879701511894157 -1.6723128590031713 -0.7615658985792045 1.0007695096307023
Ni 7.33106917489347 7.732840939166196 12.645999353543607 -1.7801297560788503 -0.2654694867265621 -0.4504310486050436
Ni 2.7219256977073574 8.690660451242945 12.549765867470287 1.8969303447103785 -3.538041324189449 -2.187044626568814
Ni 8.573949529081084 3.45593851291254 0.09692257164072433 0.35446899398542175 0.2271659631606733 1.2364568799988254
Ni 2.7090112349529964 3.970348901602684 2.9915749667108473 -0.6736516539647236 4.0556187887340025 -0.9514171844498196
Ni 9.358319322413127 2.638123089031247 11.841023922156998 -0.4937443666806981 -1.023338910290786 0.7510873676453839
Ni 1.3075092276503169 1.4788191047561623 5.515465390702952 1.0965708703027437 -0.8846816307954828 0.40740775096598225
Ni 4.250281665072403 4.069630012353731 11.296312621731364 1.7334444362071693 0.7031828306546212 1.2179855606675152
Ni 3.8325694945824322 0.5222288232948651 10.676449517352012 1.6395261514904538 -0.4981448097412388 4.558076109807666
Ni 8.237551340867844 7.171344607805952 1.106815648462997 -0.5522500762260747 -0.2842377684730008 1.6542179491746736
Ni 8.384625390425178 4.626827807205952 4.514838676572311 -0.7904887522611419 1.7818097148844345 0.08924633316234307
Ni 7.362544642876545 9.123455205971585 7.6803356354468395 -0.30047531337778577 -0.2519300574792306 0.6757180495754492
Ni 2.4390518303110986 3.959527147411438 5.44657851517737 -1.7307188097458905 0.3748647840329544 -0.14205859186736824
Ni 1.2542959851332587 8.390215373208633 6.6421957063300825 -1.5631515320844562 1.1552133625363008 -0.7398434193004483
Ni 2.760320301209923 2.9076017363005366 10.29136757520089 -1.4549394564528877 -1.7056389839591273 -0.8955088033179739
Ni 1.5920893123885753 0.6963553730072823 11.19320901853733 -0.8103335549012107 0.6481134004843032 -0.13426660662677523
Ni 6.431902062274848 2.722453588155711 10.893404950333164 -0.2830900280218028 2.653893454410249 -0.2363401734607736
Ni 1.2791916757422135 4.457120454675465 9.01285932905699 -0.10098470464519382 -0.8482804664586294 0.04889749703165128
Ni 0.5984184975765074 5.899317159577107 2.6961712424583135 0.07117070660755484 -1.0194282623824702 -0.35773326655899035
P 5.1283520129871825 3.4357561298781696 9.328516135957514 -0.23857163389445363 1.0501650293446947 -0.3509645803765891
P 5.752648454471189 2.945185650900273 2.6207715185261713 0.39509833747100986 -1.1154016298560017 -1.95080344057975
P 9.159304623383875 3.576486067440111 2.267877696463401 -0.6060462961109241 1.8894242661413203 -0.7302760873269875
P 2.8533704193473683 4.683029286725297 7.522376673376762 0.8266867994482537 0.13992380491255255 0.5678489591055963
P 4.78121691011904 7.474344298545687 13.433065158808311 -1.3433903460282863 3.3589243940172024 -5.115921420733331
P 6.913554963321631 8.306205378999241 2.6986268757046723 -0.2083758270373637 -0.25168348868606333 0.0827715240712768
P 8.629066947858275 9.490716132183202 5.102058355351606 -0.38413901024602876 1.0412710692891745 0.6657388268755502
P 0.243767554449932 1.7857119875525036 9.921378586565101 0.8817114924235654 -0.5548605172657284 -2.324362361317087
Ni 1.9087387418643065 3.0730105523230025 13.67940712185548 0.6296281971959221 -0.011357076884032055 -1.4533546284642713
Ni 8.797058656431613 0.16545029312912227 2.7808976594190433 -0.7262898489857299 -0.013212642035532084 -0.06698880731572333
Ni 7.74061789666426 4.525548254043282 7.018848369214817 0.0010680362531981606 1.3572249379185335 -0.3868450963232822
Ni 8.263615931755297 3.5664750021516936 9.054000848214024 -0.5424855406401431 -3.418037655239591 -1.9458885197766358
Ni 4.871599296169271 8.3866238328368 4.007447345522238 1.2658052512539557 0.28701430277687345 -1.5558719677039075
Ni 5.803589882737297 7.128462935492384 8.819428014180591 0.7749091526553299 1.4173003059438753 -0.54393487149216
Ni 1.4997744702327647 4.3927555264369404 11.647027953033161 0.9660578171811299 1.2992123659594916 0.7185433722710916
Ni 2.3735839881001213 0.5797566275656978 0.22851811912312156 0.12296917933608499 2.9029258786267103 2.3504114929956557
Ni 4.828698770625403 3.7008514011030957 4.238930135109773 -0.7123069044430764 0.8092837734804578 1.5949398802396468
Ni 9.337722168312192 7.679750242646076 4.238626598101971 -0.46833981056466434 -1.462417252887172 0.11496842051879556
Ni 6.598649457648497 1.2780133488485674 4.029190776025311 0.7245291575408812 -0.31940917416781117 -1.508403232698983
Ni 3.993953145936203 2.8537192041078874 6.749451733497326 0.6543622096074925 -0.004839587480488439 0.7559493237233755
Ni 8.692903985648448 7.295625101932595 6.630702777140216 -0.6639735074450113 -0.49434471926885826 0.706083292130868
Ni 7.148720731447947 5.361085714405013 9.955608511494763 -1.0529716455555542 -0.1001149004457308 1.3721563624173851
Ni 5.2903295410953515 8.506040193546472 6.5710869776138425 -2.8997734490406577 1.154958051992385 1.0065485782063244
Ni 6.704105001322248 5.9395782328792075 2.7558699961979998 1.2410293298608563 0.23366005552544916 3.365551412415417
Ni 3.416111063907301 2.187408338904036 1.813120813760227 2.531749856299253 -0.5501445998472977 -0.18223644963783453
Ni 6.849114622161913 7.768482971045202 5.364059811484576 1.516799427182478 -0.9180969730311349 -2.2339124947649465
Ni 2.982713005809114 0.6584584947845936 7.035183750606812 1.113182767827812 0.38915471829306525 -1.455586088897951
Ni 9.198377943177178 1.1895351390584685 7.075014970258111 -0.9643421200416038 -1.989494429392045 1.997033418081567
Ni 5.0013943601581765 7.353947569860502 11.362965389466591 0.11270096464085752 -0.2642469271733707 -0.9262442847286178
Ni 0.9284622045176925 7.650763401062382 11.266277540543081 -0.2860167147502945 -0.28526183886214096 0.2554840933790761
Ni 4.14914351113697 1.5569845975730707 8.900042541613253 0.4506621907792432 0.8777234543100949 -2.297603605166004
Ni 6.983962351870774 5.144367832125621 0.6369469590141904 0.008076349250231252 -0.5713490018390547 -0.21389649974527677
P 6.187809289602271 5.120254550574048 5.2824102417085355 0.8980151146795953 0.46846090952356095 0.3560188549710449
P 6.310006501780947 5.061960362491586 12.462625294369854 -0.5548782578775411 -0.7189326372897102 -1.419571104255923
P 2.5572427310513777 4.821421423730245 0.9904280592007539 1.251912038211631 -0.39058682275390155 1.4624203382109653
P 9.153610947833776 4.4121272205684825 10.569579981405886 -0.07342864940379612 1.9262427205212502 2.147371219238592
P 0.22508683120882408 7.424911128703445 13.420565467120513 0.9240192520528409 1.5862444093481778 -1.3329519243037817
P 3.104354047693989 8.069352246761225 7.321039256374753 2.4632433267874223 -2.0584706994514423 0.9475613010388391
P 7.787487027185927 1.526536630641255 13.368840687135508 0.6290766955678262 0.34588716585368173 -0.7895713826531952
P 2.305872611483641 2.3337659657100316 3.972734777896939 -0.8005980727810018 -2.359628126497917 -1.6090336393285514
Ni 1.657274356145078 2.2751512727125 7.8684003783188174 -0.22686874363522863 1.2743009474297926 1.3865527403483735
Ni 7.6173931834343245 1.0821565658942862 10.10139865606878 1.349483860520534 -1.3647382155764431 -1.3106170082520074
Ni 2.898919823748152 7.805133650745171 4.958999101186304 1.0507422420044032 -0.3372343752746902 1.8557795815036813
Ni 1.8071009773259679 6.611592200248306 9.345541545578428 0.4094317233745464 1.2940786442773518 -0.5941096925743381
Ni 6.114375957590245 0.7121864304887965 12.030895747153071 -0.09096331585344979 -1.6795147760682492 0.17513043472067258
Ni 2.8957524810580315 7.102747129365451 0.6561197515660848 -0.21633827641755002 -0.5525298122500226 0.44651731537293415
Ni 8.942388782186349 9.369593554131534 12.258860523966936 -0.026432483159915764 0.6343410292905591 0.23796048267301598
Ni 6.193578378073562 2.1943934607295703 7.795111273518575 0.8359908504579989 0.10558132287694075 0.1575757136663609
Ni 7.732576993942018 2.403390945201793 5.938475318906755 -1.8180442717364367 0.29861023514458895 -0.8653741887161225
Ni 4.0551413048694585 5.326442903731817 13.355305953104333 0.8095511682092316 -0.0612858433936751 -1.4491961262112074
Ni 5.380579954533494 6.874132858767807 1.2682615154767525 1.615927281124591 0.9546776003686461 4.205082157705874
Ni 7.003070100778139 9.227496757372961 0.47208017336280167 0.5847537052807349 -0.4281228720261465 2.0804556883629655
Ni 4.073419511643697 5.747312990296758 9.373368913498775 -1.4024375298994298 -0.8766255932602257 1.2724479533814539
Ni 5.927153954112603 2.695804547129011 13.201141203631794 -0.12314967077800724 2.5289059590925542 0.9693879099956272
Ni 8.480465786646777 5.8854034756169336 12.296443495905157 0.4049271506359736 -2.1841660194694383 -1.0028968403863503
Ni 2.546138178405657 9.184671644750287 9.154731772375012 -1.1329810335006616 -0.9961525796839812 -1.090612852947096
Ni 0.8570442828245594 5.546450674698269 6.726314106613691 0.1307315968903232 -0.7242779607620236 -0.42970615735286644
Ni 7.771292102359655 7.942017529326252 10.278288146681417 -0.20004262458132 0.17694897598665008 0.24607437002940202
Ni 1.1747447798894226 2.07406271835043 1.758554851969263 -1.7974091119845883 -0.8472826213217343 1.8443178607209851
Ni 0.776861494365729 5.41567524273385 0.21161714082217672 -1.3815917967986722 -0.06799616553431514 -0.07789234160210456
Ni 5.165106385453792 4.950188986667891 7.527177648472233 1.5135109862391936 -0.7893512962225889 0.228185148453807
Ni 3.5711977363414276 6.39525138257488 3.103246420413962 -0.4418510202455164 0.1526386813760597 0.37711501351971183
Ni 0.3225514332206256 8.703678606763948 8.908941266314068 -1.4118202566659104 0.03434068226339892 0.20901757438642066
Ni 4.7326038557947765 4.782715741927758 1.8418870725494307 0.3976247034372894 -2.2290022019475226 0.04689537899995795
P 3.857634864264072 1.910888010118317 12.760526128975403 -1.0134072529993707 -0.03015389787556097 -0.8901796777955765
P 5.821849236281237 9.222029320586444 10.101468413020882 -0.03101855986870142 -1.062918215245305 -1.2768093156739428
P 5.588644204105949 1.362004489827662 5.8221273214281375 3.9249136742062403 -0.37934390285023056 4.813611625249968
P 0.2385291844115389 3.3380115573964373 6.128581866620043 -0.12081819443135319 1.3194821719521213 1.0179730179931823
P 2.767277143190009 6.210140940890652 11.474125920628621 0.8441661871799399 0.6001515278930438 -1.06905903803572
P 3.1577463958988816 8.547225075133191 2.352603170762616 0.1884613475016238 0.1723598139540709 0.4446434953889891
P 1.6070493506303063 6.167146149195292 4.669942316913706 -0.24931961643957706 -0.8979310396062212 -0.49577425262653324
P 8.157575937942296 6.6086039632460185 8.61313785357921 0.14240877611793537 1.1414985840533696 -1.4130006501272567
