# total energy = -381175.83156332775 ev
CRYSTAL
PRIMVEC
9.10671162347957 0.00000000000000 0.00000000000000
0.00000000000000 9.10671162347957 0.00000000000000
0.00000000000000 0.00000000000000 13.32859298148782
PRIMCOORD
 96 1
Ni 4.688663347417989 5.147778215323465 10.149604073681061 -0.9698337392837943 -1.0730473332595067 2.655386751126324
Ni 7.733364894101424 8.570062240497368 3.3085302685938984 0.9535679122442352 0.3100331322695499 1.11463466978299
Ni 6.309220899208435 5.608923879927204 6.480548197519773 0.1171551437574692 0.24120701463477168 -0.6297307842120574
Ni 8.59753718954965 4.960862958678421 10.390211591551612 -0.7031720320213438 0.18723750239685172 -1.017620776860086
Ni 7.986850212918223 0.3826184900336923 12.385488471689323 -0.7780289292312343 -0.4112124694240531 -0.27943597620898325
Ni 5.672488727253996 0.706907581268984 3.0930062772959723 -0.327450556415049 -0.7635273931809495 -0.012922878709255162
Ni 5.506282132904242 0.004831110531069232 9.031574905580657 -0.3914939079492032 0.1121314652906327 -0.361361607340197
Ni 2.376296231605418 0.013110932764524737 0.9703310545109594 0.11150591589149184 0.36848433442790735 -0.4951024233704892
Ni 3.2432369673956702 1.2352525818195905 9.971800082043243 1.069922671587596 -1.403139441062461 -0.16774828332398853
Ni 4.446898366496544 4.297074746407664 7.195160967517009 -0.6223401481749411 0.530346591284764 0.4702776510173256
Ni 5.377303775785423 0.13651325033918985 11.518383815089345 0.4577692341376697 0.3227032715380507 0.5544668813717355
Ni 0.7049942611510244 3.0550285576961267 6.506152627998857 0.5174964747949733 0.09552702396473227 -0.7082311917118062
Ni 7.318189909913966 0.8244005536530539 1.2308394693533207 0.026654369362734742 -0.3861634968752253 0.7478986855047571
Ni 0.8911946409314334 9.058682854153389 4.482005650583868 -1.0128403247523072 -0.8661432056716631 -1.0186988404156134
Ni 5.768491681483086 4.000833416387528 4.093144509713138 0.1736088558698236 0.8223542335111708 0.39818366126455296
Ni 5.573016115885722 7.242932044826773 10.365460459954262 1.3987906771754621 -0.8215726181501398 1.3533600556464886
Ni 3.1005621159531414 6.274843062724388 12.063843058846432 0.7501360594757082 0.640831007890277 -0.9890799891079158
Ni 3.6734471325195943 5.036439558673412 4.956304138825728 -0.028953964030188843 0.5033883175283652 0.6007020010798751
Ni 6.056892132771363 2.948725912589301 6.41750425409944 0.4879622127812822 -0.9287894197479747 -0.05957014625414902
Ni 7.335893357364294 6.0251097091079675 8.76093709536844 -1.1586172460115272 1.4289011234075972 -0.9471874626391881
Ni 6.373423216350825 4.026432382839621 9.214003285395055 -0.6215798729701488 -1.8983801897830275 0.04855708297309702
Ni 1.2528376420184495 0.6720188582612945 6.580966085557462 -1.8235610877896078 -1.583949442666414 -0.835041342060536
Ni 7.751350649612944 2.8526136778203948 11.67176907010509 0.39351170971018035 -0.46783741700694914 -0.6072516292729349
Ni 8.058010057762285 6.808113883607239 13.004241262830398 0.07662838728801642 0.4988832305691602 -1.576437450560085
P 2.3858218519927856 4.52755651159302 6.677718522155462 -0.4338392056846334 -2.463154880838674 -0.9910335132898609
Ni 0.4868611969649709 0.8570116880767276 2.1112089621447314 0.2030140485048181 -0.018835387538948208 -0.030774305068379252
P 6.036921114119837 7.807347819557421 7.068819003421271 1.4361115251131074 -1.2226924792248814 1.2859380174480886
Ni 8.403664405202933 2.6583493048726683 8.965997474978906 -0.4549556759482745 -0.04106283147858089 0.6291988229679873
P 3.6512996097833823 8.378493454198455 12.638904579497572 0.09087718389754672 -1.6789704735290052 -0.5110826008488295
P 1.4875813482566618 8.928557051366493 9.509471455595989 0.23075059518813806 -1.6419157347685531 -0.006331341534666515
P 6.833330368169974 1.0810030998681284 4.899870757393149 0.32312570378745 0.3347452903042493 0.5276883277263106
Ni 0.9342666550290737 4.480930147937837 8.373608614068644 -0.11606371046550333 -0.5779649644936756 0.17078681303999618
Ni 3.661808755029101 8.225728366246171 3.0117152157397244 0.2311187771608342 0.5063420008400505 -0.8032090280412877
Ni 3.3657040256837365 3.3250061313136166 9.06914828718318 -0.42482568933211357 0.7886108185121385 0.3717650620617081
Ni 4.943041123976625 6.355792622593709 8.373901850183818 -0.4519963362096344 0.989032423699432 -1.3521362105417165
Ni 8.309473686592474 3.127372275054871 0.7938493574049273 1.4196217549882002 -1.9527690489465532 -0.0997531462309379
Ni 0.20534724102748372 6.486519468349598 4.476395005535438 -0.4118310768446585 0.9696910430583429 -0.8285421074894376
Ni 0.2669441279664077 6.908296818484322 8.730788415775308 2.3114397397181485 1.0304454394285802 -0.0040955102256123015
Ni 5.786067634970293 6.89490995235676 12.854468640326763 -0.859560667358139 0.49869991091376054 -1.6650590056542356
Ni 1.6758808250727193 2.1405507870855516 4.368806492743435 0.5234591201363114 0.3412797489886574 -0.36110064036932643
Ni 4.440869723383316 2.0171821643439967 4.710605058470879 0.6729152900193314 0.2709906736551075 -0.39017801735125707
Ni 3.9374233831588095 6.714023338824945 0.9677201602805021 0.21222888223486677 2.295091894487744 -1.1520552765232932
Ni 7.07939371699088 4.90685105187395 0.365323023265348 -0.862695613442695 0.028872717170292213 -0.6381565463819073
Ni 6.997533485956419 6.1952959364493845 4.1288382660308125 0.18037548516969582 -0.556525306562661 0.04771298980524686
Ni 5.197391580400308 2.519280711244095 10.970605091874646 -0.08021173376390058 0.6154035689561078 -0.7672974017463431
Ni 6.411926393212957 7.5855811774224575 1.5990975857839156 -1.9371297997473993 0.6923880540319624 0.3107180741517165
Ni 0.6873345259166238 4.46660529051018 3.6406921120518283 1.253987689793737 -1.3114567305444833 -0.16480668419716132
Ni 0.14578388280031798 1.1097894153982129 10.61461189469616 0.6131718514121116 -1.4946131208934261 -1.2561702992673527
Ni 4.001452672779823 2.5961413575819354 0.8187944619604501 0.07031787168895633 1.2040139289787715 -0.5003279334354868
Ni 1.5780656352250009 1.6859710615824737 8.518383473217986 -1.372441754868288 1.2945522414796606 0.07222640156557884
Ni 3.532466129444226 3.5725083405754443 3.2265188661460247 -0.4138571061357517 -0.8338450077595898 -1.3653491096875647
Ni 3.247253027233939 9.23875897034823 5.279642489364614 -0.7760746337183408 -0.4060692346602168 -1.275093875644733
Ni 2.8351561115846553 5.817968445885158 2.644606366319536 -0.7354373198129528 -0.7017263007137527 1.2634694040319272
Ni 5.126422976500924 0.49156208151942504 6.622618363308649 0.6715893721190562 2.0874344336736437 -0.23783012774273882
Ni 0.8236738380632719 6.62551520828496 11.213905464380515 -0.29094294840731827 -0.2933695555709399 -0.8218978627000426
Ni 7.913413690161311 7.574771510692243 10.563256415680403 -0.3574381039160748 0.5360451843314381 0.5079517685293318
P 0.8899825376106317 4.951692500045458 1.5163940732505352 -1.1728115352340382 -0.724942590929216 0.6500196163680805
Ni 8.197360959452052 6.502893335898819 2.084338698746102 2.288801690603658 -0.4316370558269921 -0.09267052835254364
P 4.98157162097371 2.007456196300298 8.370983149099544 -0.5611869737043884 1.0677290063703868 -0.5716901872285572
Ni 1.414891575855164 8.576655499732983 11.949110330763904 0.6245458975770083 1.5751570411857647 0.4283000210339592
P 1.0897819699000808 7.392874052167121 6.519281774186684 -0.7059750486877777 1.4760854944028836 -1.113220305933967
P 7.15236579745357 1.1085144757670164 10.27053391904237 -1.0334711136287815 -0.46102270807796086 -0.006924237923659042
P 3.4337220550080643 1.4120776019548804 2.4169804659080603 -0.43496740575180565 -0.6654112683328024 1.5371142274804301
Ni 0.6743866032906592 4.508332243296908 12.280952528642871 0.688326482368079 -0.29327185365081104 2.290395003232707
Ni 7.869956462160816 8.892212165165745 8.46908155767962 0.2746470394607722 -0.19355238887128604 0.3121933731456623
Ni 7.914980044565352 7.698713856267836 5.952376224490543 -0.08542824496783352 1.06045664107869 0.4146299797460343
Ni 3.1248041823691755 8.843491257830738 7.638443817216522 -0.6007256552289589 -0.13564394659027607 1.757639031175502
Ni 8.283000475821845 2.1352415741927837 3.425888461645528 -0.9686734004271059 0.3711955627114833 1.0965443879401824
Ni 0.780766655446522 1.9497014310071012 12.635212718594092 0.919218745340404 0.2627610866564636 0.9723089402971642
Ni 1.7964719007605963 2.913400978093509 1.4587877473572561 -1.8421956721716595 -1.4847588538071654 1.027089892692786
Ni 2.311083069469722 7.168056661628938 4.569241573506151 0.7054903957418753 -0.5205208634435938 1.0362005967448025
Ni 1.2272113554314017 6.564727908011846 13.506663097994121 0.5595787486770041 0.678034870634084 0.5257299184483591
Ni 1.0117101309126038 3.196027774194798 10.43055705618082 1.8805220785556842 0.027863559179487497 0.028781443008066565
Ni 2.2959386079934387 5.525479081065399 9.868850528166465 0.5143201339495207 -0.5107632698361978 1.0434068846852544
Ni 3.0450567084378406 2.07932636465317 6.593668126968839 0.8927502667362301 1.9193313381133978 1.0833245468157988
Ni 2.5368202378846965 6.304740397075944 7.656410448633574 -0.10497788496498694 0.8115345171878475 1.3861902148026322
Ni 3.397513769482087 7.826244246234082 9.956738491642989 -1.1840290012164125 -0.2633267293519465 0.37078418620567755
Ni 4.843003896485964 4.6713970221269285 12.717143981979435 0.25291427576937087 -1.219364700403229 -1.6884264767355825
Ni 7.736106014308496 4.354829511700861 2.542895325227348 -1.0000246610448777 -0.26834552272277656 1.6497087484504105
Ni 4.112918823392994 7.182153851265309 6.283165686502605 0.16470255451912924 -0.3537246596202295 -0.8323511968228826
Ni 7.983407875913993 4.148990508244201 5.31197769042525 -1.6153405553831859 -2.369675997652222 -2.9317011509871898
Ni 5.516709317745098 8.039049884104065 4.646094023803506 1.0897597609181813 1.3629955218537235 0.7578732802189657
Ni 5.957738256310889 2.687927904316425 2.1682952948027157 0.8475111923927727 0.9007906205422035 -0.2899242773348168
Ni 5.1315955887189215 4.8774181598166155 1.6803094189487964 0.15200413311585434 0.16995274717447503 1.8514873818862307
Ni 8.001093109941017 1.592153718149721 7.012332803061114 -0.32851782133729873 -0.6841546103785766 -2.2818278303889863
Ni 4.795321154279218 0.2948598418626181 0.8836779611343655 0.647537216265859 -0.3665624348148461 -0.3307881054287142
Ni 1.2187147934606428 7.628082200699555 2.3489779179935395 -0.15473310201124318 0.06489053002579791 1.4309947727118322
Ni -0.19348392775920117 5.514551027083716 6.569037203965289 1.8663128769348376 2.8382297239999055 1.4642229386373427
P 6.861916336043727 4.76657126559574 11.52286158520834 -2.3425632005958303 0.9495940151981517 0.025212494709885614
Ni 3.277478203204945 1.3157285926830378 12.220733487176801 -0.2672366059293139 1.439986434687481 0.8037021656276223
P 7.706418134324922 4.118009475206129 7.549514956598242 -0.11836613334643485 -0.937507773457579 -0.37286857953853203
Ni 6.002734518580471 2.2145428192532 13.194480469228203 0.8702754826724819 -0.05274746690536077 -0.6997768902968657
P 2.8179808534101096 3.7447982183083357 11.46521610045496 1.2211991825088067 0.4828464888212716 0.42587289964970526
P 4.928579665874197 6.344126924968262 3.6149674729789454 -1.3067711521433558 -1.4777636534362548 -1.3582556931758931
P 8.96137764015815 8.36904979421595 0.6983773244651149 0.759627029685279 0.9394746673759627 0.8452751039734023
Ni 2.814593156675788 4.65556955727679 0.5213082444575675 0.04630633926570734 0.26885434403839503 -0.8477983846158883
