# total energy = -381175.2117201127 ev
CRYSTAL
PRIMVEC
9.21182819601944 0.00000000000000 0.00000000000000
0.00000000000000 9.21182819601944 0.00000000000000
0.00000000000000 0.00000000000000 13.48244171073980
PRIMCOORD
 96 1
Ni 3.8876124750770114 6.455667444882091 1.1930837135525747 -0.6255139179172323 -0.160879067007981 0.1540802989185927
Ni 5.719448943989654 2.9367768068093913 0.4859884066963914 -0.3031628875122779 0.5625337175402699 -0.47555818268997446
Ni 0.37744543806467273 2.167156217801991 3.0240846696709465 0.16923180984805047 -0.7367041023405183 0.0006152649864957146
Ni 3.546489274584677 4.257633179821038 4.480484800192903 0.11702041795181782 0.2992756366427297 -0.8497066573821948
Ni 4.514633967553901 5.368819137061952 12.49978726466101 0.30500662558923597 -0.8396736986262248 0.4813004844903905
Ni 5.708910612824867 1.0151434391254683 5.436456983720562 0.8632298886796101 0.16999337060442335 0.6599127071120764
Ni 3.5651155906818794 2.1705645941402527 5.59569816860973 0.846414102673852 1.2765329220841048 -0.1494523132282781
Ni 6.6911494025442 6.508497278125145 12.401203203216575 -0.6630214279443872 -0.4381308910814519 -1.1324881530246433
Ni 6.657314358515998 8.241813247206148 4.247104060484193 -1.3140247483819758 1.0500238757811402 -0.42425181910651455
Ni 7.32112789179023 7.242403610204329 7.817645417823467 -0.009037684722236048 -0.8898325788688028 0.8831214853972145
Ni 3.0778467399016547 7.6138429364513085 6.7479486124471375 0.9936074446646244 -0.807440549624132 0.04677170893790009
Ni 4.301914436734615 1.0972392497378656 12.948415260776086 -0.6608699288190232 0.01063948199171716 0.7487731176899105
Ni 2.814443731749625 5.800651207291751 8.389947731146552 -1.1308932977336976 -0.5815843064138178 -0.09253143167151806
Ni 5.5737270377870605 8.241297384841436 6.490757139875891 -0.41705401580649465 1.7828996055145037 1.9956514501323757
Ni 6.610205070424459 4.237394793834118 11.001429100232262 0.13811014874258148 1.2735908087366452 -0.6770015442735631
Ni 4.2308543959958325 0.1595811013402001 10.79928751143791 0.5283879248964964 0.10495217393337408 -0.6289463406375491
Ni 8.172540301087967 4.083842833881464 2.4163361636127343 0.28745987495472425 0.48588141899285353 -1.1100187682775335
Ni 4.630988566279798 2.950612972377145 11.504284363889075 -0.6372373770017477 -0.24770367810270885 0.8388116077362457
Ni 5.855645820100997 8.946951040624816 8.707472992001794 -0.5685423856281949 0.27306144014120715 0.7031378363492987
Ni 0.43832088183161233 5.408236548822551 4.067692657134869 0.27607554437718257 0.4517099153174672 -0.44921774502323286
Ni 7.644306451453014 4.326067849596566 13.22088178643951 0.17867367198724068 -1.113224933919657 -0.2883918998506904
Ni 8.542284650993755 3.1774910827421285 9.877209327637276 -0.23903057580874318 0.9539929155967957 1.0131899947822423
Ni 2.2017558435493165 8.297950126680108 11.642195561180287 0.32629561687499936 1.5873990917779115 0.4027990485493772
Ni 8.110480216247781 7.135362169527034 5.5679650394098115 0.9292316494917158 -0.13364028589668597 -0.6527185033564823
P 2.4790502882367473 1.558401780132595 11.305067530466072 0.9357545382118981 0.1254137842218356 2.431956343748683
Ni 8.443045628582697 5.010322429072426 6.4638871589540665 -0.4353240177602761 -0.2676194431900294 0.6556341343413805
P 2.6723973448955896 2.0552140846599523 3.604005164701444 -1.1140978234429133 -0.15265385088471128 -0.09274071946884674
Ni 5.834569157771424 3.357444141574397 5.573614653486177 -0.4274428152399865 0.7912531412309921 0.3038779113014315
P 3.096242760300326 4.983635763526633 10.906714927705943 0.7752655075534842 0.2525170403309522 1.2740973160594187
P 6.283056212918996 6.438708469642255 10.154610629528825 0.22419711034033643 -0.014230284666769042 -0.7407232508022404
P 6.9790006020523 2.2906315595264717 2.8631448237094124 0.9781232329860959 -0.7938918644054198 0.782135238090124
Ni 1.5782164220342183 6.407277712706718 10.197498136874891 -0.9508150320894463 0.23235187823698691 -0.1829805268927107
Ni 2.457494610854228 3.9943683490881283 13.43199016855187 2.159390869407287 -0.835113075838736 -0.15251115465925993
Ni 2.411251234589166 3.042132482973438 7.376984731694778 1.6174239202747756 1.7434162027079005 0.9077182008999722
Ni 1.1491479001867948 6.501109392116265 1.9398405456097987 -0.17135785505211776 0.18323558032631024 0.11541836357202057
Ni 2.754014140455042 8.581140141249938 8.87284833311704 -0.6668462010071161 -1.8369871313875268 1.413636483939043
Ni 7.247921495141137 2.493789212942743 7.2731840120872135 -0.11517719409549196 -0.7270647794785413 -0.4002559704125494
Ni 1.5190949103072922 3.9513859599142678 2.1634060826471093 0.7681057565802514 0.6535687671719196 0.5820028820084752
Ni 6.219420905500859 5.4234360649256095 1.1729844261675668 -0.45035160151735987 0.42979588885319525 0.42422970761932743
Ni 1.394560208369568 1.2566222967773288 6.2484915921178485 -0.7238267321572179 -1.6543529320906412 -0.4665459518890352
Ni 3.62825345939119 1.8990367537440431 9.403746243392598 0.3330794725660522 0.3673875018193028 -0.46673518508170586
Ni 0.3276407691175243 2.580039557956643 7.857526184529509 -1.4561383618569956 0.4648523662366962 -0.0018501658348613298
Ni 8.475655499494714 2.9008967369782326 5.2416765666340615 -1.5173601847819547 -0.3773181306694534 0.16191804979545663
Ni 4.960910183995575 6.606557186559725 8.27199027435888 0.9971370550844375 0.342612608867468 0.6035345854326638
Ni 7.844184694122201 1.1421469109514468 9.113672229802276 3.8212064284235603 -2.9377494140637985 -1.0671091133982011
Ni 5.939657690925174 6.234979682893626 5.810163340823882 0.5837640876739559 -3.0908658064072254 0.21219725766598294
Ni 3.91869318255078 6.9251851032195315 10.711260204814144 1.2829511669056228 0.2420526504645186 -1.542198326871557
Ni 3.731941794697871 0.6721806365932671 7.44257755255043 1.3433165553675575 0.8927183850570302 -1.7408882940797243
Ni 6.1106568529985505 1.8999763601940503 9.780554222963739 -3.126913958280034 1.9911561333651837 1.178367689165577
Ni 1.9109937064117821 6.14255741315909 12.670569027594974 0.7231939836692255 0.5441498157164434 1.0165123742872557
Ni 8.543970415507005 5.7810760729165995 9.321516861275052 -0.5559095273555329 -0.1707194501371705 0.5056159213073035
Ni 7.458061714136873 4.843588343335847 4.44787124454971 -1.3419767535102114 0.6861978660608504 0.023748508569849426
Ni 2.9590786422551516 6.552962771597547 3.8603334889945953 -0.9253096887294902 0.16830415582745853 -0.29860457871763413
Ni 4.16696115739534 4.887731422830305 6.7517503338384905 0.5302355196281965 -1.0006137007791285 -0.11142981123791776
Ni 7.450185601247107 0.041092122080316595 13.244246666829687 -0.504955404905169 -1.0658490157388547 -0.09476623453930776
Ni 7.675073956776781 0.05697791936499782 6.557346680514786 1.1011561756805808 0.7001941803399424 1.1870163659795105
P 5.170571387938367 2.675409612632378 7.8109309164370915 -0.9300731715564047 0.23010370563275853 -0.5123324140955305
Ni 7.939241546647933 1.958038511707733 1.0342727210282627 0.49421564989016176 1.1054535175043543 -1.566502193724244
P 4.29936276039489 4.3024947818949135 1.6093588487551935 -0.926168694295676 0.5183400537421912 -1.0467621743107327
Ni 3.1889321730451576 0.039761012942806345 4.943040158972349 -0.1788572487529565 -0.26977017098444506 -1.1872377379616972
P 6.157001559370967 7.683244848160667 0.989494025405859 -0.06367336978924518 0.26342700237523664 0.2737201567711286
P 2.9258792143548957 8.489049497321286 0.4465636254734406 -0.03492817933575275 -0.19802302304812994 -0.17119638977358903
P 0.6514300729728131 4.8344778455019535 7.924507227855908 2.1647079107448266 -0.7577251846768757 0.9627284956975807
Ni 1.8758413709879822 3.5849947153790915 10.105332877139915 -1.1772279191341792 -0.39187494543770574 -1.1668272926261452
Ni 7.126960982444616 2.0720993652762587 11.979297798776265 0.369609449171286 -0.06941335759681592 0.273321121560497
Ni 8.18867021181309 6.8619182689190446 0.5378509980056145 0.7954720644083462 -0.5666929911242821 0.24867246977388138
Ni 1.047292718640422 1.6601556315716142 0.636305172676079 0.8814263570829787 -0.11349826373117226 0.6370861961358641
Ni 5.468831953020076 6.140742683054665 3.4282075614534717 -0.6927886319044907 1.9863234878632308 -0.24070822062148223
Ni 4.602173968479575 4.1099767897507835 9.456530017495947 -0.7031938863982148 1.1330280846885132 -0.5552212430392567
Ni 4.658614838275598 7.912646999381552 12.731563303942355 0.10099910282289704 -0.08810553468968052 0.6737832944465815
Ni 6.482971302899949 8.556581407958571 11.105285090807474 0.4515479358183062 0.266794890406205 -1.0567951330667027
Ni 0.6651170069279186 2.9069673315915145 12.199546156571934 -0.505195031719801 -0.08179990418662686 -1.057288270653037
Ni 9.030050940482807 8.2624385299666 9.837867452865797 -0.23589125884881312 -0.14529586785774332 0.22204843942844982
Ni 8.489979891943353 0.6918202537640066 4.473123628485052 -0.2780799764017211 -0.8895153047387002 -0.2401083822539542
Ni 1.1762398861620036 7.796679297429188 5.517149832937507 0.08785742323461643 1.1385096766283747 -2.5221100192166435
Ni 4.500337210589085 8.376766526545422 2.5631736221790127 -0.00972828303135744 -0.22550143097405678 0.8096889793386765
Ni 2.1559362113695517 9.195080838050256 2.327487161936609 -0.3035596087300643 0.6268604046427979 0.9691922490450533
Ni 0.0441338676665165 5.177203904056064 11.558712449279938 -1.1861524753173185 -0.12207906342164782 0.09065118392966968
Ni 1.3632676288531507 3.350839260940523 5.022263721632665 1.4163806223430835 -0.524645941355561 -0.747018596892649
Ni 1.861618308646696 5.4222937982608945 5.882429209840175 0.4333221568388988 0.49359421425607897 1.743581010420539
Ni 1.3569759503692784 1.1726656969207996 9.607156300894461 -1.1023124007722114 1.3413152086668125 1.4916681793324889
Ni 3.5095037854005686 2.268412630532183 1.5456139205845556 -0.45664540494587164 -0.5212621124849927 0.06964552821228005
Ni 8.139801464584773 9.124490600536477 2.0960611721170315 0.30718049331210323 -0.8117142372988213 0.9808252052982914
Ni 0.6589156043578708 8.419500196364869 0.43748905376851777 1.1262941083987892 0.7697540908169517 -0.5676517554931256
Ni 4.98037477643543 1.8451475602877456 3.480047123192842 -1.1678981570928209 -1.289277880454599 0.23758510161146826
Ni 7.808562555473396 6.718996758410591 2.9116681273899334 1.0394031628425002 -0.3936433501920382 -0.2916538584314138
Ni 5.807845644913864 0.736927811643913 1.4988565243203715 0.41571241417693566 -0.0384243654144693 -0.4686486000543348
Ni 5.609800556004986 4.000457367357292 3.2637616937774987 0.7980837909995803 -0.8116180780405893 -0.48369289598196696
P 0.44579628020593465 4.434509488120931 0.3180788917145095 -0.24215729436318295 0.848871563075409 0.7072207481694208
Ni 0.6561170510293198 7.072104547054487 7.477483010985405 -0.35508940117824006 0.1087311813598321 2.0822932557923366
P 0.22339511822039762 7.466545807670762 11.945645148941303 -1.1950600622195933 -0.15384144343490924 -0.1346576714176068
Ni 6.610389306983283 4.530404616989316 8.267675454151199 0.031897362929228935 0.7713720860363489 -0.125546453144958
P 0.5645966192502324 0.2475991961360253 8.038124071317664 -1.1949855002279162 -2.21229028850948 -2.735062666991412
P 0.4431239289201788 8.154816744129006 3.49274747037544 -0.5854332478462627 -0.6040490631752371 -0.4465867351582889
P 4.488684248243407 7.558074530094996 4.9083235430101695 -0.22874796293581248 -0.47301176211903695 -1.8153731526621766
Ni 0.17172597529794073 0.6207261292618412 11.942099516366715 -0.24111779735507508 -0.06922643839699046 -0.752888939630497
