# total energy = -340888.69703731936 ev
CRYSTAL
PRIMVEC
9.07161462687902 0.00000000000000 0.00000000000000
0.00000000000000 9.07161462687902 0.00000000000000
0.00000000000000 0.00000000000000 13.27722497929429
PRIMCOORD
 96 1
Ni 6.080821131837352 2.003556778963853 11.621860336078303 1.7073407971415822 0.6151616281486308 -0.3084832712839268
Ni 4.5331220532253615 0.22637669693459922 6.207368339820643 0.45207295508384077 0.7137750043481708 -1.0034146605630332
Ni 2.3701679358427183 1.5346087388852632 4.72971936123347 1.4619868502179725 0.29506802631928536 0.3578762198947578
Ni 3.7117327181203987 4.278908200029201 4.6657363569877495 -0.42566798272775075 0.8422951954094721 0.8975628576335251
Ni 4.879004570966617 4.6813250193483915 2.5953789303137804 1.3168632462720353 -0.3163541893915713 -0.5334648251987716
Ni 7.169151795285112 6.01626752303944 2.621601339193944 -0.1393314227441923 0.32215614078532906 -0.3906361879345982
Ni 5.1346517392541315 4.444564952454533 11.748418429998997 -0.2617280174062589 -0.11584696646900695 -0.4523169527738468
Ni 5.745516116605702 7.927683913504081 12.466265264336888 -0.385913071427316 -0.3059396789264667 0.7027498568822607
Ni 2.0875327144110525 6.261083183611284 0.19910560941797723 -0.7548933716550353 1.1789323034197954 1.3091195977708743
Ni 2.3680905361217066 1.4240711161755168 0.3313679345376783 0.23854000932556982 -0.3938292409505992 0.2951384745459046
Ni 0.3658700059740327 0.32248500961708876 4.759911508619813 -0.3729778514228867 -1.8610601131763302 0.9977327796869074
Ni 8.369244749400421 2.3228413229845533 1.345288680030848 0.8523453805566225 -0.3205306893667641 0.14985906174839353
Ni 6.964605031488693 0.9485461555828055 5.014316772881971 0.0775994929520341 -1.0743763364835754 -0.7198708328332634
Ni 0.8444874799505563 7.713122087297195 2.5574858893764905 -0.5516186132896629 -1.4395694017547207 -0.28344021227236993
Ni 8.124746595336154 4.1033724594109335 3.808850701496987 -1.9017532200203184 -1.0751414967843742 0.2683653202171185
Ni 7.350293793665761 3.703967416106485 12.700820928906705 1.0156718806638314 0.19793329154780107 0.25050746610009117
Ni 8.003531682357277 8.828068867694515 6.911326532355611 0.3403004157945236 0.024862310459318474 0.23451031934088648
Ni 6.672480901287688 0.6959606571897962 0.44395755644783036 0.5329565181037853 0.07811088537081387 0.05512522310891796
Ni 1.852577898803139 6.40447819404813 9.206879531755988 -0.2734525049320387 0.5086595932296336 0.6948102903202098
Ni -0.2697009134743781 4.754923027805033 1.2119822120819392 1.109085972050619 0.369035578945687 0.22619100084191368
Ni 6.789096505713933 2.126685802602703 7.225159943221917 -2.0392925838610947 -1.0682056888964895 -1.5035227646782299
Ni 3.3891733212643915 4.154953659470648 0.40242226228789235 0.2772163428498452 0.41428519481210585 0.3042121547123987
Ni 6.145846464589379 5.712286792684012 4.822646258710026 -1.6997519290507306 0.182967157156272 -0.9069445559587412
Ni 5.7236444540408105 2.8952874129191546 9.403222834558035 -1.7972710437448274 -0.7782171339826404 -1.015885282226218
P 0.08316946891795031 5.5391278150653305 12.401405942130252 1.6383318740720365 -0.3184172425681871 0.2987128221607242
P 4.179809883206774 6.108335338622633 12.632230451655298 -0.11644629061590267 -0.1605345391843687 0.14272785002025096
P 2.100695627053797 8.457937924388782 0.9719681570661288 0.10386973950247273 -0.5039830136895708 0.05707463352580494
P 6.501299535630494 7.745262817478617 5.661660833631384 -0.3531559316009531 0.9723225671439191 0.435093904027341
P 4.5744614005120505 0.9236173589306609 12.670681396884474 -0.1956079858487341 -0.9042032457681781 1.236857972091986
P 4.2638221051119825 5.947695189017038 8.044949045528686 -0.6468900696001634 1.811760495610254 1.2458848581809445
P 4.4140026831965 0.9393928965500494 4.046645839605551 0.4066567317325706 0.5277986280519298 -0.2914749096513884
P 0.3106338524313676 5.71163363643985 3.2882770104476218 1.5205324118623489 -0.0949590672764042 -0.8051008457473618
Ni 1.1998752353672553 0.9066316679366742 2.656945256456106 0.3390629438429967 2.158764548677198 -1.4704493791630289
Ni 1.918954902116 6.622904528032969 4.641930626210981 0.2561073287853718 0.24653819703969798 0.7643856274161868
Ni 6.023325239122179 5.628973085095476 9.35983239523239 -0.6280078879836797 0.6752071713773017 -0.3103239240370913
Ni 8.602430600180398 2.28927634932628 10.066101127981074 -0.21540393752873874 -0.4238460990276636 0.9548699188851105
Ni 2.295236400054249 5.377199496200417 7.133507607582926 1.614299258602865 0.14386093518342966 0.06492755391132045
Ni 0.40837414856280946 8.920699123376847 9.196071610238025 0.7807057047324489 0.6599816126767988 -0.30053779118460494
Ni 1.632183024471314 1.0846657311888575 11.355864269966638 -1.2025797676354064 -0.6813549361462523 -0.2478965108398053
Ni 4.468314439221388 6.8281679493750636 1.4457831183251686 -0.28648028465027436 1.1904076510492467 0.39108973053224905
Ni 5.894998180373548 7.827134138361298 7.736572210785474 -1.1621306584814244 -0.14508555161915013 1.1176582871006622
Ni 5.401193916558831 2.6500181716221984 5.119060355409139 -0.768992787170895 0.32812469966393815 0.28780028901327853
Ni 0.6455623956611736 7.197418946074079 6.90653309125263 0.17018851733436496 0.920738267308724 0.09918750353545498
Ni 5.205210756852524 4.378705031168299 7.048785985423644 -0.059158769748343276 -0.4310197339579674 0.0265119302475995
Ni 8.000066325617423 7.125254252708792 9.172132526728074 0.028966562435679147 0.469578825178088 -0.011747113233599124
Ni 4.791173199355968 0.40262002348404113 10.598663864756595 -1.0170114254108613 -1.0622219605092287 -1.5030134291419792
Ni 8.278501389534554 6.9994128163337725 4.524917685069539 0.4219028592583637 1.2900186152753654 1.1739456488384814
Ni 7.429470845041278 6.10803597534406 6.850118534986124 -0.47121558945056263 -0.2172047381829033 0.7643845989749222
Ni 2.559175023996807 5.559892740660949 2.5280367072178818 -1.0468051117335262 -0.4280853339199918 -0.44678779542550145
Ni 2.3359316627112796 5.214817596610391 11.444343354852746 0.21827663109084341 -0.140062644483262 -0.8888015665011274
Ni 1.3924293247917174 3.8251914006998646 3.993935223540308 0.7649322439482762 -0.2904935195747255 -0.5059378234230965
Ni 3.6177145054192246 2.6880463796155722 2.7202243034164533 -0.9435136133320267 -0.5260999001932681 0.09092217820286921
Ni 1.0464651625199415 3.326542894740954 8.466076069758738 0.589464994713475 0.45971067413475664 -1.180318899354677
Ni 3.799446158742519 2.389073180465379 7.2033853469322 -0.3457051317498627 1.3937700840324188 -1.1019874133326246
Ni 4.087732996009078 6.952040845403097 6.116804597921921 0.06174349975638398 -0.4926441916379839 -0.9749481776922242
Ni 0.9813581852373933 7.544988784112751 11.626480509344292 -0.08253421124949012 -0.5726448378323429 -0.022452158355929074
P 0.08288008441532897 5.567540111686334 8.259854685925207 0.4467944802937209 -0.18649033981818205 -1.9554987891728899
P 8.660271214246656 1.5891563568872085 7.934323428158268 0.336238329910008 0.07496385510139993 1.0360409312384866
P 1.8709569897846692 3.242349240545701 10.52901200860843 -0.19016933133166602 -0.041616647099521877 -1.1644960733898073
P 4.103835111750548 6.428527044093556 3.7881120835834254 -0.3477836115454462 -0.5678636143936155 0.2731547711859618
P 6.940637825973787 4.072066317763717 10.567701537299014 0.850485187419432 0.3617948382228737 0.1305729598252719
P 6.232743459906298 7.8255375342089035 10.395151265013434 -0.06906882977320364 -0.9744987488596315 -1.5652469811609042
P 2.120254027920618 8.448485302077453 5.920924854620939 0.7680363367948967 0.6579686960118282 -0.23997802732367704
P 6.835261951915812 3.787253908851514 1.839134673272275 -0.9058004150519692 1.432589370892462 -0.23366751172461692
Ni 5.287508443616809 2.595352622631724 0.6630370466768308 -0.6179510179683099 1.5216886369539793 -0.46575996565263017
Ni 1.4925799488964036 1.3732156452759816 6.978934553756425 0.43084772715647734 -0.8969352513518554 0.6038104648018698
Ni 6.936700745279816 0.5050167793394807 9.248848449089133 -0.47592893576583195 0.43231454150999093 -0.40548739401481776
Ni 2.9616009149305 1.757697882724252 9.403368887551519 0.16624573063653306 -0.7620454093187844 -0.5417026397275316
Ni 5.945998797105119 1.869768608284876 2.7692572869624894 1.6624195111488593 -0.09606721273891843 0.8074672890970093
Ni 3.9895781270948842 6.896132485225816 10.347870917389228 1.2391043449240013 -0.7950360053121922 -0.937947946318791
Ni 8.234395199824682 7.329655870673174 0.013748031778138728 -1.143862713410172 -2.7470188109120244 1.5174221483681414
Ni 7.582381979090969 3.954171615692657 8.24903315698549 0.9556957572205154 1.1456827973380461 0.11314139461238579
Ni 3.339578804780667 8.113788085017454 12.228191627663108 -1.1424293233977552 1.118257611247558 1.4875659842386575
Ni -0.02509117855173468 4.762289178780849 10.136856092452716 0.11128814345373093 -0.10730550465689907 2.6063853815269566
Ni 8.983728700938384 2.579858305061905 5.610330917293381 -0.7071114762850661 0.3230727390623275 0.6423363887912098
Ni 3.572211287076008 2.5559636724630153 11.814406261049713 0.23149055867795618 1.1246190346892115 -0.778436449082298
Ni 1.0685364006038818 3.4041324135785787 12.471270981219222 -1.326743738610541 -0.2164138668504918 1.3464101066912166
Ni 3.012692247807093 8.458763441308486 8.001493290578624 0.0234101513938242 -0.11967276797300035 0.44698371348639143
Ni 5.7172761806602415 7.97040214619511 3.6226639782916443 -1.2779776249504313 0.3053079588797387 0.13004511234625993
Ni 3.1257336361194565 8.498714831576333 3.11345611305213 -0.38660341262612125 -1.2285129425614003 1.1130287587484509
Ni 3.4288344198681675 4.363292358129001 9.297349836025338 0.551160956926954 -0.46766772419830427 0.09383009587828356
Ni 7.3581951698972095 6.232888605738334 11.465879367681055 -0.7482511837481695 -1.4781444338144414 -1.1431667157844119
Ni -0.020154405939617825 0.1082497615322823 0.37097641777734136 2.4352532693323994 2.8802945143804393 0.6526197729950889
Ni 4.388511446445217 0.44987134194183803 1.5430662050856978 0.41499533350525303 -0.3474725080629306 -0.8887164629864887
Ni 6.289894631270386 5.725730925376325 0.3910963515818507 -0.23688833265475975 -0.6118834716179914 -0.03972842893787352
Ni 8.025185626174114 8.67688134040025 11.350553746837027 -0.2800111319861629 1.6175787006850852 -0.30325004790944554
Ni 0.3140411508384075 4.972460343568653 6.107961588105141 -1.0534293019182632 -1.1006648378664592 -1.1991812834768185
Ni 7.749635335668694 8.951315822321895 2.7787634317993826 1.4159836440149807 1.1262329161435507 0.6443328503959483
P 8.491194463153981 1.8909326849185928 3.5621336305254743 -0.47776367498172556 -0.36109935481774585 0.1299435537713891
P 1.809623804135051 3.1433325682537947 1.5092218257007555 -0.9804464818026342 0.5866573500613509 0.7137220396230483
P 4.812627567653756 0.9980318126925032 8.342305682974581 1.3407572792808136 -1.111579170786118 0.5276045097632526
P 8.327542537533642 1.7121402346940224 12.248027619933696 0.2887778224351994 -0.75309128544929 0.5924011945236636
P 6.59012878483639 7.869426005170721 1.4978705144741076 -1.3181837648556718 -1.5110095599735782 -1.3726626126298425
P 2.1161990162381183 3.5017248423936342 6.206040255457516 -0.43974065877073304 -1.3351144791727392 -1.2166524436783885
P 6.939440372859491 4.083659841097575 5.877323046677391 2.1523046519844673 -1.1947682420107875 0.1759218202737164
P 2.3382358527948477 8.323569170381663 10.156067957645552 0.15312590542512336 1.4530535522840846 -0.049199601653102366
