# total energy = -340862.7454197082 ev
CRYSTAL
PRIMVEC
9.36040954362345 0.00000000000000 0.00000000000000

0.00000000000000 9.36040954362345 0.00000000000000

0.00000000000000 0.00000000000000 13.69990553179047

PRIMCOORD
 96 1
Ni 5.962936393824398 8.16165908723323 10.870627985825115 0.9140428575664195 0.28428379121958786 -1.0621258012509966
Ni 1.971339631678163 2.3278588995522673 0.09829552971538397 -0.9300091510876886 -0.0026474649251760855 0.6767025249759056
Ni 0.935792875100078 8.394826881886242 10.255489034480615 0.25930989488306955 0.5721324169722986 -0.5345570298216858
Ni 1.2581419689725435 4.972165154938914 7.063657807994213 -1.1838497953260707 2.8781201324369396 -0.3205260613810738
Ni 2.78634110548961 4.954576945940399 13.418632478668643 -2.8817078497881985 0.2021936094860518 -2.310169357646157
Ni 1.5177154781464772 4.8399025721028215 4.260300414511841 -0.9704487471599739 0.41417977958249313 -1.0800391911963076
Ni 0.8187980558070816 1.1358669428162889 11.747298643960628 0.6792242629564947 -1.3106789718381944 1.305865866720267
Ni 1.8307182033733775 6.42331876284141 9.301509820230343 0.9819194668037349 -0.8376386704740669 -1.5134315391515094
Ni 3.491938115876552 3.9415560142451915 7.022831446968176 0.20469632130324747 -0.8702790822169076 -2.9422722416348166
Ni 9.235934537122308 8.163297158853636 12.340408808153926 -1.0711076930346328 0.014849663418322813 0.12492964549656548
Ni 3.0004230256625943 5.465458722912168 2.2430854170530914 -0.07946225719238571 0.0022504865970735437 0.1758421160757165
Ni 2.8091524228549005 0.9073475274015215 9.524187404226286 -0.06373687603732894 -0.6338298939820955 0.14793793346628073
Ni 4.9158342120155165 2.204170451597835 3.120619104922324 -0.4696065930922299 -0.31386330464891754 -0.6717451809706302
Ni 8.11756219921194 8.224008773310457 1.0070330778919345 0.3018860776823833 0.005907880844002729 -1.1878404045427027
Ni 4.708276497096372 6.4790974416185 4.747236392516073 1.7758247009455932 -0.23147898871373038 1.154678058858121
Ni 4.706741389977822 8.252164884362896 0.06655906212120337 0.7201472264231017 1.4980576277986006 -0.21496890687384915
Ni 2.1437677306465748 7.449996531646161 13.283962398571017 -0.029962864910677428 0.948922957273056 -0.7538361340351146
Ni 4.908785823843147 6.455949149519868 11.900710135477532 -3.351290017400396 -0.005593177817061335 -0.7871604592188572
Ni 8.339712792166575 5.190637107054583 3.664546870743672 0.009502540173796538 0.34067939640049716 0.320952350285215
Ni 5.82201543242331 3.0457554877061326 12.012596979437642 -0.5294456767370495 -1.6868311072240045 -0.9549143989698007
Ni 2.7251989122068525 0.6453786894980934 2.6205317519085582 1.2305058046217132 0.15509511333635226 0.767163190161324
Ni 1.4041549930107748 2.906435156288411 10.430272212418707 0.1953321064795281 1.1150421896340539 -1.0195599028643278
Ni 1.9689620877262615 1.0853581744522722 7.006556503388762 2.850017460663453 0.19670764667081608 -0.826365668663409
Ni 6.947511041780123 7.894044986505425 4.918868856697432 -0.6182538939207095 -0.10640638988139739 -0.4617665282225209
P 5.294359802058598 9.318849042342556 2.3177636981659453 -1.1467729450784316 0.47601995281774145 -0.1656482062618502
P 3.512156599876974 2.9778644393473086 12.477887011029388 1.1439642719850427 -3.066076001057055 3.0122679540976636
P 7.74568249974307 1.1132053919991496 6.338617355493532 1.6561154233077025 -2.187411780100246 -0.8329183821802624
P 5.528285789861626 7.957021820003036 6.374538862067614 -1.3838803357225327 0.06002934527875468 1.537067690513211
P 1.5142614871297384 3.287956077294519 8.156211329044227 0.30784615192056014 -1.2414080533565135 0.6310412754933649
P 1.2010809141269088 4.341563743538721 1.1604969877006917 -0.8118517913179503 -0.45877710657689375 -0.12306122482925902
P 4.68325612314585 2.7015638788267298 5.3571559796575015 0.6906134786300429 0.7523806325355106 1.0363402076464603
P 6.217876500414902 3.163780888058595 1.4186392902988547 1.2526602292315652 0.3226729325207475 0.7953949313135075
Ni 4.327813302336582 3.825730310068701 0.8126810283560281 1.0376000481954903 0.07710969779980913 0.2758976240384216
Ni 4.230156152532693 1.537437860456148 0.8267272584907657 0.1944509894261554 -1.8692195090586714 -0.47012107083480326
Ni 8.3107797671456 8.371510102420942 3.2921832381160887 1.906219483321788 0.721975280770776 -0.7918964312419459
Ni 7.758309691834075 4.630893993748461 7.915763944110138 -0.1337899241006728 0.19438516918522653 0.42386821051485063
Ni 0.47577837016696267 1.1010368599618585 2.4626675137069314 -1.0309102948801405 0.29911674246736225 0.3811914975819306
Ni 8.063964495792304 8.95071350657747 9.304126054618362 1.708058392033897 -0.6553492561111101 0.7642190199313355
Ni 7.739841604365171 5.586002073355424 0.9229560098416619 -1.204694499985564 -0.45273989924387836 2.0737037143511126
Ni 2.077973413961869 8.158860324864653 5.942813385998423 0.5328192211949727 0.8837148960068393 -0.18244522321453097
Ni 0.4515489507988646 5.394460018679205 11.083948904725306 -1.8478796099303145 -0.7102567067822672 -1.194661284119278
Ni 8.821230965291434 1.3281484698240038 0.1475537474023375 0.4452165942836397 -0.6518386718546902 -0.7796032156968896
Ni 0.1321951878894245 8.504558959634828 7.273731600922299 -2.316361859610114 0.4369803224167764 -0.9714620189158366
Ni 0.5233086563046209 6.167919996197193 2.0973185717783838 -0.4583371908259977 -0.05293592876708303 -0.7227242431216585
Ni 6.7789300710173475 2.3310320782912224 7.503780507210062 -1.0279787230556425 2.2342552228163455 1.34649289621301
Ni 6.228921783341058 9.503904333401973 8.30580002941957 -1.4349406447334578 -0.8835709142298073 -1.0094559816611066
Ni 7.801180366242377 1.3251718596794975 4.260643005490737 0.3270062697887788 -0.48537773988355765 -1.1810300664890885
Ni 3.6681290993672646 4.252040789381298 11.093155803272905 -0.3693032307847769 3.963359893997581 -1.977656299106536
Ni 8.692197723649855 3.081942829903184 2.0262431121894937 -0.2547742117962451 1.6782922165150582 -0.8513020268937725
Ni 0.14997902944146219 3.3546677140866517 12.590445932374328 -0.3338145509598638 0.29029323063846135 0.2692328104237363
Ni 1.3280174240943716 3.067097220817689 5.7814146572604255 2.035578368234301 -1.6896444083030835 0.3420672778869593
Ni 3.796123335581046 6.129383191276018 7.360643936937261 0.10821747494820719 -0.25637729461730685 -0.029060921921698336
Ni 6.56762819239442 5.0713012494057965 10.702475721806422 0.5706902852091332 0.9678673595860429 -0.6755308732653075
Ni 7.498446009973098 7.4291134585883185 7.305597242164261 0.385803028212013 -0.1763933605934962 -1.9152317141227273
Ni 6.052927368444794 4.514890441796041 6.073921830372825 -1.353405049951811 -0.688732459557246 -0.2798383538537245
Ni 3.848532267024732 4.471046284824756 4.57860393950237 -0.9284911717812655 -1.5127303993194272 -0.6228996202228368
P 2.7097448765194936 0.43742502926727367 12.980838649276546 0.2539820549122529 -1.5897377672134168 -0.2606388981071382
P 7.981518011035028 4.898405129974412 12.385166541068932 -0.40843490667891597 -0.6299123040952442 0.20024702728264224
P 2.935517947857537 0.7387178825105962 5.0242483441403705 -0.8240969272338904 -0.06970492069530576 -0.5273188602020338
P 2.2594811099119516 6.250179272769279 11.427954241460446 1.9740402996205033 0.8407201376128683 0.390439755653076
P 7.96535258424395 5.39129620034951 5.962869934918656 0.8560439124541321 2.6268896721278954 -0.4499651647122186
P 6.870708883806298 6.7180874108308934 2.938397209745745 0.2641024311757064 -0.6473898920547173 -0.2476766815195154
P 0.9840317442186769 8.461875493411716 1.9967746717588786 -0.848561745144474 0.3025224257148016 -1.407492575824834
P 9.659848751664486 2.9092151978384697 3.958834393697218 -0.11961594659313592 -0.6792070365653141 -1.1623592295524627
Ni 0.4381289320435846 0.429989120151563 5.0655127723197495 0.5682392525654795 0.19571391529897908 0.10428805798681393
Ni 5.394169845992162 4.986187048009577 2.8406754731179658 0.6349215843843775 0.7769431523662232 -0.9263142187346047
Ni 6.926702851996356 6.999835729540473 12.774709332810394 1.6783035293689679 1.4182202466549831 0.0369125567556332
Ni 7.174351199773745 1.1929467184804428 1.72348909906077 -1.411891476223478 -0.5100109650512056 0.8796787782642527
Ni 0.24295316649284623 5.899145204721215 13.411631828583495 1.299769266904226 0.253568364413602 -0.06622056169113112
Ni 6.895504607934593 1.041757388121733 10.893561924551705 -0.5763269146696203 0.800436093281841 -0.7388592010103081
Ni 5.897694341286 4.9183615225155695 13.166444332400419 0.601611400268022 -0.1084154498916262 1.7868585901622518
Ni 3.882744562868038 8.305678344099197 7.816508036404733 1.3985613347734753 1.5605796575922222 0.34641835576680335
Ni 5.556104926180725 0.8202610877743344 4.981244751920585 0.15734328594058064 -1.2038923157992427 1.030173416714116
Ni 3.0380331500670827 7.716796276768394 1.7022821558425498 0.6256846391671418 0.859648599086255 0.9164658651856151
Ni 3.511847706371412 3.251263272997457 9.032648912989178 0.5782500998342621 -1.956976402159681 1.7135718656529586
Ni 4.470643787226599 1.594751646351788 7.373850538361425 -0.6044704669833718 0.05677072913214094 -0.4482127007974861
Ni 4.584391480547491 0.48649697480996407 11.79198804588804 -0.4030487026663381 0.9030768454732189 -0.14145952483078864
Ni 7.571101506644984 3.1506575942768396 9.770923112100876 -0.4365684316903385 0.16944521141043722 0.07079763953885226
Ni 4.0068542292391465 8.39282375430472 4.178210561347351 -0.5109288488797845 1.9059150647074914 -1.45855082795323
Ni 1.56863610451791 7.377818415846507 3.643270660496931 1.7365040489690997 -0.0596922736543101 1.874761779033139
Ni 9.234099896907455 7.097006138062872 5.179084489946565 -0.34845492658085797 -0.6406384322634967 1.2606589311663257
Ni 6.874874265926756 3.388954893204033 3.7585141472174834 -0.5487032394150808 0.06645530340975653 0.025610758589568797
Ni 5.873610008261424 6.67162233926696 8.517943408834922 -1.338834351226488 -0.5147078563062426 1.6271930838463975
Ni 8.960457692616561 6.453431199429075 8.831370160601276 -0.09615900112177632 0.16123105103076105 0.2968626563258629
Ni 3.52903341777177 7.795142902270029 10.199182428621294 0.40868456079587684 0.4786067397083112 0.7640305580696132
Ni 2.7175327370233595 3.1304297498671585 2.2394273691144964 -1.1232216401210526 -0.7395081474482167 1.6548293575064272
Ni 8.45543553184121 3.4056538633229003 5.670226099831069 -1.3026848978891241 -1.2281856411289687 0.6561840933075795
Ni 9.46122086717886 1.6138281604225564 7.878295161885467 -2.951906936511103 0.9184013916454313 1.1695824867737794
P 4.9746082217556316 1.3908257702253115 9.608675394243049 -0.13722234682098947 -0.08716399671201762 0.2576847005748207
P 2.584839575361332 6.204809369088703 5.5173350470689915 0.7405772121426794 -1.2441205671916702 -0.16928091791843103
P 4.231972071929028 6.237402314130123 0.3985306567123882 1.1005409106940853 0.23946174980889084 0.9849446267833036
P 7.249992666999396 0.12412557906684875 12.734788123359744 0.4814845754767385 -1.251424042831619 1.53301923147545
P 8.919646308245339 1.6285333633691594 10.144478324827189 0.3097076306093311 -1.0782761857586138 -0.43916447455228885
P 4.847877640791876 4.870829364296059 9.342663795580462 0.5730179049010454 1.0286652075997058 -1.0093384822466358
P 7.932712837156232 7.078641015095822 10.604041658034 0.251452860732496 0.5003716421892286 0.36981205210039536
P 1.8727370805390688 8.658425367041742 8.137058995658458 1.2891069020943735 -0.7734683064437453 3.356795263489341
