# total energy = -340863.3019737342 ev
CRYSTAL
PRIMVEC
9.33548969825108 0.00000000000000 0.00000000000000
0.00000000000000 9.33548969825108 0.00000000000000
0.00000000000000 0.00000000000000 13.66343281915193
PRIMCOORD
 96 1
Ni 7.3187065773678235 0.7912341036704379 1.6577159891276056 -2.2474460104750067 0.7455672091581032 -0.5991027749135553
Ni 7.010215317735237 7.272617264346001 1.1544565392100583 -0.3317198732143642 -0.2551992151488056 -0.1662192482739718
Ni 2.7069279508041824 2.6261386222866934 2.7491915801159883 0.07138282261836093 0.19927489317736002 -0.5330765886214174
Ni 5.897191549246963 1.2859263746209761 13.482487973938854 -1.5296240897509723 -0.4424002078807671 -0.9804631939731823
Ni 4.152547213525477 6.333943102905637 8.32298495965679 -0.6501923945005188 -0.7667849808862988 0.6762834351606158
Ni 9.138706986557436 6.278947732637954 -0.0307137613615133 0.05728726375724328 1.4624769024805135 -0.9410283850163278
Ni 1.7248064199484725 8.516533934977065 4.842416569213144 0.18314687726724588 -0.40898229454195373 1.7785780953210144
Ni 7.471201802851203 3.5128421121466498 4.757880908648733 -0.8706176965032489 0.4885219419394941 -0.13369607883528586
Ni 1.5548164866257383 5.348442124751183 3.2994188126432347 0.5154889574466412 2.101248970959233 0.7950187789210115
Ni 4.841226294266764 6.315094749048829 1.2123179048388302 -1.4852895294996549 0.17890404283049188 -0.6606159038266881
Ni 0.736279809557768 4.360345880439131 1.015984152918511 1.1161624192814261 0.4845359607085526 0.06721943526929068
Ni 2.5838208471341892 4.2183624164430045 7.2480275842772395 -0.27769328248626374 0.012554953846875154 -0.6462745475033514
Ni 2.2274105184837776 0.7289654533186355 8.640221706111097 0.6746515559841477 -0.675096099720734 -0.10455828092906509
Ni 6.431386945182681 7.0390993231007455 10.479360802889536 1.4103683547107324 2.203730314754611 1.3299352489646452
Ni 6.692593949102178 3.1488700367780544 0.6896658420105618 1.6720889159178236 0.721891462807718 0.7842713105965203
Ni 8.38891778974549 7.1832859626838985 8.482805743967033 0.01105317249036806 -0.22603236377686234 3.279422798946449
Ni 6.162422149259714 2.494722932716474 11.349789733423801 0.5347984564085305 -1.2408002445691857 0.040847115923349005
Ni 7.8145611167954145 4.504439165124529 12.66557847273876 0.29229971954552886 -0.24302118502537504 -2.0721705655360374
Ni 2.223657651594012 6.455603205660422 6.307068094939824 0.2927386068551604 -0.4662811282634228 0.47511698138749786
Ni 3.0214125948726616 7.638568463547012 2.9868815517419316 -0.4148264120275566 -1.1660958137767594 -1.2319289102214848
Ni 3.406762941827235 3.9660894762386962 11.063145386963924 1.2443028584058056 -0.11755546451968142 -1.896969168368114
Ni 5.530801582026503 3.642428045720865 9.367526375798665 -0.510765840939359 -0.09372725175183214 0.1648172257201226
Ni 4.11255397532708 1.2179640090550743 10.390890233384736 -0.7363917133064221 0.9827967272023654 1.5814945533680183
Ni 9.376752640343827 6.642471704497324 4.544553764690007 -1.2357508550707361 -0.24751341646877373 2.5275342755560084
P 4.431585002916246 2.0670641460991717 4.579012924549465 -0.024532437923725493 1.193641327495196 0.16285624533900983
P 0.7020904453528226 4.259774649087282 5.258358382613172 0.34711872426793766 0.2017272113725945 0.2643045198841836
P 8.932654056231806 3.0506233423803137 13.505538231743632 -0.4019441567482497 -1.4738051830091392 0.22004117919043392
P 1.3244072634757353 5.7746072330044 11.414801150671657 3.963424685797245 -2.9442885007338973 0.5051194412868591
P 0.9527147380627712 0.6252752348327801 6.289865587930444 0.4595492088562279 -0.26708413951184967 1.3525416735102513
P 2.9333415843302553 4.975143895096827 1.8655370612167221 1.8496978940859758 -1.0251070579348023 -1.8133226978910513
P 7.20151817421552 1.0235804409488647 7.115725023178344 1.2025316880062902 1.4315233915217929 1.5425030025961695
P 4.334561257679101 8.883904128623957 0.9761869600054012 0.13407891609600137 0.09830201560670812 1.0719247896192892
Ni 4.438810672002511 3.727987809513652 0.6382805056390792 -1.1743606248887128 0.8155171559846794 -0.41004544569914547
Ni 8.192050981358987 1.1343927045844764 12.457880629114682 0.5948154603921112 -0.011732715055895923 0.32657483867831494
Ni 2.2330584897979766 7.542954377265972 12.354503149536306 -0.156286305430976 -0.785296409426925 -1.3468752192530933
Ni 4.4477820776768 5.646645674651128 3.538104881028228 -0.6218089582618195 1.1202155063048773 -0.29853721581480847
Ni 1.5207326134552563 0.1594632350518399 2.8664378633049 0.3305471930625017 1.8783039878584427 -1.678650114075109
Ni 2.155508576232599 0.5897014174941226 11.609204323306395 -0.7112645792214912 0.32056822747291885 0.0665064683626661
Ni 8.113184763735259 8.252096851595235 6.539715034989023 0.460723174559671 0.15013365556601885 -3.787289978181774
Ni 6.0975311598299635 6.864189586666304 6.194822833623668 -0.478588484875866 -0.46115666255266385 -0.5888661847872116
Ni 0.8338076712427921 8.412536578877596 10.136696049384623 1.7476492669526418 -1.2626587352051737 -0.3414532984520442
Ni 2.0664666747535376 6.685975086851322 0.828257722571236 -0.4478136655868546 0.1967061040089193 1.3996566247201832
Ni 6.444718024582147 8.252675651961317 8.060920024226922 -1.707294260174363 1.194447111225943 1.7836205428409282
Ni 6.593908486684987 8.50981238233868 12.777523131284145 1.130512260245195 -0.2861049035887266 -0.13616305231853967
Ni 3.0203203425689242 3.8362234779712154 4.7962068283732195 -1.7296492308307954 -0.7220907233027177 -0.16490052946254827
Ni 2.008502618737235 9.192768807847564 0.3184018155782947 1.3073979870940775 0.9393342851433564 1.6248623788306917
Ni 4.161938716239665 8.141564652652889 6.99420215212326 -2.012029120159451 0.6215737023225618 -0.04139321823480613
Ni 4.309290086856724 8.984914127995257 12.484210444477604 -0.5155270097734282 1.7454296335935036 2.2302610140552876
Ni 6.439966260286399 5.697673461764208 8.654035430331957 1.015033218638568 -0.4118729858261874 -1.2826449485191136
Ni 4.779154622749225 1.8210459840444726 1.8328945876675828 -0.30282555877751716 -3.242478874732248 0.26955496964984543
Ni 5.286762543804218 2.992052479528601 6.999913604767934 0.4496262933155611 -0.1571846488755293 -0.2418539041901512
Ni 5.4363544319674055 8.059869781627173 2.9108850636752037 1.3441619340869881 -0.2835091178370924 -0.5563353020390419
Ni 0.41862109896560584 3.5180886574005013 3.207777910810664 -1.888138714560677 -2.3869705230666116 0.10935930186213424
Ni 8.88684480790325 8.708312901435901 1.2168297470473468 1.736732877150454 -0.9801855148317635 -1.3707769655713555
Ni 7.4783061105703865 1.7742845157588132 9.307175235046758 -0.21000822043446413 -0.02671659005923786 0.012593006173662184
Ni 0.646472397917112 1.7412648884227424 1.0905205703843452 -0.10965472161536599 -0.30380206375817354 1.161373725710742
P 5.954968895467755 0.26957533695428654 10.981696972868283 0.6431627413472472 0.0005723275637022401 -0.2249041637096901
P 6.593208324951822 4.7442492264784955 6.605054127927999 1.8776596694062242 0.28033072010911075 1.1349196452842714
P 0.20043763322564478 6.631455826562192 6.89702810550073 0.8428595525533742 -1.0611534100353983 -0.3563093896282702
P 4.829668957924651 5.8072814472187755 10.32639880291738 -1.4549248011648686 -2.3161641417770107 -0.3690363502766354
P 6.9556307090176785 6.401896132981763 12.723115896872322 -0.7083394351548963 0.46763352852625917 -0.10877000501756752
P 3.2426730380426396 2.812895095246291 8.608877799189735 0.43694638385504747 -1.1035205621476996 0.6779682790622066
P 0.33177117048583976 8.625180364984754 12.817147617636408 -0.9071934387447539 0.10594102020920465 -0.8172685914581473
P 7.7415949287098265 3.724328297521642 10.280954572239047 -0.49852301901626406 0.8456548559103242 -0.4448748946735048
Ni 5.504596862226573 0.41549557698875644 6.256513617158364 -0.7392654353097914 0.0032120791793944685 -1.314283401360001
Ni 1.4943411838598162 3.5589220896786955 9.90674053103771 -0.24658833355134308 0.9020005816899047 0.8805794357016513
Ni 7.984261649935108 3.2050696852267806 7.199071342345352 -0.48774572589510196 -0.6954975461952215 -0.2106700223881791
Ni 3.9012731707271504 8.016226366926542 10.650714651268476 0.48445368540739153 -0.6418064844296688 -2.5907314770397836
Ni 1.7559216073703339 5.89819978214272 8.886983906700907 -0.05750375064342355 0.6996935865544401 0.30578207030267984
Ni 3.273610851158766 1.5904967285478366 6.411265230520491 -0.989183861675632 0.1280692195668117 0.1424015770290838
Ni 1.564534731482071 2.753988154762659 12.635300678749767 -0.18270824706793048 -0.028623834384279737 -0.43600304610517165
Ni 0.6021381569730917 2.3834158881227587 8.3013826363162 -0.6370268036528384 -0.15062653604203738 -1.753454303670193
Ni 2.728166190043526 4.8938784566007865 12.935445076974045 -0.6163908725700415 1.4161111707317806 1.2147369718232306
Ni 9.018932652737309 6.582108427608709 10.93302826402148 -4.295348447492299 0.6588582977056331 -0.519391377824841
Ni 4.957593174318819 1.3104600417510845 8.376381160525922 0.5184207863814556 -1.3380514503138763 -0.05185015190207199
Ni 4.919009595076529 4.639710411972045 5.5438152547736 -0.7996272242273003 1.6170639658321955 -1.1771032206308567
Ni 4.011936066526354 0.10770354554035835 4.0331724386677426 -1.1762084767307293 0.4302093222415301 0.9604715813426038
Ni 6.365385032469642 0.8912013288338096 4.184467120165989 0.1532364628610587 0.4755345285408907 -1.2643456359892935
Ni -0.1754707993699514 2.0914577808826476 5.204114519272419 0.6989104285315124 -0.49748326489784006 0.15360027395838063
Ni 8.894387883641883 0.10419060073782417 8.23086608074771 1.4452286569230273 1.4969417690266025 0.04226842175090785
Ni 4.616474377920736 6.609797490282949 12.353519188913966 0.18130159652839098 -0.08160090080194332 1.3240782759632357
Ni 5.358841860361131 3.5284043736024686 3.0878542091541283 0.1812871983506878 -0.7182258410306728 1.8486733094762033
Ni 6.9951011597886446 5.680916257617121 3.9576408579918363 -1.5104184633567987 1.0039900734505292 0.874936378483261
Ni 8.98530621856583 4.994393675013982 8.500267777592173 -0.44099587133407275 -1.5500527899189693 0.6464383267747255
Ni 5.547026663256385 4.4864123343679685 12.193834702754446 -0.6536315020890548 0.4760700893293865 0.30400698068012805
Ni 8.539303194539599 6.000554092041697 2.348020378638814 0.6373026830220443 -1.1892051461007132 -1.0890408804742857
Ni 8.542197196370013 9.343985071231696 3.6098929303041443 1.3729683167957192 -0.4628075678925255 0.7214345777759574
Ni 7.977306710052334 8.88136487540501 10.439313418850443 -1.3169856307825125 0.5472629074241285 0.5183230844613267
P 6.3324961019904284 4.9403785311727315 1.9333351221625743 1.487311702136006 1.652310704849632 -0.296984783726024
P 0.36350250023288644 1.1284553330872356 10.09651143364583 -0.232909807622986 1.241388512972488 0.58233661119881
P 8.021874338240742 2.062816498251303 3.104195050457227 0.7470707902868231 1.2754476594397262 0.7447079464816012
P 7.208258397833457 8.035140069211778 4.588017004437969 -1.5150549336875456 -1.2650802001624728 -0.7584908591983066
P 3.66437578218315 2.377114432524272 12.467896676094854 1.3857448997350972 -0.48207927163794395 0.511205756690255
P 0.5421501667734527 7.612858524705185 2.7590293192414483 1.7206796803423332 -0.1592649284433257 -0.418722404647853
P 3.7308911468338435 7.27075950188067 5.050660538989092 1.0081948555604958 0.29351533712018485 -0.9103903484154965
P 2.6206306833191273 7.920546932217075 9.054811740591626 0.27650697548764636 -0.38396006146600326 -2.0552257101515834
