# total energy = -340870.401794812 ev
CRYSTAL
PRIMVEC
9.25889041556923 0.00000000000000 0.00000000000000

0.00000000000000 9.25889041556923 0.00000000000000

0.00000000000000 0.00000000000000 13.55132202616971

PRIMCOORD
 96 1
Ni 3.041341773308514 6.437391634633423 4.231589715356928 -0.35618032024957363 -0.12951032288871242 -1.3469196993377834
Ni 4.38139022767293 1.9452650787778754 11.21610399300339 0.2443584157795598 -0.4447836205112792 0.6507886333236211
Ni 0.33571995575578295 7.786939710462334 0.6999804409114755 0.14255584321876094 -1.4252267598798036 0.8227602107003379
Ni 3.8230791416017067 2.4588372068408706 8.819945770047557 -0.610357007671136 -1.2175800976989806 0.5899103097810099
Ni 6.749758817233503 8.247486173684038 4.122095004365722 -0.1460386595610388 -0.779973968772747 0.7912158602351534
Ni 0.5330861652935712 0.8415581327375962 0.5363258510152349 0.22957534393311432 0.8427621077435615 -0.5035626383227005
Ni 8.662497414330314 5.1594055220589805 12.93231060657991 0.009313306981125896 0.37420863850619424 -0.17916192447756887
Ni 3.043517612532838 6.0847945736091384 6.589506869528493 0.5718339118952733 -1.2542756533478012 1.2063693165848255
Ni 5.7979541516110205 0.02068991630074223 12.92702563198738 0.21260632017894351 -0.5671102811673587 -0.5363686291091279
Ni 7.957053302243207 4.957959845447842 6.620810251798779 -0.2179472727758827 0.1167216557644764 -0.7603199419872454
Ni 5.290761398975937 6.141764525725161 3.3136235161733256 0.6164371524269449 -0.7590647294239057 -0.6070425985859222
Ni 7.5152560919119535 1.273467774100101 3.8881450674102784 -0.7646967308987024 2.020894540969881 -1.2737576733318128
Ni 4.669036173128563 7.821169827961593 5.482254694386113 1.3393012635605772 -0.8638698362564542 -0.30666550134889764
Ni 5.118370120177262 6.856004583612728 13.523175951003145 0.4342644661475102 -0.5373893570641584 -1.6921661462836728
Ni 0.7914851280181636 0.5180784299799254 5.205265731684509 -0.17695668929613395 0.5732922416083547 -1.322813293207883
Ni 1.8983965759969044 6.367172210474813 13.084885082434665 -0.19122734028253519 -0.3561193851046512 -1.0505504377085713
Ni 0.22439753981614544 9.02584404701179 7.285651352181937 -0.5876469676681298 -0.4746963489103115 1.317186176829093
Ni 6.382217907238756 1.9375616820347368 9.45146412418245 -2.7151803262451883 0.25472227551238713 -0.06519083487503612
Ni 0.26123496082846664 4.877805631979872 8.961082738694623 -3.9291243698534783 -0.3036812219095931 -0.6471250684291048
Ni 8.447913372360386 2.604507328186784 5.567167977476648 0.520141368616988 0.12109381669024305 1.1023802778956693
Ni 7.857872069175296 6.680483799887154 8.45591675714977 0.7019602711014298 0.055147848816737274 1.1698213422574626
Ni 5.305186750088689 2.123489458475802 0.06921946400445221 0.000569242239908697 1.322495504857148 -0.9318132941759629
Ni 8.654738464245279 6.418031294982097 3.003650682609033 -0.6830986583102364 1.3903556590342314 0.40460473429954835
Ni 9.041158251594904 4.198110493862318 3.649547167516066 1.047512422213196 -0.7876523112536112 2.8073752005128942
P 0.19791711351160646 2.027872898179657 2.8608869269333974 -0.3603989863166116 -0.333615033354548 0.542523078746298
P 3.011491110928852 1.1978689346677371 12.910304076076192 0.7532758906562704 0.4287890448552357 0.7835773698532892
P 4.350104437294246 7.4616748936516855 1.762714945524186 -3.2444645377037085 -1.608716622308765 1.883359805114795
P 1.5489938321317342 2.0860557649271128 9.424009662616639 0.4952366349555084 0.7109169660740854 -0.03977985100109923
P 1.0298663698789752 3.6772238424494677 13.238639140915716 0.14217300595804544 0.07902336988275423 -0.688172473288718
P 8.223829708925962 8.578510020271407 9.4545130767636 0.2643258600404222 0.8876376281000132 -0.2725359066550403
P 8.157971222106315 5.611526395092876 10.615766803786606 -0.06061889923363753 -0.18541561869676454 0.35037734041455143
P 6.330849583764077 6.22182615028997 5.240377295541877 0.5221882238436878 0.11772412888706178 0.40510712785726366
Ni 4.150204995365925 0.05839396944666656 9.643716648598563 0.2446209254123271 1.5170843054127485 0.3847817860363502
Ni 1.9088683809446085 0.46019555127871703 2.6799089532554112 -0.7991448852742431 -0.20651614812080563 1.0461037147911274
Ni 0.8084724140814284 6.107210347064834 5.0083791326651035 0.43570274125593345 -0.8651700431251165 -0.15619837370286002
Ni 6.368977694086486 4.568253152035939 0.5857488816344651 1.8189531567039514 0.11966968264920681 0.5948229165912788
Ni 0.950378796513777 2.064306631574189 7.260419024292031 1.006857110585679 1.1306086766137433 -0.22504737415577372
Ni 5.901950007643392 8.571686218108315 1.9925187513960028 2.6416840568282507 3.2623265055857944 -0.07388939109029855
Ni 8.390036048993366 1.5983992708593637 8.641704724347061 1.6095522308361827 -0.4346398472090579 0.10427623091227202
Ni 4.493524648293304 7.9125550753832 7.712070471586893 -1.380279505745152 0.4375022563585175 0.6619359081896923
Ni 4.730339285912604 3.4817131145310602 1.9283398272797294 -0.4615996636273534 0.4887168315591196 0.7750258807388523
Ni 0.9617024193705781 1.7554948628555567 11.623984962217104 1.2830606959002937 0.7147715639334851 0.33134552059408096
Ni 6.49191723970595 3.7012784394911433 4.732094771516568 0.4559087838901632 0.5822507363532231 -1.4248092127264107
Ni 3.3430890087158307 2.845553278680619 6.551725041703913 -0.4866188113795103 -1.650852118026234 -0.19683054540192552
Ni 2.822785667392905 7.7431081237051 10.67359042558979 -0.47579703817365804 -0.1576443621207672 0.9415703735627269
Ni 2.333842187571194 3.587764444213644 11.230671931027013 0.5772442842775671 0.45412829495097273 -0.12343891988365192
Ni 8.704217974095437 3.6484842469077585 1.5619525750183891 0.15517147510024246 -0.738768955289347 -3.2382460675978235
Ni 6.66608622544535 8.653155194001195 7.47329665277667 1.0938146477138453 1.1020887147971794 -0.8016992762649806
Ni 8.632007888518828 0.24317271759948253 11.571893519408725 -2.0619964532165134 -0.9925188395861358 0.3260320788009675
Ni 7.264747555514888 6.805173275776394 1.0692388750598918 -0.10875560683986431 -3.0146022586577956 1.3423868444644365
Ni 2.8819221998429363 8.470532841403038 0.6326812707586181 -0.6881832719219954 0.15975086694080873 -0.15027943711526376
Ni 4.69512772603982 4.048172024080603 10.111698000744234 -0.04859436396893567 0.42822674459386245 0.3349450650198812
Ni 2.369646316424219 8.024837638248636 5.939584619111944 -1.0268284115012831 2.7140040465489004 -0.6634040080947864
Ni 6.0352409926364485 8.103603018169165 9.757588962931301 2.015398550852316 -0.08491556699747312 0.49056082674639384
Ni 1.957088681711755 3.5824776178430526 4.869694844062818 -0.35578796990716144 -0.10906336788827023 -1.1474067220076887
Ni 5.483401870896299 1.1527040677049607 5.4240116448516025 0.7041894175422646 -1.1880661474002636 0.5818995236613914
P 7.28382086956641 4.734829847715995 2.5911208245675175 -2.3599274029058908 1.209675241029607 0.7799091769730826
P 4.660295780670002 4.318383479070697 12.980852190841029 -1.510840895606198 -0.6089233605484029 0.011154473954922726
P 7.604632160134931 8.661080804111924 0.5014716843086592 1.1536773855077487 2.735323891072599 -0.9499714531422286
P 4.255006374855812 4.6276674511954585 7.692719390825883 -0.11458815436124135 0.0067275485318206716 1.4125139402988254
P 1.3080219527604298 7.425009687999247 2.9783229881488698 0.05081939664471248 0.36734893527188345 -0.014570184504691037
P 7.89981484230801 0.3362060474973873 5.640818746386467 -0.546924036027471 -1.3233956480739144 2.352005834065969
P 1.4705525133722748 8.504290755496168 12.474384409317711 0.05685377576425048 1.0057605350873904 -0.5355543607379486
P 5.816638592269258 1.710117041415506 2.709234636554141 -1.7493809049317677 0.011521370376038221 -0.21075872544724347
Ni 3.4752504090903025 5.459856512822019 1.0493970731121203 0.9204595597260407 -0.3256392142379231 0.7078884636604067
Ni 8.103677089291695 3.2973871261147103 10.500323255767196 0.30953408114594433 0.30854986285580405 -0.10339768496206063
Ni 6.399087605395004 4.643379788062172 11.711784241419222 0.6413398292058955 0.4981419815277614 -0.18170603105566124
Ni 5.912051456978444 6.011519715646159 7.416597986146914 -0.10932690596230203 -0.24819115926208868 -1.5782526493919529
Ni 2.2490770467257204 4.282329360179132 8.421807931113655 0.9747010946784245 -1.2350510007902344 -0.8924661598369081
Ni 7.276774854035727 7.177158453122952 12.250787763513923 -0.6727898201850606 0.32115443899369206 -0.7547751009096162
Ni 1.172805118581588 9.184532168142383 9.811034981392952 -0.705469569806269 0.13215393115914661 -0.39185797615684126
Ni 8.291086288183363 7.352494059042201 5.8439671329267675 -0.7634978254945948 0.16806992832946538 0.08122166308565366
Ni 4.800975360135445 6.214280154682208 9.365304594455347 -1.442805135083199 -0.13439181935072986 0.964476845847255
Ni 2.7130492993644446 0.43682426034238236 7.782293599301628 -0.20753713318615225 0.8723359647459363 -0.8329268668206945
Ni 3.819884824442592 1.1332974336020538 1.793721117415319 1.1884883225393468 1.129816776840067 -1.7417069333262778
Ni 0.93042588788221 6.681622643396055 7.319163905681685 -1.150475076520367 -1.1336286943869895 0.953073746216636
Ni 8.298039714810885 2.641524371671241 12.934546628591288 -0.4645854857285547 0.4017657221888564 -1.0216849196271307
Ni 4.435082532616994 4.60508501771407 5.431003958818451 0.6389620730023383 1.6838314011657323 -0.4460257204484964
Ni 3.7985801178248493 5.815546043211938 11.618239820775859 0.761566669910153 -0.8994461906991672 0.34750644662465957
Ni 1.2080814906865858 5.411969532106259 1.6117126292451316 -0.4609859413027545 0.43229782933944255 0.3697470031904148
Ni 4.225711245895126 2.6705509928127547 4.244504015570064 -0.7929575255166086 -0.7957872816559198 -1.6697360994149306
Ni 7.504108387971161 1.587501556957111 1.259263710465908 -0.6888288759257943 -1.3131012081264417 0.9051398986498347
Ni 3.9881373792698938 8.90090458108401 3.5634691160237453 0.5599782981082678 -0.3463980440518292 0.29749411926227476
Ni 0.29199669801524997 7.161714624075409 11.34663027334801 -0.7342003620820582 0.184240881662373 -0.7335293041569625
Ni 1.7273756129650377 2.950271328157659 1.6936167729828768 1.870280603333334 0.07622909496706871 -0.03624484126464726
Ni 8.916728024634521 -0.06035592830468467 2.769971105250824 -0.3302633432734957 -2.4164063118292254 -0.7483301166152209
Ni 5.666848264732604 3.064174196828442 7.056823433349455 1.833690977134758 1.401138094361716 -0.03658242710972409
Ni 1.7389677436410107 5.703939379339591 10.302040416088097 1.3059021192748412 -0.04533163405726386 0.632325284412111
P 6.666947302244764 1.6656373323361335 11.58575685587928 0.30911344866875795 0.41632253695710886 0.4979085253607167
P 7.399806988558353 3.8592814027383313 8.388471296529916 0.04302304052874526 -1.3210628861756797 0.44907607723904597
P 4.804021535049498 7.8509001247671435 11.546051030646979 0.4876899329565021 -0.12310519069331702 -0.6042298117274755
P 0.6384338193121182 4.1567973252711115 6.413732392208252 0.513187048786342 0.532781940199134 0.5817126044615659
P 2.393450923427355 7.679981009528755 8.509999787265182 0.17560248926108468 -0.2005707291706481 -0.03593913709877036
P 3.1063762188900115 4.459674145297012 3.2112164857192265 0.46607235468672636 -0.08797775086256461 -0.6515949312750003
P 5.156248240461132 1.1365380452127491 7.666876902064135 -0.7986671743068762 -2.21073759931038 0.41826140585103444
P 2.8481642857498075 1.011876345994458 4.99490837314396 0.9908450514281388 -0.061518271119455334 0.09257822574905346
