# total energy = -381167.46292372054 ev
CRYSTAL
PRIMVEC
9.26761017802921 0.00000000000000 0.00000000000000
0.00000000000000 9.26761017802921 0.00000000000000
0.00000000000000 0.00000000000000 13.56408427994329
PRIMCOORD
 96 1
Ni 6.043584629700873 6.519152041895733 1.648442782840825 1.0140759969316213 0.9702844536679676 2.1370333276476936
Ni 0.630866608134288 8.574124102265056 5.506475652648174 -1.5731256125780326 -0.7779335413039506 -0.6774715419314462
Ni 8.320024768589548 2.9983128246663635 3.535193818510644 0.529576802998275 -0.3582338603444927 -0.8421476140880142
Ni 0.10275462696503004 4.975789129393605 4.471874878191039 0.7019911243393652 -0.9380425629151263 0.0033856286427812665
Ni 5.0240548427856115 0.3535917618859322 3.1663188408115865 -0.7718312850609547 -0.18451830369347574 1.0539093268784752
Ni 1.7130065153517224 7.131833745495114 11.205914068675314 -3.583465517960519 -0.004858870754198084 -2.4998895172555464
Ni 6.252309744335047 7.599931463950736 3.807668969489084 -0.6940482153432047 0.24493074334326206 1.568957597243272
Ni 2.318042440619996 4.320633968713662 9.59506998000334 2.740885958541409 -2.258962238644722 1.2770558844671103
Ni 5.440494902553245 7.435097750742165 10.16576570281333 -0.6038929972133471 0.15391266299247686 0.5631626093735204
Ni 2.849317457115808 3.088069628468512 13.132461148868293 0.3357210239539573 2.0523172782555363 -1.8870675929836855
Ni 0.8021607723423915 2.09039286616507 12.706427259126889 0.25753326259862097 0.18501272683139106 0.24270545355716913
Ni 2.0151306045566812 9.06998758057522 13.05750657191517 -0.030488912617476525 2.324049715172675 2.1752486623751506
Ni 4.56556763600194 1.6937576891775292 12.47971742033593 -0.19198967236985645 -1.253471926499583 0.8375849344179962
Ni 2.1995375102928856 1.8517704413537421 1.2310046014656042 -0.2744439223110306 -1.5672894655122298 2.192925253719307
Ni 7.283896691988211 7.690716972473796 6.31876036226196 -0.3221916220089548 0.684537190528976 -0.8925695181839918
Ni 8.085452289391183 0.7545493522233253 4.543439363370201 -1.732595457943313 -0.8043899357232662 -0.6608408753533006
Ni 0.13321262755313118 7.766470417417395 7.655799397906388 -0.8199235125824912 -0.19106433234210965 0.9947598131015127
Ni 3.1612837482451734 7.061390641137848 2.241465105138657 2.8871045953237373 1.704247760038555 0.11254541289959971
Ni 4.794792704173579 6.537891149514519 -0.07638734947432367 -0.8540839605142838 1.2041735944850873 -1.5794320144120348
Ni 7.416942502559573 6.937482694123422 8.978582995697591 0.22882972401634138 -1.04407331462466 -0.7947141031963991
Ni 8.222501707525014 1.045794193933876 -0.0037923060522291135 -1.251887869841915 -0.7341337705101808 -0.0917827264309516
Ni 7.868126832585776 1.0345062448341324 6.857810903630256 -1.4528501780240268 -0.4921258572406686 -0.7199127418147925
Ni 1.8642075741056765 6.059886355863802 8.586662251967061 -0.8108973978244809 2.155699793708945 -1.1321834773000308
Ni 5.5377121324845335 9.245349298855471 5.705542064037888 0.3891886568547942 0.1922735221588624 -0.038983066131416735
P 9.076419301983448 7.978429927975881 9.889071935718137 1.5044182799093058 -0.8650476586146393 0.3758945108490494
Ni 9.165425429367632 8.454729481368508 12.160621556757933 0.0017648052099066378 -0.22884412219404457 0.8127506489831358
P 5.654715709975718 5.647014325984021 11.466560968885277 0.6884239271778917 0.6300585998651214 0.07861790691421945
Ni 9.146260011684323 0.7073447801875751 2.331638951395229 0.25841926474800014 2.4972358816827827 0.680936360551595
P 9.262170011183906 8.64073968365172 0.8159899001310921 0.40442064331320027 -2.1771577064724053 -0.8522451075333322
P 4.636446318033826 2.7295057937648353 1.1051402619594242 -0.08596226309443258 -0.431762782771579 0.46399875998714923
P 4.3291323671738136 3.1605886774878003 5.599498362248967 -0.22848776729589038 0.7627174956851445 0.9182975190777152
Ni 7.0048304167078514 4.317010333165222 10.462507164073187 0.2180380327174761 -0.23901077831440126 -0.4835764250087607
Ni 5.744277893965801 2.247043279656831 7.928600768760289 -0.10045017229796248 -0.5340595213599769 -0.05933900407994942
Ni 3.4442609549870205 8.177924502952136 11.557251021024326 4.1620658020453485 1.0504545355606554 2.372184623006689
Ni 6.186240951944184 2.7987163059790268 4.553395556898818 -0.9437193015849297 -0.8089266472513553 -0.3988488056523776
Ni 6.3008720212502 8.762015629398226 8.197820208311192 -0.32437808813731234 1.2627099001580833 -0.0977469144341865
Ni 7.787461554290071 0.243598204673111 10.696066693487808 -2.3667171721342144 -0.46504314209126363 1.80871708079824
Ni 5.054100434724338 4.155503691981946 13.041880454528405 -1.7048172593887803 1.5765120125517624 1.0284489778238417
Ni 3.584415022503787 5.529028381822416 11.589031509573458 0.8600967423672671 0.6528203190416693 -1.166984901249932
Ni 3.81795879698124 2.5426522389626767 3.4290407589225635 0.013515260877615433 0.24664644048278817 -0.8727437417073163
Ni 1.548441562836003 5.189481683040474 12.04888105504158 -1.3021449662252542 -4.456764360840356 0.32050883498989324
Ni 3.2399101523192493 2.43532404641413 7.747832326748681 0.5865578483690091 0.6304769183494625 -0.06190342237301597
Ni 4.327742225659066 6.841118084321177 8.024837485543175 0.13375264310483417 -0.5593350080973142 0.2184581509740302
Ni 5.468103113036114 0.5954550699486393 0.8768864393260879 -0.15160638345680344 -0.46472638218179324 -1.4762495307845735
Ni 4.750252570041094 3.2843946807911455 10.939461010738757 0.04820278495747183 0.7703693558034475 -1.9040695268583208
Ni 8.833923016151026 2.292575048069836 10.811687543552324 -0.4852550982627642 1.0027389746522473 -0.14872391970268578
Ni 4.326991549241104 0.5703963790038146 10.065431775605978 0.1891203212418614 1.3391613955486035 0.06740121226279361
Ni 7.725248087700105 6.686960657945861 11.366064858501206 -0.3078710916212246 -0.4071750661298859 0.14199071474391028
Ni 5.932530857892805 4.233675983161204 2.4362721229271873 -0.18033691862227655 -1.729152236589719 -0.7313374387119663
Ni 8.331674154483126 3.124111364140846 1.217529496382659 1.9410196217201086 0.915604031405952 -0.9264818546607206
Ni 8.071189437449881 3.3836229821137676 5.7058543824982015 0.8524806205829061 -0.16837383272312936 1.9354511264933958
Ni 3.388451406974988 5.066667314017649 6.4219023753291005 0.801847886027703 -0.5783778836613781 1.9241246457369827
Ni 8.774369353659276 0.6180263343430773 8.842059977817343 1.626268000928967 -0.09131812808970724 -0.8978636767033956
Ni 1.0943379356288323 2.3831844720010285 8.785226358889448 0.7517926212425247 -0.17123367076942766 1.83902113109842
Ni 1.6329714345427033 0.4546828528383154 7.245391625551746 0.3668714814148327 2.2398178045057877 0.7447020329443303
Ni 6.821100046508824 5.521873786826519 4.484923673209462 0.28768407515038846 -0.9135576903998847 0.06586009302791883
P 0.4055302291599 2.1774898658690023 6.773103093809668 -0.3164953429551259 0.5173270390966446 -0.8880847429397609
Ni 1.349623523396924 8.387252012242701 3.1567018418125685 0.5169002359718711 0.020255150704610276 -1.2077803379997392
P 2.832709899819634 2.393212026127402 10.410963496989408 -0.6188509040747601 -1.2961450398880774 0.2016091977374915
Ni 3.4009256101673153 1.2666228073564452 5.50731622488409 -0.09066249678357935 -0.6964876780226328 1.0982544286527538
P 3.8440563870180853 8.62120356156448 0.861746871469486 -1.2673882794703593 -1.231499793103866 -1.1871786025889874
P 2.795713600307174 0.4454198765450529 3.642132771435062 1.1757896440257558 1.3907179274696564 -0.4493766391986002
P 7.192647802960235 4.929043304057721 8.148555446550587 -0.34972068066715895 -0.9258542483790506 1.056240289004497
Ni 3.43515089426038 4.718890977468407 1.4010745143797205 0.2706371469704307 -0.06684919641406552 0.38493142424033705
Ni 7.210988403344794 7.690679902033404 0.014183150494456096 1.0035552999059556 1.401596264945057 0.34196700486366916
Ni 2.3691440427020867 6.940503935015471 13.443878797479838 1.9062125413432527 -1.4073401094073696 1.4355577094921663
Ni 5.844692449381007 8.99149092304252 12.250538690214782 -0.04497347938689674 -0.3299203581117802 -0.9903321163474623
Ni 4.003700238571601 0.057904027894250976 7.778879747339035 0.24483458408502995 0.2683925739106281 -1.3654442405045324
Ni 2.9055718504125596 8.000959488124876 5.152127653778219 0.5890423053537597 0.2576983274215755 -0.10858282870742589
Ni 4.695999980525578 4.356694239606193 8.732218409410134 0.4518567253079766 0.5544447698845483 -0.5435952287645541
Ni 6.695320042254538 1.8113636613251038 2.118099313314982 0.717772298433022 1.9182710151696831 1.656400558648289
Ni 2.9429944599895417 8.102560297632666 9.463159451669021 -0.8443081120744426 -0.4588740371660742 -1.4959025291288108
Ni 0.20642118676373394 4.651876888847516 10.037164638045118 -1.7022608115155133 0.17586911265891003 -0.18318004449802647
Ni 6.733113356235453 2.816232089064836 13.093898623249219 1.3276207418988555 -1.144536342438429 -0.6322340102498853
Ni 0.24882884381259807 6.3413807449899195 13.36675374624169 -2.7100579174169583 0.6869270309173912 1.647852411967962
Ni 5.96005565988479 4.489304472502933 6.455310256211495 -0.5933465891560684 -0.011467377209651219 0.19731802656130534
Ni 1.3981209270413886 5.911725073222095 2.2914888841663137 -2.7846543618766106 -1.5134896460829548 -0.5388209473043624
Ni 8.431616061783318 5.753072855949099 6.565776461539329 -1.191226033185484 -0.3846576017536601 0.138646995082658
Ni 8.063608532389463 2.936840766884263 8.573938750063089 -0.5933723001876813 0.6414465299870888 -0.6825268449671665
Ni 9.089495899832166 7.058387935465995 3.802826643212717 -2.493284610344519 0.013462296152492944 0.7265359035582649
Ni 1.5398041502243767 3.5840628533200514 3.0999219750232427 -0.4091674139695663 -0.3624414706679371 -0.5901622778908159
Ni 1.4817703757887495 0.3213071153474539 10.88734738563393 0.001705926947513191 1.930310719943037 -1.8179704810757078
Ni 2.036177347089947 3.4759932519636396 5.382296164657866 0.26597419427712254 -0.163296418200222 0.21551526629562237
Ni 1.3418850689648338 6.266164821432023 6.023606442611943 0.691121528614713 0.09166291302363569 -0.2529255886232805
Ni 7.076255887735539 5.418530666620246 13.567068504711646 1.1615971545754575 -1.9749946931139728 -1.0275532054824497
Ni 4.822280435725172 6.878420214966881 5.812141822432707 1.2915407083468466 -0.2019411271556135 -1.0343933683327347
Ni 7.159553167299164 8.826258702599722 2.2670335146388894 0.724418600104946 -0.6495933274639393 -0.934930499648706
Ni 0.8104988411478424 4.224973697278889 7.277022905578294 0.21057951955690185 0.4311408329168639 0.5777019406402761
P 8.669089302942455 4.556540983766184 12.123998741932436 -0.4139180412806743 -0.6243492081851699 -0.31749241676107254
Ni 8.069317380210022 5.14065064543247 2.443068061412279 0.847065877325238 1.0188091407412323 -0.6016198849084542
P 1.2914229319795272 3.922608650211375 0.9725893417673125 -0.35834570333200866 0.25757620002141446 -0.2394545507200392
Ni 2.9245982539443935 5.562187890754174 4.193499039863004 -0.195307938109812 -0.06075671036308247 -0.5025280264105991
P 4.845078756567018 5.845804562592804 3.2133723508027345 -0.8492896244494342 0.5544414274504387 1.7878271247231081
P 2.2659492042573866 7.797062798351922 7.319505630268954 2.084966431749125 -1.4669069132274093 -0.4955947896258755
P 6.116131481550456 1.549507337997309 10.73260888010545 0.3522604163698772 0.679036829536037 0.4213793826547259
Ni 0.9757310615906402 1.4585457448823804 4.702803333098748 0.3589730525033624 0.6122172008083263 -0.8616026374888323
