# total energy = -381167.9893299823 ev
CRYSTAL
PRIMVEC
9.25816243059947 0.00000000000000 0.00000000000000

0.00000000000000 9.25816243059947 0.00000000000000

0.00000000000000 0.00000000000000 13.55025654658673

PRIMCOORD
 96 1
Ni 3.89328864588057 2.804973166656855 13.197746254237495 0.6470944723014855 1.3868844126561792 -0.4213043064424163
Ni 7.0848456320425415 5.754095918276223 8.761514539621567 -3.4822221603372996 1.1034668260916287 -1.2908765924002863
Ni 5.668633823299411 9.131714189537206 8.68281460629258 -0.27769456803784437 0.2620748592227164 0.6975742262185922
Ni 2.6093944908486937 2.2109417074436455 6.900752632220539 0.7545480725004746 0.9874421963941769 0.7853375470775055
Ni 4.386665365998569 4.570912051312567 11.404803162168896 -0.23869041886050502 -0.27097267593297847 0.10995836889871385
Ni 1.6033377824915118 4.0869416239576974 12.140433582667214 -0.7472952475928033 1.971730163430088 0.20458165010225415
Ni 7.499102098269106 7.8131389590223765 9.654882749697007 1.085688419062285 0.9369187337233285 0.20070211254218984
Ni 5.754873603898371 7.475280847009726 4.628049724951273 -0.3547510440022148 0.03423475281315395 0.9367678099677608
Ni 5.054206632829143 0.6882517756013593 13.339413725922652 -0.46989995596293266 -1.037428812724949 -0.19724217901804741
Ni 9.349910555522852 6.781242720053097 11.260926692990353 -0.9858306289326828 -1.57805493155885 -0.9819138103767799
Ni 8.941116404975661 3.294035583204364 8.41980410633063 -0.8492482296885373 0.6700474815532331 0.17934987211865888
Ni 3.902815294751888 8.001394428555308 12.334282833782312 0.31524064461241835 -0.16407006314145292 0.5415843689821125
Ni 4.701720624590367 1.0061029991680241 5.62503621183204 0.2401937428789089 1.8031401009310946 2.1921557225431343
Ni 3.549079434620375 8.492919516239619 1.1922540884400694 0.5814441812915276 0.7814546670833317 -0.1735612904613398
Ni 5.325415235391238 3.4027726978726176 5.328502832474411 1.0803664926287393 0.23635328608689615 -0.36878361083588096
Ni 1.9378999887721995 1.9361964869332076 4.7525895966248255 -2.403544368264893 -2.7099838696459133 0.691453458032835
Ni 1.86844525618461 3.4230480730214867 9.182060075409147 0.6954430388082022 0.11494245237686657 0.33861994276830715
Ni 0.1689929373252872 4.345605416781566 4.758578701731586 -1.168222373201459 -1.1043826530376786 0.39641937027527857
Ni 6.424099856243599 5.5720063847474695 6.225909452887723 -2.0733944106408098 -0.2872619000113053 -0.15840360888429494
Ni 4.516242603707967 4.07729461897819 7.288655739834658 -0.2067449763021601 -0.8827008529200281 1.5509771015054514
Ni 4.282483267117185 9.242488099882515 3.8288555404531395 -0.38537391109439434 -0.9207169271524852 -1.9128123060479572
Ni 8.265215017706993 6.804795484609592 13.390241036227353 1.0623037215897575 1.524570843597781 -1.274443643655244
Ni 2.5303297859302702 6.143429411945363 10.952740064911316 -0.3898807978258125 -0.4375508502082658 1.2299627876340495
Ni 8.901806248408493 3.079579514734766 10.805190882800554 0.11692297314200507 -0.14894529168487253 -0.30215681484526674
P 8.50065933981243 -0.09870682177497245 6.488472783616936 -0.45204004496337635 2.0545366545043584 -0.4836540723242316
Ni 8.486577675154242 5.3168051445745945 7.060578137366644 0.8304568080136473 -0.5755262731451959 -1.2800579045182277
P 1.1623992928955214 4.250644447419941 6.8174180629100345 0.5306163000063829 -0.019353207715631187 0.30461170414366245
Ni 6.343739008621594 2.1493564126992246 0.8528896734426152 0.6695705419168145 -0.8657927643107798 0.5647188981170468
P 2.9204594815458966 4.151933922380102 1.7990405176727302 0.3588750934729174 0.7549226822310741 -0.23021966238533254
P 3.543385664886788 0.4189790547486827 7.602289870533601 -0.1286024663624624 -0.7208645642051005 -0.2825123011414618
P 8.29520220497055 4.8690989384334795 9.956551631609466 2.2811544584710455 -0.26375096137355863 2.5751415930213266
Ni 2.3483883829962116 0.8036945771282092 2.809794817514175 -0.6025717072987622 -0.3204381296529578 -1.0389455064797914
Ni 0.520842909823091 0.9719311226043355 11.082917231529228 0.2973331682043783 -0.664828656356455 -0.14121861246457615
Ni 2.0159925866629376 5.257265903669398 3.7075671353331403 0.03528042046884892 1.4336661488964084 -2.6920231714024347
Ni 0.9980391399193183 5.567293980203736 8.72735377285248 0.14559128761097506 0.4373623883465435 0.4546024063739139
Ni 7.235198185657905 5.47719354598054 1.1931891628190814 0.875562442103034 -0.760653156956948 1.512326479012789
Ni 1.4735938978630825 2.898721316774415 0.6189747997274038 1.4352725741515797 1.3553716867598786 0.1557412315607834
Ni 6.806258274232205 7.710975139493711 7.291243396160735 -0.349918655610578 0.20925463009789122 0.04078823766095556
Ni 4.561172464711375 8.173235176563605 6.571020409143123 -0.30797007909293417 -0.2576559042194143 -0.5836072503811175
Ni 1.68314314038341 8.98066727375921 6.3055574220227575 -0.22302777262258364 1.2494561204719707 -0.9982439149953712
Ni 6.454624016912924 6.195358443548109 11.435440272416676 1.67225783739552 -0.6166659806082994 -1.2769653816358333
Ni 7.9082758334652015 7.272943712818609 5.3644245016879335 0.4211685521955004 -1.5989729126584398 -1.1681596382843236
Ni 6.160631077254314 7.709160539708698 0.6760578502093153 -1.1047482639072135 -0.5154429347000542 -2.120185145742103
Ni 2.391753614593155 7.587952680599565 7.871736644835043 0.6444027844019354 -0.6553819091212584 1.9425640833890934
Ni 1.8577798533665746 8.285166357179968 11.18780943144893 1.466164892855062 1.6780114520498457 0.9097401164260074
Ni 3.67087055794612 5.728487841718335 13.323533200355136 -1.5004089016395965 -0.27221014788450537 0.5912488260867752
Ni 7.423972112272268 2.3603591866799962 5.861041578564884 -0.3981898319121401 -0.2961908270698189 -0.9881075978923175
Ni 0.2957593970003485 2.2527515677962917 6.484963014338883 0.5187501446964162 -1.3154056878899025 -0.4583600736441331
Ni 3.548273974511721 5.165721196147926 9.242684372920486 0.09977448638717655 -0.23974302849473547 -0.98773221683077
Ni 8.90867580473747 2.2515757812009007 12.946307531169873 -0.8490651671434538 -1.1905899422633817 0.2233537885034347
Ni 5.512133850004209 1.7917691571056424 11.139082798140247 -0.051608468204911113 0.3560772190128061 0.29645205115100554
Ni 4.1106980680818985 2.2300320378349556 1.8338243587557523 -1.6277188744428805 -0.7247119629756485 0.31459992570462597
Ni 1.0857046774922168 8.404087450233499 0.25066844397520904 -0.40768285900423984 -0.8533437399141496 -0.05563507286580096
Ni 2.172677723201509 1.1928308719431628 9.043793126688458 -0.9709742806461407 -1.4462391004654125 0.9665242152945871
Ni 3.9726496119883836 0.2075346664324766 10.363683016231205 -0.4532356079333743 -0.14908053171115615 0.5584580048089994
Ni 3.2037129530891253 7.461301022135392 4.530650155674483 -1.160852563099949 -0.7724995147725728 0.23167696365714938
P 4.6088890325274825 6.7262029459617585 8.139692855027368 1.1146174433918095 -0.17474091259173777 0.21844041036221737
Ni 9.179875149137397 7.492352898048319 7.560040247477954 0.5643226911198925 0.36067692256834655 1.2212737445004838
P 0.6089852427476637 8.207120050100071 9.573946970204343 -0.5751195246250804 -0.3996149943944408 -1.0064071675324537
Ni 1.0433208110851275 3.0021812790066607 2.9772351610438164 -0.5356767452484258 0.2664344217429927 -0.6669171634543675
P 6.635954381143867 3.625996245915722 7.366651127022627 0.06264004342872438 0.37333806297578287 1.275323475157036
P 5.766501855581923 5.722627425065717 13.278302449081252 -0.715135375030807 -0.9732749037548593 0.734393966150103
P 7.955751689064929 2.835025161055591 3.6165094071417276 0.023640265126759284 0.16812700681964593 0.8626950992220627
Ni 7.049914586181041 2.073235803350363 9.329500011206322 -0.09700900782689745 -0.6322702628044595 -0.1749607419120277
Ni 6.2360758407648795 8.582797754570773 11.499180867313909 -1.4693150084482693 -0.4178721408324158 0.6934419492177736
Ni 7.00245724690565 4.817003259911703 4.053531694140471 -0.14642381081459943 -0.08232492345216144 -0.7632990792202273
Ni 6.934270882535137 0.3566049645875114 4.625068596733038 0.51753786955587 -0.9262190879176371 1.3705995594532265
Ni 6.182489598133986 8.952689107686204 2.479778368858189 -1.0256619019970077 0.6327690568177489 -0.08579539849926514
Ni 8.245217387423176 0.7770708801804445 2.6450643380512346 -0.26436314103626085 1.12986639913108 -0.15014728241277367
Ni 2.5019998096948632 0.8465598679680572 13.229535079859028 0.17387367949543603 0.1165445067566638 -0.613450301884479
Ni 2.6429738450336027 2.420231721423257 11.30275692129977 0.8163635631453747 -1.796141301015758 -1.4954705837977147
Ni 0.903983618817767 6.475195653251185 5.493666593926834 1.3940984139061152 0.6262623660474828 1.347478400054731
Ni 6.333360608830781 3.578464841342983 12.52469175183562 -0.8336148940266547 0.05598397156478746 0.23411179835088716
Ni 8.280398403663224 3.3070525592131816 1.5174794381738916 0.026148119150277545 0.29364157828540394 -0.008988576651855486
Ni 5.629619927921632 3.8827898899815665 9.570220559931549 0.37373632685546604 0.28917351521172135 -0.06838440211166932
Ni 3.5018905820478685 6.455485025994589 2.1262517431916814 -0.3225070963668446 -1.7410685284113305 0.29553648131527166
Ni 5.595327695249753 1.844494390654872 3.4814263403907626 2.800215449539661 1.188912554560959 -0.7890612757859959
Ni 4.497272629424846 1.953157440025778 8.633830596075613 0.35588515760665806 1.1904349047427565 0.9372642899882052
Ni 5.497024529345325 4.1539614598949886 1.6428192150587972 -1.5023788808817737 0.4383514917326903 0.26564226485900055
Ni 0.02483316838438964 8.818686468460294 4.470988707028663 1.5482280780054045 0.6886087894951882 -1.1360123641278177
Ni 8.129657007236787 7.622356011217464 2.1272275534842344 0.5588195019134763 -0.2723477019036342 0.6951481332756028
Ni 5.6710224291388664 6.522717799661754 2.668289363666968 0.7559230984711304 -0.2842879049846459 -0.7321018276818165
Ni 4.375259310207059 5.351449187408874 4.376881340218969 2.0875023107971016 1.2241832048377947 -1.8858720300136878
Ni 7.954418513712675 9.18021770113763 -0.0057270991173930695 -0.18711511788637453 0.9487090414900371 0.11685432468759875
Ni 8.994397128254997 0.7854948819375024 8.732774426802097 -0.039383901114261204 -0.6004009248996884 -1.046454670372643
Ni 4.741910306563537 7.136145108617833 10.146174531694676 -0.22880709830852206 0.20966060728705826 0.5286805164362509
Ni 2.8910833329854566 3.954364741705727 5.149707353045185 -1.8281605342348322 1.818050956604656 4.631700420162036
Ni 3.712967421325988 5.989817985246712 6.451859529689431 -1.7930906871148924 0.006819336914678577 -0.8605333156840534
P 0.6328805593043911 1.179619474528808 1.4449861767626222 0.4528900516684975 -1.2284712906901876 -1.1837047851077744
Ni 1.6099295939554366 7.764505833151595 2.586933263611857 0.247264019462129 0.7961472360984998 -0.09956905524458981
P 9.444066064775821 6.542493234053529 3.4725783148063902 -1.4014299145705218 -0.14780706431537124 1.4649204789249997
Ni 8.33603995829551 4.513548478516952 12.639191146637508 1.4916535240444697 1.1255443747169585 0.12115115229073974
P 7.602136185041605 0.7950585634574943 11.406212254450931 0.981790140314722 2.0538707387855855 -0.04668017766535832
P 1.1331620167676077 6.108183588570136 13.129954287575357 0.370895000751929 0.5068955593506753 -1.4677520348365238
P 3.7572584691397743 2.51768313640819 4.193276245543242 1.9752734006966561 -2.6431824957506476 -2.7153489906125685
Ni 0.6436663182306163 5.570682467557384 1.570555556069305 0.03180634587731942 -0.8934915157776289 0.15138706835714572
