# total energy = -381173.65566529013 ev
CRYSTAL
PRIMVEC
9.23169843622514 0.00000000000000 0.00000000000000

0.00000000000000 9.23169843622514 0.00000000000000

0.00000000000000 0.00000000000000 13.51152381579021

PRIMCOORD
 96 1
Ni 2.642527550134068 8.278202561157299 2.632450228001886 -0.17385079667730058 -0.9047395778876225 0.4093530476178111
Ni 4.355579995619501 8.631859700733836 4.430064108993522 -0.21180799264736425 0.5727836774030524 0.4063124610192745
Ni 6.644487332971213 7.868804425763507 3.4161725065058484 0.8268091839587309 0.010022674343324673 0.547142322685864
Ni 7.083583842585623 7.2453232011014 6.7387512836486545 0.1533634753572262 0.2102733011703927 -1.9214452991326068
Ni 6.333896067109065 3.1008352244214996 4.778364093904152 -1.8712272835173192 0.5408968559967846 -0.09410571813717342
Ni 3.2778438123314038 3.9957191546204407 4.761623331761886 -0.490187245457059 0.9774130942929489 0.9414418184046625
Ni 6.349220686694465 0.2119893400382142 5.729642624177362 0.08963122730558758 0.39344331836609014 0.01726932860340897
Ni 0.7442143014089779 2.106544364285463 -0.10280788768122773 0.9337135965224694 0.35080440064964097 0.3059401931470989
Ni 4.132874499909763 3.5737843726019687 7.529918003859644 -0.24813305233064367 1.6202454488839706 -0.5003032508451384
Ni 2.8539888370154842 2.710195900472004 12.428305256892525 0.04466828944165211 0.7798852657136827 -0.942700630512428
Ni 1.0795271328059093 0.5481625657395788 9.136316636049827 0.933254911718496 -0.8667258176480105 1.2985253671947958
Ni 6.425465284981097 4.658721280755494 7.134003687361296 -0.5562062326603453 -1.283837169055002 -1.8049439869090529
Ni 2.3881111699208075 2.4343712113319125 10.06545016785228 0.20414841921957744 0.1951654989946768 -0.34460881336189036
Ni 1.0630485509023326 2.0561300585289186 4.958715479857354 -0.0072780217186519825 1.1599760740322667 -0.17126838066210506
Ni 6.181056065991073 0.9002770884891765 3.4585312321116586 -2.2794588159361773 2.3896969208588392 0.13236013363268173
Ni 8.597711647814322 4.591246796087012 1.1935487647102598 1.0776472939253634 -0.025565507173930167 -0.35818269539158315
Ni 4.933992067982861 6.1710489047678365 12.419198186277468 -0.13325230642964794 -0.6672336662535218 -0.5092712586717035
Ni 6.775254342867103 4.208832915541487 -0.030625236754580013 -0.9319770734473368 1.2189990895336942 -0.46903580819042445
Ni 3.2014330434709533 0.07616797518870601 10.327574093181113 0.5025563085453733 -0.5643735989624861 -0.6952280945839188
Ni 0.7359713177777714 1.7817362826633667 2.1781795754883677 -1.2705466225936828 -0.3718473373628693 0.6386905645085065
Ni 4.301325303268062 1.4018795826149237 7.8061618121136975 -2.8087965063404527 -3.231345740933564 -1.0348605377771403
Ni 8.286741882311812 8.267696888212608 10.518572397066748 -0.36658711740519445 0.8800371900449361 -0.45922499274758977
Ni 5.120592390681459 3.2795516765623063 11.871994794016757 0.1569995294479167 -0.3881208777119122 0.19763555780172415
Ni 8.304291341246659 0.9306013718711759 4.234782296982812 0.7501946806277855 -1.5675149512594746 0.02850247831506704
P 4.256810052882041 1.0601590292576157 12.118026022441212 -0.009000403726397403 1.3891873497577432 -1.3896444918998194
Ni 7.863302333430436 5.920242118685835 2.958780616714123 0.39986567695266617 -0.768436914667425 1.6274728198703456
P 4.665035762560563 7.143183688394862 2.96968417586612 -0.8055628729854448 -1.15296801814555 -0.8896870544298743
Ni 3.038013515819909 5.591418248196481 2.9569702806293656 0.5232629449651053 0.19442476417391033 0.8618690037763416
P 4.6344511452795825 8.249667380953401 8.842603684638272 -2.3056645277972683 -1.1482384738803644 1.4229487624789043
P 0.03272083232439061 1.4934211053913196 11.406293452364299 0.6804373094279894 -0.030709770379030984 0.03189582026733217
P 2.266502004981975 0.9779230586150044 6.319610013610026 1.0482960944567559 0.5154725023864091 0.5100212494638507
Ni 1.2141991511865124 7.416349648353873 10.663700237219896 0.5218588655287271 -0.8144426919735781 -0.5600173788763193
Ni 8.068467601903874 5.902637269559717 8.269768481366201 -1.3558797367445485 0.09458060089106292 0.4290834361672029
Ni 1.6619826891321638 8.800522833158679 4.7384102257694245 -0.23040915268831935 -0.23045697520711925 0.08781294314992619
Ni 0.8398113093563773 5.757478041631516 9.036209943362989 0.968099787311823 0.14268516970777362 -0.26463979173641516
Ni 8.40211041903394 1.2850524375226196 8.38288725315281 -1.2081940284983903 0.09865271407790752 -0.9097511721696011
Ni 3.5328694846486624 6.620992660173116 10.370432253678231 0.2978157642677516 0.6909852601471649 -0.31839204575720653
Ni 4.957976020803866 5.968006926959844 8.195752415108432 -0.012284730904624005 0.6187781418552956 0.9892432541586575
Ni 2.680691391920839 1.3070977336490852 3.2354693928380662 1.5149055525938748 0.7054873104180818 -0.2063156020742253
Ni 4.732242527971228 8.993068369720527 1.7677798008023988 0.8686723998514201 0.46404761094721375 -0.382008079945955
Ni 2.628135332101756 8.573275341764592 7.658264462396924 -0.46854267060408983 0.2828563147444419 0.49525668956016633
Ni 7.304775339733913 7.021463743073484 12.229159055870701 -1.605355419146016 0.5181958148548431 1.1779182603329843
Ni 6.282641676784888 2.1132188823338027 7.805634682126755 1.2383741516261961 1.7902169651115234 0.20631894450833502
Ni 2.383513784045187 3.661550130673287 1.6918721595126738 0.04090779395795536 -2.220968790120085 1.9672639001286183
Ni 1.7452710734089532 4.810979684865124 10.9360113418936 0.9604294152507588 0.12679806616387196 0.2755240427490868
Ni 8.351576101196304 3.1296658189788493 3.6039831048837505 1.1679426371775112 1.8007127224365247 -0.170550528659474
Ni 0.16481628364096684 0.3265833372523811 6.572383151482201 -0.10722965711364114 -1.3650716876564621 -0.31276698626094523
Ni 8.360521617086818 5.455019902187884 10.694830447884911 0.5965699811893725 0.9990119035096473 0.18305406044312345
Ni 1.2333641573668068 4.479764804452506 6.148716502816608 -0.07810368628196226 0.6832051019811137 -0.06188259643740956
Ni 1.1764230407386491 8.703913107880847 0.8869446694498793 1.6094468156065702 -0.23859040294753103 -0.07143887266727696
Ni 6.043679159936661 4.303079325991691 2.7040069697671543 0.20953153790836174 -0.3942084786668888 -1.3664279445740402
Ni 1.0462468595496661 2.6792143201535716 7.63514644289948 0.8935259685599901 -0.8883066291425799 0.25526992048574104
Ni 9.268440705631894 3.936193162399565 12.307011816043945 -0.5960218219953863 0.22371400005633083 0.44507209828597544
Ni 7.588520826225977 0.259490121733824 1.8257179408734618 1.8879471673751616 0.7630406833525181 2.063894955790807
Ni 2.876744973929947 1.3930633105040466 0.7312733063880066 0.5305355673671186 -1.4700279753548942 0.9283592741890915
Ni 4.47326568867653 4.270232942567083 0.6697874245659384 -0.2440041177639346 0.18641423516460798 -0.005357921877803676
P 6.432481375875617 4.862178684998031 11.407171386895968 -0.18287691143531085 1.1248974851615787 0.06666279143487228
Ni 2.7432453812646123 6.220678516148021 7.785326791666536 -0.5028036486694889 -0.6396323595964855 -0.16222143996848834
P 4.3904296576284665 5.4150281840891195 6.235189823091568 -0.49363740878918855 -0.3371775538948258 -0.6356893157883375
Ni 7.591973481481965 2.198944435026583 12.812059580066846 0.026657454686528283 -0.5185148887571587 -0.8487993150765768
P 0.8089192765138346 4.664768043302746 2.7920081361513813 -0.37246337368031335 -0.8954509534968449 1.0140178900001762
P 4.529477501119599 2.941200693174077 3.4157404630139223 -0.08130753793124061 -0.6037916957487923 -1.1436359421113464
P 2.3337364654882773 4.233380001973762 8.64301066940685 -0.014986446106503225 -0.8039731599008217 0.9899492790867468
Ni 6.362412783915871 8.997656523897602 8.135545123534905 2.0825835333392457 0.9211959236714328 0.5175610094843216
Ni 2.158343424823821 4.726860447719248 13.393001137831648 -0.6104084297343616 2.136050394909134 -1.530905784676873
Ni 7.969660732372232 4.923818736185807 5.466978644483622 0.8054903678762968 0.18938720175000287 -0.6346837573419585
Ni 8.737156454342909 9.425010312962236 13.280112235338821 -2.513945224017664 -1.0083645483691408 -1.4982707722506714
Ni 0.18201216852152277 6.320473177424023 12.760269751227032 1.1177662734334364 -0.2175127563416254 -0.06039624169987017
Ni 1.147961714123116 6.446984374290474 1.6308543248068585 0.455030495050268 -0.2583722135601486 -0.2214483439506057
Ni 4.722336915431991 7.894228523557597 6.670396094938937 0.1558651587331574 -0.3868929188420821 -0.10451457217532323
Ni 1.5198237632312241 -0.037462232697318895 12.030390431319384 0.5940734400197639 1.4731333537530953 0.31560291304784355
Ni 5.824592490056728 6.465373917792952 1.1532948663728058 1.2633642459126306 0.1204268725302055 0.4435687742675716
Ni 7.362519614135522 2.5343782016744596 1.6016286135517641 -0.028944965169124343 0.05616883388208391 0.5328567593011275
Ni 5.751615913055174 8.90610576942266 10.664294758606223 0.026775725431947433 -0.6060599229576789 0.6303221379391531
Ni 4.0978309722313435 8.425909737884036 12.965861524173269 -0.11730221085829476 -0.43083898540572896 -0.27199700343243477
Ni 5.577072188656897 5.747138539260645 4.49229775839777 0.24355031805596764 0.5513879853360956 0.42817506542032063
Ni -0.02329157543009748 3.2986520608527834 10.025186114646427 1.1168504464873863 0.35703958292607546 -1.309860589701957
Ni 4.964715160742023 1.7784497979811968 9.958668957117103 0.24751778734414792 1.0643413208450767 0.6101783160014266
Ni 2.852336362975854 6.829361328041816 5.568206988543729 0.2642086177362675 -0.314904087208606 -0.9269271697282552
Ni 0.9939215921942192 6.266200021675492 4.25476523165423 -0.8203199766899615 0.0967063889848141 -0.14299138809428275
Ni 6.7768975852081885 4.142346222617364 9.3596083446172 -0.4044612667431486 -1.4143142267323578 0.7478943146293829
Ni 7.542288479910508 1.8149057755370646 10.297780632465475 -3.085732341835402 -0.8139102165088757 0.7718585387544642
Ni 7.815602147046246 2.2280612122388415 6.086806886031305 1.9740660106521164 0.4755874932660132 0.9859211317639601
Ni 0.05164304483294028 8.381496036182014 2.9013705297998578 0.6753123294965983 -0.7470587061019649 0.8500663547144586
Ni 4.0404651974700965 1.7725876694048541 5.1867772070631455 0.6657467972953501 -0.8044876376433951 1.3389215116236555
Ni 5.4320606679054215 1.9881293670433464 0.24159539727337975 -0.42583844686734407 -1.094481848984199 0.9544143194049305
Ni 8.267715351609699 7.135696780874525 1.1021724893378273 -1.4331051341866157 1.1134820442357856 -1.0942332233085026
Ni 0.29070341768574737 6.74405120178358 6.600812167152826 0.9885832519771556 1.0463777943881205 -0.10096593559211645
P 6.553878211747905 9.014762861302266 13.790942735330573 -2.0771543919038744 -1.4051310175711929 -3.0552115475387254
Ni 3.5362113595221043 6.657540954714439 0.9592454861179084 -0.8608048241778853 -0.08255452296446426 -0.7711959654698008
P 8.404464502163021 3.726541288433052 7.683233437452725 -0.6102338518297102 0.10749242385672456 -0.21912303825153878
Ni 6.195697539884111 6.57493571613001 9.927268257684709 0.6234518931818811 0.5771692080652576 1.4268648097038588
P 8.477099506318396 7.792938327117236 4.8703912040240365 0.03344542414263917 -0.24792350742299885 0.547083958644103
P 2.219854232231962 7.155397225570454 12.650596249337575 0.61961066505892 -0.7365305528771315 0.06275548596066612
P 8.930135880736392 8.151885229960302 8.449850301721876 -0.14101446687357005 -0.3840348805679967 -0.775573011491574
Ni 4.268672785512907 4.2689405047707245 9.95484518757959 -0.45846008955710726 0.34668935004000295 -0.3934242922026966
