# total energy = -381170.0048011294 ev
CRYSTAL
PRIMVEC
9.28051385226040 0.00000000000000 0.00000000000000
0.00000000000000 9.28051385226040 0.00000000000000
0.00000000000000 0.00000000000000 13.58297011149545
PRIMCOORD
 96 1
Ni 4.39842515545448 3.803219418581459 4.547822862668666 0.649830640285726 1.7169122428801011 0.19676523938162888
Ni 1.020011964356074 8.914230246357155 1.6975312162083611 -1.0814998349022342 0.8842645978627223 0.8675660541611188
Ni 5.842723638534507 6.030060085163006 4.366680230787015 1.0406992559461046 0.9612367416434026 3.2528087959033463
Ni 8.562266769770122 3.0908193565313518 4.674796064979038 0.05775546164291343 0.41347992530199107 0.03571622245468688
Ni 4.0948317155179845 4.868418203438582 10.843339045363772 -0.7000975068610782 -0.33778022047583117 -0.1466932624259022
Ni 2.4880407205971573 0.42909939305376316 3.3183877574736926 0.5217632204911272 0.07585551367773387 0.5618608598429614
Ni 0.5236223516664613 6.0069144843559386 0.7126292907349253 0.9112398408999854 0.0633964619787747 0.5064366174363859
Ni 1.3812652350120216 1.143507758237251 7.568199409109414 -0.515490500108538 0.15596620308739592 -1.628035634352351
Ni 3.1932391041283057 6.075905822126486 6.141919971148472 -0.18893031671824234 1.2489586120102618 -1.2883826223338393
Ni 3.1639498033475895 4.556184605382047 1.334374512222209 -1.4404029533996097 -0.25644362907886803 -0.44354563433912003
Ni 7.71046411360495 2.585653162172435 12.427385357663123 -0.6064034223400266 -0.1560335659902216 -0.13166696422039906
Ni 0.6177332554773015 7.191785491509429 10.790528282976995 1.4985294252286967 1.6256223969251677 -0.5801588868212009
Ni 3.010320181952158 3.010366584519935 12.466720814367518 -0.4091625288735598 0.4537703973909217 -0.07431747976665266
Ni 0.9606537996559907 7.362816075821161 4.65041522781775 0.8630637954153911 -0.3490475658595344 -0.05511339603437605
Ni 8.24688707761832 5.738076567684266 3.137611705877477 0.9626045685252067 1.0581385344684744 0.3032814153680132
Ni 5.537691718996932 7.119963597104497 11.178308973579584 -0.5486608162129196 0.11996278840959342 -0.4429589085977146
Ni 4.255180428727496 2.2035372970440377 10.495058076555507 -0.06952597191528026 0.2970662876962368 -0.3984307442783525
Ni 8.14639767684088 5.040998633514059 6.367913468940469 0.5670789137087912 -0.05004446615190091 -0.7921314300708874
Ni 1.5785411116583112 4.418758760654273 10.650025948005622 -0.598322187993789 -0.8395474574610058 -0.6009218304001651
Ni -0.24829364381417093 8.837276227956108 9.28841498460114 0.2729868781495299 -0.9665185588676323 -2.040883068276666
Ni 4.63154237545157 2.2720274870825956 6.83314375736796 0.5613929190676074 1.0053905533424814 0.030316134485038112
Ni 9.233349985471767 5.666663015875771 12.165138461718469 -2.061446494250314 0.4743970725023378 -0.7980138569935934
Ni 4.483954368380679 7.414452853243185 1.367125444559075 0.39106581927284906 -0.16189285298447603 0.43288044131578995
Ni 7.1315363975080315 6.593210928215813 7.794152072641766 -0.6481820489387096 -0.37966580496602353 0.10727028054358946
P 5.066232349871083 7.2912169137415574 6.3193271963240925 0.6747983659746571 -0.14011998008375867 -0.8816868098332171
Ni 4.557660207037348 1.6026797274158031 4.634373860137311 -0.33149541590838394 -2.074739097594162 -1.6675059245328314
P 0.5556345551243205 2.331701189243561 11.170539327631037 -0.5553608539409145 0.718064375752144 -0.49109818730710253
Ni 4.872807886350268 4.829625656777177 7.120885152100545 1.0513071133689378 0.8011881409565169 -0.7840687076674109
P 7.744273024487128 6.4200551062999045 10.643805219769462 -0.12038007845267011 -0.1383132658923231 -0.37550113206537267
P 5.234682951414424 2.650755964763286 12.35888588711101 1.0812090431346928 0.21284774676578827 0.005001824089965579
P 1.1974368225074485 5.761639791601326 6.835276419382982 -2.1622800180296244 0.5761705915974141 -1.23519009747126
Ni 4.494905374376003 7.164333732412674 8.402343104081446 0.14898797199734987 -0.8361854829673083 -0.48758708883005064
Ni 0.5677920278818422 3.7121311780356003 7.70474917335756 -0.5861073910951519 -0.3762704061312294 0.02623810776092255
Ni 5.28575361750957 8.996789694945639 13.195800743430674 -0.1301366436188017 -1.0889706893579825 0.646051375748952
Ni 4.1386728615535056 1.6465115929377687 0.4156036702415585 0.5285846142883348 0.3896298581572709 -0.912990247932189
Ni 4.940073048599516 5.374336119395483 2.5981233882367722 -1.1222754741576995 -0.5553323146958242 -2.2693800915439364
Ni 0.0317607015405089 8.395050476529644 13.118337224835438 0.9671806179316632 -1.1339809355200858 -0.817363722275115
Ni 1.743418715482839 1.0862933921684559 9.798088724393896 0.6413997359095535 -1.587748761807846 1.9057646551725567
Ni 5.942312829497077 0.5254283396043344 11.187802938946717 0.6409968440441799 0.45482506390768124 -0.2057324758772457
Ni 1.702231796324151 2.7215941247313498 3.600465254783441 0.5194849659799118 0.43200858023379796 0.9763597133277699
Ni 9.04797172720345 1.5144591655585498 2.9683954619658186 0.8620772631324056 -1.036602974389544 -0.3262945884337348
Ni 5.5565590030549785 4.307791660072833 0.22911082229524157 -0.412094100698058 -0.5649166159501496 1.0408393810683945
Ni 5.697381515744013 1.3328209542530418 8.80495591144821 0.20771428219396487 -1.5013165010555307 -1.193663438982383
Ni 3.6709628199040227 0.36913985107529257 7.739358992559564 0.4799020614809671 0.7016203712635078 0.7035908647263174
Ni 8.78935165595623 1.3499899043304582 0.6915467480912137 -0.2847622735179031 0.2170486722210133 -0.5898120936402487
Ni 1.0715095340747673 4.88280299944939 4.831095690124346 -1.6102726539419752 0.17679188158349554 0.5833267430262212
Ni 0.5714040037575884 3.7056533795739584 12.887236660433926 1.5306923831144863 -2.6527102327354246 0.37365328022335653
Ni 0.31095845549402895 3.8306340556239933 1.7419069198246708 -0.1529680396910204 0.14153408682246593 1.544131796448844
Ni 0.17209320311382015 6.175114512033285 8.721679079161898 -1.0372843167272845 0.3926629885566399 -0.3110158078977934
Ni 0.5433629320500678 7.947878211378172 6.879842373527176 -1.219546734507048 0.02818623262622888 -0.6180813728985872
Ni 2.310523057310229 5.248186098637472 8.4441109833887 2.6750654605021738 0.2208338502950584 1.6037865319969993
Ni 1.5918679291238087 2.06714158932091 1.293305455585674 2.1515014393568817 -0.6204398458284347 -0.07082952121805221
Ni 2.2701249818037463 7.6987799470387515 12.752914219439068 -0.16595056799361743 -1.8644154028018085 -2.3328940529371827
Ni 6.571383160333607 8.830696343845359 1.8603782436669758 -1.1871984000833296 1.2891868634026893 0.45835133189338484
Ni 4.445412395585269 2.6143206685449423 2.3171864660429775 0.5510555416973413 0.5601683026318869 1.8343494366543636
Ni 1.406433987774158 1.0936714004449672 12.691424320775317 -0.7000681962850395 -0.05573200345498144 0.14420392034514518
P 8.707033500720184 8.263202220448644 3.606278568474518 -0.871849254917505 0.9817058081310318 -0.5539788859917233
Ni 2.7301785997700576 3.7439540590169296 6.352252602315799 -0.8349827209084588 -1.2186183091555076 0.24178448440479647
P 6.844258100401859 5.980752716643378 1.4763468805407525 -0.9348680218418868 -0.23491449675784054 1.2648014925797895
Ni 2.076932531121815 8.094463922985085 8.360290313008043 1.038364951385973 -0.8113092885509188 2.3968762122160983
P 7.4015900614554555 0.0560478055148863 13.352819608376523 -1.0110194694934846 -0.25702906926869284 -0.4804512491162177
P 3.092350641267986 6.830263085960377 10.594526620841856 -0.22066724281020705 0.5292692990601853 -0.0035175262349552328
P 7.325127910272843 9.369142459813796 7.718047221231035 0.24223982677466027 -1.9701705322524523 1.3479658812141109
Ni 4.545669783523824 6.139004033789379 12.891311733936087 -1.187973330576141 0.15643697207622737 0.9661570617631553
Ni 8.815411338019679 1.8337923564849357 9.264888882738303 -0.3804173384200675 1.1739183951449719 -0.27754647249575426
Ni 4.085551201962624 8.87647711721395 9.879328483954806 0.02213745532898768 -0.3522182502780321 0.49403772955140074
Ni 6.52701302502543 4.684710437610228 11.69121511624367 0.3726513213214034 0.4439223009522483 0.46727640229715656
Ni 8.104820976112867 1.7829908252828943 6.853205443520582 1.5428084496517303 1.2236818397213443 -0.22159978192680546
Ni 3.3765942104415556 0.45227376345285286 11.843996498700143 0.4678019357833233 -0.09691979054720082 0.3508172561654474
Ni 6.734376819906396 4.057124988942556 3.260959011541768 -0.3704067482616008 -1.4742001044547128 0.20102401465798284
Ni 5.387533009671205 8.392136395273262 4.34080430289196 -0.09532030727056487 0.04489094697541946 -0.12597505604194434
Ni 3.317468058580356 7.2093720646968364 3.786456954997768 0.5162096376627496 -0.6533502234032103 0.612426488605655
Ni 8.325446624864444 4.354880985852731 9.760137920311962 1.4211315067645072 0.8402853640682948 0.8356139267345545
Ni 6.739072759765408 2.435949198010921 1.2212506202905025 -0.2726305232513756 -0.07182659502399888 0.0995438584336092
Ni 2.6679156343271466 2.8530247577023595 8.864123825620409 0.5377379986528288 1.1894704839469579 -1.0416711329410706
Ni 0.4043779610449949 0.8854120360059088 5.22022019908975 0.5670079512615396 -0.8037461314916802 -0.3523915426311028
Ni 6.3343217220754875 0.5640269235324327 5.870967025437535 -0.24393906885395408 0.4706679444772088 0.37181134191861126
Ni 8.434956684817692 7.716366520226159 1.4532829482529714 -0.8391551071185934 -1.6633160548212 1.393984256925754
Ni 2.1596219069000737 6.9564131067183865 1.871040625690729 0.5490814486901059 -0.5745811356231073 -0.3909454916449009
Ni 7.663671764258825 7.686835926093004 5.884237231770344 -0.4106098028430477 0.7399902292909579 -1.508303988116957
Ni 6.815998936625788 2.7445726762944216 10.154696169964032 -1.0485210659833686 -0.2816772068346762 1.4950836327719412
Ni 2.2193512921423713 5.318235414953331 12.694738392165936 1.5491763008512869 0.828785076738179 0.36712113553179354
Ni 6.975568086696649 6.870234257843312 13.122928294891274 0.24978730010461497 0.4950070354432055 -0.36505628258296485
Ni 7.017311836668659 3.6185928819111255 7.954445102769945 -0.04698176806617715 -0.1842390818901601 -0.9008749527258937
Ni 8.051569389332212 4.627180534080551 0.2952363374798934 -2.803517260219385 -0.5822913597831714 0.2845848673997744
Ni 6.897324076911408 1.5853715696350565 3.465219402689822 -1.5074809779950296 -0.2592006229987149 0.7146491794230079
Ni 6.012157974514717 5.182934807829737 9.443220447064036 -0.13075627948067156 0.9621494832656592 -0.33074465378528844
Ni 8.492198892427155 0.4078553694741883 11.394033583122575 -0.26573302480059396 0.8397346337711473 -0.46589494856859764
P 4.512556911158298 0.08658255121473211 2.5411020568499287 -0.1676328407920468 0.6939014053526953 -0.3309104899391914
Ni 2.9881675960955136 8.7532875802801 5.807670210784556 -0.34509089520463154 -0.8110804603695645 -0.8697869730718375
P 4.815324385388367 3.511143095967166 8.702717133865587 -0.4322860022649006 -1.0821140714474653 1.620837831052331
Ni 2.893181539856403 9.100350945709902 0.57407307945611 1.489892318378989 0.797445386084633 2.1151946345060475
P 6.650861478421709 3.2150947135511787 5.781916785668432 -0.3600904539372573 0.004158502253063806 -0.889816380918887
P 2.643415078540996 4.713210894738739 3.5552060462766604 2.065405993118694 0.7289866790916026 -1.8065694383276178
P 2.525951618470803 1.5884898221896575 5.476083029759674 -0.42161798102809317 0.3929877188859102 0.5481072577022947
Ni 6.723323728261962 8.03802912005494 9.517247391489722 0.20845064613935713 1.7029904905926865 -0.4222656419144212
