# total energy = -381165.62113657803 ev
CRYSTAL
PRIMVEC
9.26187577344677 0.00000000000000 0.00000000000000

0.00000000000000 9.26187577344677 0.00000000000000

0.00000000000000 0.00000000000000 13.55569139918760

PRIMCOORD
 96 1
Ni 4.8332543849450325 6.127453356718033 1.497768521490966 -4.43174315620567 1.8562086986212998 0.3150367561317284
Ni 3.4408980520226335 7.966676679708016 3.0397828766942276 0.7012725010057858 -0.4160841956940576 -0.962323032729046
Ni 8.46466922493173 0.3914031722239273 7.826689908277521 -0.3808246011608151 -0.13074985172276837 -0.7520073083564919
Ni 4.005177843306573 0.2858770625813718 10.647426640567934 -1.0281476445333388 -0.01659852778862948 0.7014900163332306
Ni 2.7735984147239012 4.506504663866558 1.8647073746226093 -1.1403644704489264 1.298905890462666 -0.6313786042281255
Ni 3.6550140998667384 3.355559127166003 13.572771630595831 2.8125462031908723 1.4492922854694394 0.3296966721367483
Ni 6.008410465337278 1.3787135896714968 9.053669889271328 0.502112021919103 0.08849582814956372 0.23288049704694733
Ni 0.7131060971059213 6.199408870849915 13.545199952127664 1.3349195895531139 -0.4437850040434357 -0.6602374374413469
Ni 8.083932029033493 3.054520373680539 9.709589459609854 0.4283884669827073 1.6197931918379005 -0.7660789559582096
Ni 6.023618465621041 4.49498289020456 5.709386169867478 0.07673843050331945 -0.355673041595852 0.1217111385592678
Ni 5.955914152542902 7.015769139431761 5.897891278378659 0.5374122398822938 -2.1410280506293837 1.312495970442275
Ni 2.813396695612651 6.062240488266163 9.761738452056703 -1.6271689154766817 -0.46810969683172926 1.2594993636405856
Ni 7.087363440402214 0.253305823483986 0.6023850012519393 -0.8921751109590507 -1.7326095990107 -1.5946529451268472
Ni 9.14804747885203 4.091304027617601 1.107602735891832 -0.31727387299236326 0.7823527534175687 -1.1104535418221069
Ni 3.470563840639498 0.5622921927084855 1.3568842742824594 0.272603269557866 1.4097412626496948 -1.0109860451523878
Ni 6.851657959755765 5.836185882343025 1.2609488371696456 3.39704871169275 -0.9674575257421338 -0.7629584080513571
Ni 4.08358888496451 8.002010736396539 7.29145721229805 1.4674190769771374 1.0707361686278272 -0.14024956368308747
Ni 7.426811193386317 7.4690916570254 2.9792426246511012 0.2586635195483223 2.518479364442592 -1.1067655514475585
Ni 6.28339556182017 5.26238488259885 8.119018793634574 1.0638013891812066 0.5851434845199858 -1.302648131113918
Ni 8.635208146505981 2.013605923076877 4.700720645078695 0.42747726802234765 1.2328524504770186 0.5160175762566016
Ni 6.790872268000386 5.483558479904726 3.6031438898855064 -0.49125965258563137 -0.19517424074542516 1.107074340937229
Ni 0.6136307710111015 1.0526029380324735 9.445429643718718 0.7020461459470166 0.7583448205387456 0.5479301086944822
Ni -0.09302165094395153 2.619693822327262 7.553069086119721 2.706547847381171 -0.3333712927748581 -0.6989909040604607
Ni 8.328556696204464 1.8833283761880808 1.2657224080260714 0.6460632028234937 2.5683492526898415 -1.26897747833435
P 8.740969507797262 9.232543572998658 1.9416902350115113 0.41973027708707716 -1.8989288631976458 0.29331170574981097
Ni 0.637186500074252 4.900152914816906 7.801218823271203 -1.3138499133670083 -0.3029800820775105 1.5648191495948662
P 1.1410445913270215 4.602957839844087 10.302284686259558 -0.0720983606281468 -0.309939287004163 0.22429044138509113
Ni 2.9427387930321047 5.4695359997405255 13.163660677773532 1.1777971613740876 2.0075962811990777 -0.47802412773196384
P 3.2040811462640932 1.673565410032994 12.676130347604957 -1.5985124280822534 -2.7453712480062715 -1.5450746199780876
P 6.989956291203475 3.8152260297744873 0.430663338120907 -0.26392682482979063 -0.7504394496487399 -0.32750017870606174
P 3.101561441549741 2.687435182909137 2.808427699174016 0.44682044843564983 -2.048934734936549 0.4166858338337985
Ni 4.405457597425724 3.0032281047575937 4.741062598084775 -0.7562195466656266 0.24556323472093836 -0.6804558213707507
Ni 3.960961647597266 4.863790789899701 7.920143162640002 0.7972119299175883 -0.9456954514746939 0.04609525169616578
Ni 3.4667201621268537 0.992613767607425 5.900264170992971 0.709058829819424 -1.0269297129658377 0.4162104368592767
Ni 2.0471524377101216 9.036247374451728 7.638822016830605 -0.39515747284371944 1.0082737884275472 0.5728741802343295
Ni 5.013231158096112 0.6534540589648734 12.626652480177498 0.8750888449007252 0.009619011147002787 1.8808146700954382
Ni 4.728641496269578 7.01724177770528 9.16420296904385 1.0685813270683533 -0.06830418369303719 0.6484103628994317
Ni 0.7617930003286096 2.4926671938913287 2.730956737923388 1.1009944532917362 -1.0262511988415743 1.473401262702501
Ni 0.4071344684979654 0.10024035704697495 -0.20656669277023512 -1.272067173003267 -0.7490466830662713 2.0838068642233853
Ni 2.5154884561929065 4.325231228084707 4.189373400945627 0.6909330667529907 0.5402042008051342 -0.8865189411145378
Ni 7.092124044632333 2.974006886185565 7.309215007026465 -1.5726489300519304 0.14338399554701112 -0.04351412123255087
Ni 6.495742591360865 4.760039255686116 10.299316255022683 -1.3803707799073777 0.05451587165969321 1.321249548265189
Ni 5.751208170647824 7.667314325766621 13.458456926879427 -0.027630103012442737 -1.1383757221536717 -2.7397916970359653
Ni 5.376954287903443 8.479617892689339 1.7829666885663695 0.1589867350812746 0.915999467072158 1.9448559647470633
Ni 6.345950271878959 1.8877370291327038 5.066494354217831 -0.5380591294376733 -0.7531100545023675 1.54070914392054
Ni 3.608232364523691 4.623630346928958 11.147712426272927 1.0380692745224251 -2.2321847134405624 -0.17977076170616138
Ni 1.4677480030258263 6.806460005197445 3.943662315727588 0.9236739528982801 0.08457309605638982 -1.3242585102948419
Ni 2.212449137505681 0.6324879504128922 3.9029823042499134 1.2001307918742816 1.5644052019858992 0.41384733594373885
Ni 1.3187985142539211 4.042345751430044 12.656759134088825 -0.2942786976487706 -0.24503975811730058 -0.6690442370996993
Ni 8.549971102284625 5.810660152268696 9.890761014756432 -0.12350551145552924 -0.07564879698356648 -0.06355381349224538
Ni 4.521721926026254 6.0501907876759216 4.011399971559089 -0.22872353745578028 -0.414589356316086 0.3737296419872467
Ni 0.03157836599725223 6.683953172217344 2.0654400117419662 0.48526255446193195 -0.22800465701188471 0.04366967297380866
Ni 5.392051145675995 5.0156021983352375 12.70320095858509 0.631561409662893 1.6040423567615474 0.6622441834587304
Ni 0.3661349223005651 7.662877887194195 9.0859058484599 0.6511056503434077 1.020633595544481 -0.16590197414386912
Ni 3.5850776746884865 1.231107072910034 8.745752340529622 -0.5158897924294857 0.26329716166559175 -1.1325552588171528
Ni 6.09166546810874 2.97930467921986 11.975247148169242 0.36866893963488767 -1.345119155793935 0.1313913419615092
P 7.8646571162941035 1.1731925626942197 10.347655837897843 -0.2217357932840375 -2.869952766134799 1.2413951978407074
Ni 3.008609254675295 7.920432133169144 5.295870268850929 -0.4121411518859096 -0.34235575566165555 0.22049703578092994
P 5.009665335861491 3.3107779570247167 9.5488866502776 -0.7315516116053014 0.12606144510816356 -0.7233773033246251
Ni 5.589051246793917 2.0626846036515767 1.2738524827210085 0.74058646811406 -0.16797711150534297 -0.665970226160066
P 6.7304107419026975 6.616119192876127 11.469728402561492 0.655321231086652 -0.3253301676379365 0.7087369277036311
P 2.5677624839648647 8.181570725130584 9.891683497599466 -0.2464212118458595 0.49172707914035313 -1.1355300251747604
P 8.168326242544847 6.5066623430871475 7.556742346115177 -0.5728674953661101 -0.0565491000396381 0.9045914823455324
Ni 0.18880426710385287 4.540347558529693 3.389289026942742 1.516429188327253 2.3304946994670703 1.0820176550789173
Ni 1.3368036010697764 5.427061036706825 5.71821088525747 -0.5286830875394121 0.11239140382023868 0.7078596673050003
Ni 9.078425957455536 2.124081579218606 12.294428990421979 -0.6022035253260661 -0.33810032281941127 -0.5479211098334177
Ni 7.746790483156977 8.734263909620987 5.712639866883119 -0.19605381513690107 0.6930244020643807 -0.06464421834294673
Ni 5.196810800985549 4.127897699433158 2.293812865211404 -0.06564746279648048 -1.2526306615452103 0.9801042679718668
Ni 5.80638116558715 8.348469729462739 4.145642527535266 -1.6566273299471148 1.1230748301305433 0.19966672929914
Ni 1.4352480803731327 0.148717941873553 11.474472335414928 1.5082363681038156 1.9374604436139407 -1.5285467975263933
Ni 2.3274075415995052 6.480349353558421 7.725130660097533 -0.0912412521051848 1.0441617605734081 -2.056554970485968
Ni 8.382358933505545 4.390842357201743 11.863684147792855 -0.3598901650009931 0.6720506280261909 0.8584877460089344
Ni 1.553679687942238 8.763661103835764 1.968489473026777 -0.8941296635822601 -1.0412016495038197 -1.0002617167563481
Ni 0.5210509115492057 7.644993204765483 6.751113813178152 -1.0433822020949064 0.05883301097780835 -1.8572309692382272
Ni 2.7252421604720594 8.312366937071689 13.138420213477973 0.5129844458572327 -0.4825780656512334 0.6613880061060222
Ni 2.1708911001894555 2.9313837331369204 5.93122476986542 -0.848073749764462 -0.5678834118879574 1.4483466337267186
Ni 7.553689631807304 3.4706749831507064 2.967055848297037 -1.5792116708711126 -1.7826090708572782 -0.5847143674023673
Ni 8.633476175706308 6.682832485229319 4.838867081761086 -0.8018645981982513 -0.5281873788499162 0.3111479626002835
Ni 2.3329368815321523 3.2123890489769646 8.765218951367876 -0.30524342419039047 0.689599949763864 -0.8392931753583546
Ni 4.716073130627029 0.9830925591471888 3.2758412348137664 -0.5109046805100685 1.171033617398009 0.9388743147878023
Ni 2.0676582310281786 2.576663146737517 10.942628559839738 0.0505813124919774 -1.022205310906975 0.6030198505797745
Ni 8.571532749459168 8.242560178156513 11.189911385403791 -1.4987158302078898 1.0799453459309207 -0.26990566812104483
Ni 1.718661483956039 2.3275835172422528 0.7147982418390781 -0.6407117087035933 -1.111665816962653 -0.712555787229089
Ni 8.068983361275883 7.267321689801426 13.335438838347763 -0.7257972256200274 0.5266771128529768 -0.5132155880314322
Ni 4.696919571195347 2.5556386883671514 7.113660684741853 0.3355690717571253 0.9295941750374571 0.4738160031878872
Ni 1.2775368569675865 7.158624313839041 11.360320640714964 0.5704216049287789 -2.1719213977741307 0.5716030268313897
Ni 6.7270116334348895 8.21582114233482 8.729594071775022 0.7576611642081597 -0.5775656721727279 -1.0641266337311093
Ni 0.18041393369516806 8.937941823287382 4.054222254940317 -0.5836758988355238 -0.42792901084778556 0.05452615607233835
P 2.595122065474143 6.703755062964411 1.2393288401767184 -0.6386026327803905 1.8010122559548145 1.3346249411308304
Ni 6.073873404439369 8.567012954003337 10.995943622466687 1.5974433633877907 1.2834985547686606 -0.686090908169341
P 0.6880517965166363 0.9723302593117856 5.945662182071466 1.1135468360354501 -0.676003699136668 1.1974799845149957
Ni 7.223281469734866 0.9485179762852611 3.1479838161065463 -0.624487533535247 -0.7288923196055834 -0.5309538858514598
P 3.631294435599555 5.79285882672339 5.983265398363839 -0.0678293009391477 0.2705006213925664 -0.3776014662378271
P 5.749605866111227 -0.14440190768827085 6.38506965726174 -0.5074809995405003 1.425787003258648 0.33837337397513984
P 8.211431013142064 4.567040284971717 5.106185197345745 -0.7381912284090061 -1.2013880613201504 0.5739221618828696
Ni 4.335298887225054 7.215668207717051 11.55498026578434 -1.08225522501102 -1.2892693958141666 0.25643797265191315
