# total energy = -381170.746902371 ev
CRYSTAL
PRIMVEC
9.20127000825562 0.00000000000000 0.00000000000000

0.00000000000000 9.20127000825562 0.00000000000000

0.00000000000000 0.00000000000000 13.46698873570254

PRIMCOORD
 96 1
Ni 6.6068797654589195 1.2079887053761271 12.78355232127773 0.036049694534705655 1.1415479492340663 -0.34213078413504305
Ni 4.8437600506548115 2.8729216701701907 11.219294129846977 0.3722561427655138 2.3682420934191732 4.23990055093664
Ni 0.7243221182120398 2.715690371869035 11.268973625738104 1.07755653398377 0.7542043160078108 -0.6173617211237432
Ni 8.982086349738069 1.8013049844640916 8.563186580552212 -0.2407467871689015 2.2672224217709855 0.11995173266599989
Ni 8.81121876959689 2.0312171128963823 13.221068099518062 0.06636402924753088 4.35737708258927 -1.8112920406142676
Ni 8.270782188035653 3.309374701748903 6.295332131128483 1.5203485779863173 2.0379016170508386 -0.4620789172566171
Ni -0.028834939291676177 1.2293632551159204 2.6938290749569496 1.3369602741322266 1.11600609620922 1.5864819792802807
Ni 9.133530049336542 5.328970610890934 1.7335652362142606 0.5879069061977359 0.05277574904013491 -0.19660017455867432
Ni 6.900317460573747 4.6278338523148514 8.45927572060109 0.30776284817813443 -1.484163900535644 1.0414567029374193
Ni 2.26506738480204 4.759200381214994 12.696582839277923 -0.9795720496174808 0.7008976341648704 -1.5416177717777386
Ni 8.927780455392714 4.493780552633816 12.869484820171348 0.18403853584357982 0.49688265519936364 -0.42202447243789254
Ni 2.0038985428673484 6.310092808137771 0.8858973359846363 0.4695250891220171 -1.5166009380184267 2.068326766309915
Ni 5.777615324951448 1.1025329522259897 10.492952332914367 0.8914243488359552 -2.2841199688572726 -0.28749561328866613
Ni 0.3512915990941311 0.8726438269681929 5.4573761711702105 0.13697449247624152 -0.10280993077939068 0.47628040556797974
Ni 4.518136313788028 7.521495184608803 2.1825945633523136 -2.6306262563521923 0.46686194046755725 0.46698123965424093
Ni 4.527834452154684 4.965538856425867 13.137343905375864 1.9748702517209662 -0.45871334321849383 -1.0155883198110898
Ni 2.8869352040719147 0.7242402269108413 5.9426318176283415 0.17539731522881405 0.5774841682025151 -0.7405409595881053
Ni 3.4399499214464515 3.9427257057261658 1.226001111131882 -1.5275587225815113 -1.1487287832532218 1.4897550214701762
Ni 4.899850991340898 1.4407164223664792 4.725997599150403 0.5427609057887169 -0.33046286087881155 -0.18959211867195735
Ni 8.081245231475172 6.778833095436214 0.0536802079991189 0.37307195379858976 0.2779210822263536 0.05816478126619015
Ni 0.9163756220621614 5.035588123394892 6.1149955242386085 -0.3553693943125041 -0.6748842408202441 -0.7370344890967435
Ni 3.3768016068256164 1.331138500347023 10.513960672116216 -0.03873289779382362 -0.7603297121792583 -0.08454147148750603
Ni 5.9405790143365005 3.3306296349813276 2.7358862389477574 -0.5509606679906899 -1.140039997229972 -1.276799288371614
Ni 4.922743750597293 6.0065705213247895 8.99881701861102 -0.32058673941568017 -1.1027122073137912 -0.7355260228720172
P 2.707068782068697 6.762638860592461 3.2872244849651735 -0.5097129741948125 -0.11306400440723109 0.11964731405170363
Ni 1.8216765957959478 4.425534734545118 3.122267800541964 -0.269334111888291 0.7829484780200386 -0.23656463076675385
P 3.525392912786838 2.3221888677054565 7.377337050436058 0.2851829059950895 -0.6297840060474961 1.7371475960903695
Ni 1.5065607090380073 1.4318095932024155 1.0176972446922432 0.8243846336776384 -0.3912982469986293 0.008462528945056393
P 0.20793489552075567 4.134240935293128 8.25516947344311 1.208657341288054 -0.7551959904971187 -0.3089578969275002
P 1.3038107290481915 3.534226131792521 0.7484092022881614 -0.7659689127429066 0.609311597125757 0.6637179397907795
P 0.45787726817541213 9.170850399635553 7.878323187740142 0.9527359032612432 -1.5580638331489036 -0.8160748282603623
Ni 6.686498353017435 2.07628493236496 7.012826907150714 -1.9243701860888858 -0.3983682664715333 -0.16967532514337227
Ni 4.192733407396386 7.583778579868665 7.172545308678157 -0.8642087076531116 -0.5593571195845011 -0.7820583621056015
Ni 2.7509864428125765 7.034370760254783 9.189145284374094 -0.1773392694465333 -0.5161638720264788 -1.5070958267414691
Ni 8.40118258360705 8.60555198708124 3.9405081997049476 -0.0649478656262946 0.03154075092075859 0.11523041593093057
Ni 1.382702416292697 7.068231433109901 7.223450413706324 1.3612571990063782 1.518924701055597 0.5538325902218462
Ni 2.7004622703540297 5.172217778619252 7.697394019075302 0.9209143878752721 -1.0055170516180165 0.546118252296724
Ni 4.522092859800989 5.264773351513174 2.7421486231719947 -1.009412530017681 -0.20759678277949406 1.75453236722572
Ni 3.4735897638264275 3.572871464942384 5.73342254624062 -0.11534894378666585 0.7381678313702383 0.8189454649399379
Ni 7.32506647696993 5.237592800531103 3.227027017568424 -0.960465667805333 1.4510072112780172 0.2147328796036431
Ni 5.9820399360444245 6.073951420052515 1.2717507446924614 2.1459524845141944 -0.3205332604699254 -0.6537294611194999
Ni 6.198370990255477 3.7510724571122394 4.861919676727328 -0.4066392482310739 0.7161177935487345 1.2878038670122338
Ni 2.260733586727377 8.22462861873096 0.0371363249030586 -0.46248952243147445 1.668197294172901 -0.679136845449011
Ni 8.510668492928529 6.092418368536271 7.876854665080447 1.2011782593021894 -0.04059386226196234 -0.6533530516166877
Ni 2.6390069893759502 9.149264220690416 8.06989086454495 0.31364964597621464 0.5824173438380744 0.8662581339829726
Ni 7.8028700150189945 8.931212529027214 9.27268177261242 -2.4727268407978253 0.03538223615403584 -1.2975216085206298
Ni 2.855218427079635 0.5495439984068867 3.0187065888431497 -0.008788544825907445 0.5082528447095181 1.3928838247727235
Ni 8.771377271373341 3.5967303575275253 3.7681978604595074 0.7795960166080381 -0.7509744962166034 0.6052538821166157
Ni 2.90689275826288 8.180563737670319 10.998206939277551 0.12288150471828513 3.320592845426855 2.00145365863645
Ni 6.496400118999301 7.245622713537569 7.190577037100487 -0.49729223193295646 -0.8712406747992285 0.34217217889593976
Ni 5.524746028374179 6.319579317299083 4.755328486884169 0.1718139687529299 0.00015272352778038212 0.09426718341570217
Ni 1.2308446595533316 5.1092994957433575 10.21697312711348 0.23352044462379137 -0.842343532148904 -1.2692901244787622
Ni 6.333730870247771 8.58851123541611 0.6944538763220948 -0.7172094839510165 -2.098025836036245 0.09030948431953478
Ni 4.3733543335230065 7.210335843863825 13.412164671309235 -0.27406519881537317 0.3772443400087245 -1.473972818935255
Ni 3.684188426953584 0.6144285926385266 0.8244908217364841 0.7929027610192732 -1.2643836883160804 -1.560775318542796
Ni 1.7190640350132647 2.3292462416402047 4.511669661374284 -0.5614708234933944 0.7420363131867092 -1.5143666493712693
P 0.9803124855046498 9.033687070762932 12.08648712458708 -1.2098045675186195 0.37499693873544454 -0.7756426883872447
Ni 3.622815957403683 3.092970037379469 3.6237241227327046 1.4950892891988963 -0.44503635995203356 -2.473401498267347
P 7.158771927918151 6.771913740548428 9.425464256966444 -1.10583301233096 0.4175240134643777 0.5290654105794953
Ni 7.852409651609199 9.027660239045515 6.640221486697453 0.8731723446043026 1.0735175880277061 0.11126526063559547
P 4.9916244563020244 8.842484684369088 12.167316599250956 0.39531970945319655 0.3335582119746836 -0.49041041721145867
P 6.856942674747925 2.213503468856366 9.066205278354582 -0.08509502999813086 0.044106760511227264 0.37760300889972387
P 8.044403347205638 7.314788658606025 2.268514180468216 -0.4654660885612951 -0.6351959210916867 -0.5673833323230874
Ni 1.1463586002718935 8.356353997153208 2.2031860850323324 -0.3633562691727226 -0.9521255233707537 0.2604882314618869
Ni 0.32319276138626185 7.568200830101352 9.490509873419542 1.4123190506792 -1.651145223786621 0.7655549651339395
Ni 2.8388217643003357 2.558219840553142 12.683532678324006 0.2721967781480667 -1.2609949743495057 -0.2483407974660755
Ni 8.731922226481291 0.1935569913350472 0.46263800516868336 0.19808884328905885 -5.791477747919935 0.38843532362853744
Ni 5.226578880583393 4.82337003678336 6.877752266522146 -1.4948056965202061 0.23288666769453437 -0.37594361891942996
Ni 8.295285169506627 5.8521364090420995 10.957940342389353 -0.5508305701707288 0.015239956878206014 0.19387403387676289
Ni 1.0694635885734642 6.758498289183549 11.82020513702587 -0.1828414302116851 0.8888637871976305 1.0727981933631783
Ni 1.2803382897945488 0.478768751250832 9.987428129346114 -0.8739177074107595 0.8279134727665032 0.5733624327246577
Ni 4.982699224598366 2.4405079960326197 0.361615423807023 1.2029343227613476 1.4866576134917753 -0.03171455749446151
Ni 3.5948624997586154 6.16104143868667 11.129455691924282 0.6521849994505156 -1.2486606211538689 1.0757241087607217
Ni 8.291705875555365 1.1263458384621432 10.922791491762574 0.21726875865161938 0.7469100963392427 1.0523887764688908
Ni 7.348446903525596 1.739720885708846 4.750695647541083 0.403406343116073 -1.5386237221464212 -1.157041159773659
Ni 5.3830464734913495 0.33956734111804654 8.079977296497065 -0.7574364497918633 0.22889143049221222 1.1846280682529922
Ni 7.319251274457854 8.395615815379507 11.892953136426526 -0.19015776136744025 -1.3472130622084864 -0.9056024401085501
Ni 7.170255112625538 1.068847103497026 1.8935394330420772 -2.239772295979833 1.540743082482269 0.8972188440305451
Ni 1.3979397190775003 2.669601211452925 6.757452104807562 -0.02131984452369877 0.12445784806646953 0.9730280778513758
Ni 5.846670854782333 5.562701266289223 11.251062433950123 0.9625282067613165 -0.14766539653118438 -0.27465603832183666
Ni 5.989391750612696 8.621985454939727 3.3041124955516636 1.7999581036586871 1.2467202095980463 0.658040429790028
Ni 7.911877458310999 3.3560159383528685 1.4784195454890692 -0.1078590631675239 0.22580867780183048 -0.2603769026950032
Ni 5.305783411001016 7.9324330950388084 10.059773113129635 0.10210210607908866 0.8871935985840592 0.8202307594102647
Ni 8.918993242736018 7.156112760946647 5.766766107733114 -2.260153944959978 -0.30187013684278335 0.620258325945248
Ni 4.050352958548534 8.192773822691716 4.569403028719239 -0.2322148384384904 0.1333186408912091 0.5947123591553435
Ni 1.681596464397493 8.102224126613669 4.979163176615153 0.19911651322262483 -0.012525643270836492 -0.7012424190987987
Ni 3.1645283125952983 5.972084162123436 5.438521849227977 -0.1992314415339343 0.3846252058538279 -0.6653703877925379
Ni 2.164589518612397 2.8941582008630204 9.171988596709514 -0.32404641582950644 0.22558164939268893 -0.4482630944194474
P 7.07265724388254 5.445366673830402 5.984163589113708 1.4136506250064298 -0.14356474409924955 -0.1992072731642182
Ni 0.3932273063236108 6.385396000161218 3.8542656180191504 0.7619921874833457 -0.8625125508976113 -1.5668855452055916
P 3.240632015091135 4.201327393387331 10.581605647287132 -0.6524400528841151 -1.1804662235658185 0.23366108396671373
Ni 7.346247800043972 3.504561237965103 10.780526058787192 0.46066815295201957 -0.2198123510090795 0.20777881688331312
P 4.7915980521722945 1.4440472820332055 2.3540703474271134 1.208721875977402 0.3378480975992891 1.5205630079899681
P 6.893968584413413 3.653483789639038 12.900553827769878 -1.326318221037348 -0.36738930159151567 0.5154434489206864
P 5.890579314256415 9.168329251711015 6.058070948508861 -1.7759488852282834 -0.18922933601589992 -1.5560182634737847
Ni 4.796824373417323 3.5020124862311715 9.167383361175823 -0.2738183729118897 0.14659684605735396 -3.305895134205364
