# total energy = -340869.4326247763 ev
CRYSTAL
PRIMVEC
9.29057007872773 0.00000000000000 0.00000000000000

0.00000000000000 9.29057007872773 0.00000000000000

0.00000000000000 0.00000000000000 13.59768841543624

PRIMCOORD
 96 1
Ni 2.476457187323057 8.511230571303825 5.945725128270696 0.7836259637030375 -1.5412722155128618 1.2216892347713477
Ni 0.4337934381482717 8.767891859202003 13.349965698284297 0.6708090423096059 1.6655068918249316 1.1827372789881825
Ni 1.3530600393439103 5.395061893373479 6.354852102965349 -0.6795096554073974 0.4458897090912643 0.5907747146638342
Ni 4.584078744096716 3.7315388750353815 0.03626945637536008 -1.8518733044707398 0.8074950570111513 -0.15631484467606627
Ni 2.568136532468182 7.323542678654607 3.8347245911738423 0.9059317984235108 0.6254915493197292 -0.3734306226895891
Ni 0.9245324962937596 2.0624415146738673 10.163809298135948 1.4095332604039466 1.027354459208082 -0.6758648595659587
Ni 1.0992137941675577 0.998615501784966 6.678925767066712 -0.10643750022964896 0.8231870138251113 0.2708551765185077
Ni 5.618565136802367 7.337060458061392 0.4641392270667477 1.0321675643260095 -0.0040356035219543404 -0.691501280551635
Ni 4.71064417973839 8.94955966574515 4.397519452428021 -0.27775524607245067 -0.4417941988656521 0.7957661986099973
Ni 6.571043667773523 0.8329664961031108 8.624102635764975 0.629889935497741 0.4842917059082305 0.7753069023143808
Ni -0.007137944960984951 1.8653327807258566 4.020985655544284 1.1223685480921382 -0.5466499564304779 -1.134495927483291
Ni 3.8514522625291114 8.239620756212851 1.7665303555318088 -1.4279755262695342 2.4455217411379433 -0.21597600798212482
Ni 2.381080195302399 2.2374572730690705 11.981072669479875 -1.8347335594666596 0.6378901800943982 2.8294995432157592
Ni 3.5477435279532976 1.7802497403084412 5.876880146167493 -3.0603709802524777 -0.30251882617037573 1.6228720878735403
Ni 6.023791930194637 2.131256766952945 0.3585138072360384 1.1813581392524686 -1.4218987239478351 0.28907144241621835
Ni 2.80865080963853 5.0747880724180785 4.4614422905245466 -0.956822671736107 -0.4496226937711353 0.04142947078938026
Ni 2.2424927620302233 3.2774622643779048 0.5130447877521894 -0.17453908099357685 0.9090500323375182 -0.3391441907028933
Ni 3.357695627234947 2.9179450755776517 10.219546214971086 2.4076838443545636 1.617264511878776 -1.9807665626007438
Ni 3.8966508857689814 1.678341477550347 1.6499978064752814 -0.08523489801010482 0.502875896668321 0.7709226572037562
Ni 6.944394515361888 5.29320008346558 1.8164337234394423 0.7683667235511218 0.8749944854147059 2.2612893441160025
Ni 5.69746994814383 1.3446985263087856 6.209221488546586 1.1473470724143466 -1.7187567522880078 0.05286882297457346
Ni 4.408914336580888 8.015337104900684 11.671059354075577 1.405369101723928 1.298559562866841 0.20111631726147297
Ni 1.1437620775046953 7.239314370680781 1.7855806693968352 0.9300392329946757 -0.002971681033814237 0.013418844509067213
Ni 4.43804027365324 2.8037546792279624 7.756325302782632 -1.3383733524296693 -0.40739232434701456 0.976999146683982
P 4.470157774278158 1.8576959321537756 3.991138770236904 0.5303095673992415 -0.08510634285204052 -1.443259191901482
P 8.742760867246433 0.7526708864268064 9.616054011660946 -1.9879887913807954 -2.337573717801039 -0.9300394901049919
P 5.792586804203395 3.1054659412453858 9.571902435664477 0.27587448410997 -1.382109359865039 -0.17849575164847967
P 4.489760877060507 6.046953321301933 3.81741533013413 0.7180736317235246 -0.12579379326907367 -1.699384004188351
P 6.436906417550041 4.787467903391109 13.590345262189079 -0.07577632370036627 -0.5070158869786235 -2.4134356592366757
P 0.49222183312371665 7.858242856110765 6.616350061625845 -0.12328851034871668 0.539827791302322 0.947037310214569
P 4.749348694520979 8.269043991526452 6.618171942410497 0.4763238572114054 2.4675362977358217 -0.21783465845741837
P 8.59688962706366 7.3110189902419975 12.40988914925824 -1.6347850372610426 0.8232638898096337 -2.274221221686322
Ni 8.026318558686816 2.708266200366836 9.48294615659779 -1.1055859293171606 1.7016689435677854 0.7125987246518823
Ni 6.394625033302426 7.588351796477012 8.160298798276637 0.3704059769306524 -0.28568967042817894 -0.8665705230170689
Ni 3.7969630692502143 6.033556319305656 1.4329784518766302 -0.8329165824080494 -1.8336354413064742 1.2437827242362773
Ni 1.9292147403142108 3.5585484609086864 8.320316789457838 0.5714078801014482 0.5476151485572246 -0.1502750662398896
Ni 3.0746212487158138 0.5036863965518767 10.531056241208672 -0.1446348372349767 -0.3661919388493048 -0.08406221785824232
Ni 0.4499785402132618 8.500332732648046 4.007415848945281 -0.11938094776419439 0.7253675942817767 0.2520277593993595
Ni 8.364774025208593 7.40568060836965 0.856028478110989 -3.31421033893928 1.047055022960803 3.541008634347889
Ni 9.083520395137889 3.5278431269297 7.61210871312381 0.2591422589569537 0.6582777426118147 -1.3530625790107278
Ni 3.945751548425242 7.015736802691581 8.140813685733784 -0.844680664922513 -1.4628713097054549 0.14242317429563858
Ni 3.693029462223612 6.010655064159452 10.402966223023594 -0.39511479253124215 -0.8295592359000421 -0.8863525907400025
Ni 1.734233546905137 8.31874854123525 8.942260993922488 0.15622871272016317 -0.026369234022148132 -1.20023183622852
Ni 8.296729890242755 3.1536375468977442 0.15536434464865176 -0.9241084693325374 -0.1377368245635628 0.2645217781013122
Ni 9.090125990435638 4.039679211519812 2.724881455824633 -1.7579609332912949 0.015872191145566213 -0.2637445336156554
Ni 6.451288219970456 5.182633009431111 4.499569860907712 0.6573739998506227 -0.14836859324579607 -1.3268206145950634
Ni 0.8008620022762468 9.08227545875266 11.027996754855211 -1.211798972240829 -0.44026207849184174 0.6881521615737439
Ni 8.410539373220843 6.302248895404374 5.858332452141578 1.0544757409049064 -0.619036794833321 1.109457753567741
Ni 4.79137923337754 6.278771624915752 5.91806710126451 -1.527837944384827 -1.9546719223962208 0.9776234105315422
Ni 5.7501288991250386 7.344688016063433 2.717293847273759 1.3520647338738327 -0.03351895769305195 1.1573815738322133
Ni 7.988199349816684 9.37121218696642 6.8856651059171785 0.8150096202206415 -0.2442434874682503 -0.5195489864486279
Ni 5.269648488416645 3.477088742806492 2.5414763126841877 0.2583894399513292 0.40333718044103445 0.38367749722857797
Ni 5.939442844810305 0.8429454973820303 2.5697187165458284 -1.3470914490289574 -0.6183793637549803 -1.048823684825452
Ni 5.3742417259160185 4.811075241860278 8.450827001138082 -0.5881354772687742 2.7671214951991696 -0.338755697015223
Ni 6.714527231456265 8.831299999718366 12.513639732055074 0.02947795485445891 0.5553482555354243 0.19480734432430966
Ni 7.569380452457318 8.114764785458359 10.416713479510342 0.5172475920089608 0.032297940801757276 -0.8610699049138137
P 2.6551984643039104 1.4631904565865441 8.555488988855744 -0.1605067712702268 -0.5427488216038588 -0.7941651726714646
P 2.4377433819704284 7.650691521438889 11.025168705335332 -0.8548177533565149 0.1747108306847507 -0.6172457643711692
P 5.681304356275922 0.3818953848532593 10.611459621497428 -0.04468603005346497 -0.44439024172760233 0.045726041282205115
P 6.684091324008411 5.070152077968603 6.65852924960303 0.7418008001371353 0.6719968919701201 -0.6299794098877537
P 7.509028909483794 2.251727588649017 2.203777098563587 1.030713348377986 1.2532788366521705 -0.09666987931992384
P 4.8689647837734595 0.15287725904920405 -0.01822252407454885 -0.5857286675994945 -0.8620996317299089 2.3009596661224307
P 0.44086913628999513 1.5395031988871173 12.660236565757893 -0.3602866291084634 0.9231707880096166 0.38877779456962075
P 1.433209787070602 5.009549689604027 1.6696603689058793 0.16261610430374573 0.9585018592107428 -0.276338311120266
Ni 8.963932177595526 5.567178993916506 13.543406515180898 0.8796337839589303 -3.021474046076964 0.13367936666473748
Ni 6.594920432773824 6.2867429340092364 11.984091175685554 0.1810434577709979 0.2936747455161846 0.32795526396560937
Ni 4.526700183535681 1.5939645204558976 12.102242142042881 1.5201557452492207 0.5695633706935417 -0.43630566494725503
Ni 7.796330497370685 0.47213562069933884 1.013340126239821 0.4298131152443759 0.1371765811847186 -0.5275816269451172
Ni 9.13309487686614 6.2979287803362265 8.309384575692913 0.4728698372245339 0.6596723089664961 -0.5522804152433779
Ni 2.3328714273698847 7.330612802454307 13.222337421430156 -0.0413965606689158 0.22815660920871675 0.022709268672057664
Ni 0.24032846576956748 3.852539259223678 11.83563158268991 0.8627480639471851 -0.2732779270273874 -0.6796685495827649
Ni 0.4609367675742949 6.111522783073175 3.9218998679640467 -0.27226902614689885 -0.560966115942834 -0.5785007823924875
Ni 7.4684662806933995 5.451009706148504 9.8222898016153 0.519445370991228 -1.2463183461739373 -0.08983768688943883
Ni 7.106570705963155 0.28803925914799017 4.342245205980826 1.848352950022307 -2.2146857853248503 1.5837422117516144
Ni 4.656210729879726 3.6622776753944306 5.208676335364514 0.7051972899814887 1.0240791308909203 0.4031728869490282
Ni 2.4842148133056448 0.6766898174766265 4.252147115856343 -1.1502621891786127 0.6890024253891812 -2.5981326545998606
Ni 0.5105558440387339 2.020336651256994 1.5776716477784547 -0.020516374785796924 -1.6960600820214402 -0.49213691298426215
Ni 6.797705705015681 3.0674953814958794 7.422135136965772 -0.061420312089010345 -0.07833405712521349 -0.6424153216582614
Ni 2.466460533961063 0.5936079658456177 0.28541653122597266 -0.3303281350731601 -0.20329404163908213 -1.1412389026340797
Ni 7.588825615549002 1.7465714239169658 11.653123908615234 0.36786984077236 -0.4179937540119446 0.6350259711727257
Ni 4.4049751348843404 9.306085290992836 8.661264915921087 -0.21477067482011397 0.10189770337776645 -0.9436257134298588
Ni 8.73439006364127 4.068349910660251 5.148425130547412 0.5423503006138596 0.44462035546053746 -0.09075454227675338
Ni 0.5532590201661206 6.229921807650544 11.096570452313275 1.0834621008349277 0.20858357217279558 -0.6649908929659322
Ni 6.6670338374167555 7.455524516629033 5.437171402075372 -1.380859546618338 2.296433239006987 -0.3140026584402592
Ni 4.202821621405138 6.005247952396738 12.748988452283722 -0.012179315675011283 -2.0403266815525636 -0.14571727166587808
Ni 6.127409657839912 3.7600144722050013 11.565405133477746 0.07889250073184478 0.11184530150878158 0.662789000218607
Ni 6.889998227783382 2.454373502340288 4.347112535624272 -1.2366551120525606 2.8991417289939294 -0.8572639009041623
Ni 2.004812108721779 3.2885923672846595 2.922075663017003 1.3891181870827045 -0.37934930216686924 1.0932292075240204
P 7.761769576825503 7.640713449216972 3.508923810102224 0.92625276936905 -0.5384327107270083 -0.07413184611840781
P 3.2861024945142003 4.849398843271268 7.050918333315371 2.0415888360944385 0.3214280043700529 0.8047853713894721
P 5.7075223449260575 6.535553690224437 9.941854792732565 -0.7319797002816555 1.2954356725258787 0.0028528960677628285
P 1.8044516752601083 3.439787104099796 5.517519968000899 -0.5951119085866073 -1.775520282331297 -0.81312294472089
P 2.8101187197046964 4.559988295985517 11.764950783946995 -0.690887558227036 -1.4182832386824349 0.9928798224699804
P 0.1627354829176163 4.5672999746062315 9.673231895909138 0.7118021968925161 -1.4327143265061002 -0.642126586773249
P 1.604843777971599 0.2075717739259638 2.273642185257075 0.044521479451142675 -0.5691239691632779 0.3072730530259095
P 8.35400625453336 2.107091994281434 5.848379464458768 -0.5029594575210629 -1.72189324103446 3.1050400410250782
