# total energy = -340856.6791520249 ev
CRYSTAL
PRIMVEC
9.35798242035628 0.00000000000000 0.00000000000000

0.00000000000000 9.35798242035628 0.00000000000000

0.00000000000000 0.00000000000000 13.69635319155100

PRIMCOORD
 96 1
Ni 8.96545252081284 5.008672948199847 8.737561317333343 -0.21599631969709895 0.9314137447446991 0.24121781326804909
Ni 1.4276538029956631 7.086182484646159 5.060364571672497 0.3445033981322776 -0.04454076272485232 0.2923593691388707
Ni 8.175863393377327 5.974435453291343 11.00039072348498 -0.15992981572083426 1.679197759048463 -1.5926505699848377
Ni 3.670144570084433 1.1470079092368801 7.297362203061487 -0.7104749934406602 -0.6299087045508184 0.6886375858505946
Ni 7.043715960275457 7.218579220388048 1.9216120993707626 1.1821932335592542 0.8865693347364989 -0.8109950997446097
Ni 3.684677516833596 8.214100109679373 10.153763757201544 -1.2589830861257996 -0.3584480332378278 -0.6711558841260635
Ni 0.7078274989473562 9.360509108039276 6.338193332406219 0.7862029804015944 0.26507970748731124 0.032630127330195415
Ni 3.800463833721806 1.4290575003635797 4.937630888611345 -0.4711834506610466 0.7883387957976746 0.7812500072716931
Ni 5.165288142529524 2.0435494181251834 13.954529853756574 0.7196533175058186 0.06312881013968483 -0.9844044380091176
Ni 0.7921279480749527 7.292600861589515 1.919995975801168 1.1449340920974798 1.002548713018312 -0.4112392088969305
Ni 8.40885844048657 4.599934990627453 12.821484990137483 0.9715669199248169 -0.2914533123848336 0.8013786597007682
Ni 8.270687829571317 2.894405256679029 9.545988063446297 1.1111492823375508 -1.9654247900373505 0.02342609223342417
Ni 8.714555653271436 7.681612192151455 6.994823309354432 -0.5066541327638306 -1.4926631962559067 0.5656295828567743
Ni 3.00119855243012 1.1706368149301423 13.924534712600687 -2.4205149346809605 2.1421009719785884 -0.4104326538352351
Ni 3.5665142724023804 3.3825924852755005 1.365079781728679 -0.15489302462787516 1.2232262402411642 0.5926140818654181
Ni 5.376928273681529 2.963644968847126 10.152079320360043 -0.31662441233382244 -0.22110330190636113 -0.29969421223738707
Ni 4.531275473371428 -0.1820820077766637 0.9531713397012832 1.972042038243552 0.1726758025325929 1.013089721758952
Ni 8.729425487388898 2.3102893499591395 11.79114959872709 0.5577100708993815 -0.606072264252853 1.0681828060783538
Ni 8.467121239237558 2.8035205310976585 1.008950529909306 -0.3114706360470249 0.712657860024592 -0.8330947598571264
Ni 8.988978488699123 9.103342392254511 -0.08721639645988188 0.4070902197255634 0.19996909103090724 -0.5725635909724461
Ni 8.024104991940643 0.667665845654773 8.442856926535754 -0.16945626715403075 -0.37465523912530957 -0.5948308870110788
Ni 3.679352824817966 4.592654480279192 12.979335438150924 0.9104772517023482 -0.17300438951660527 -0.14413732877326788
Ni 5.458043265582201 0.2961127671567329 9.335064753750174 -0.6636840012290506 0.057121427603340325 -0.5164857741422718
Ni 5.81540589948885 4.916319019373391 6.211077306162433 -4.269069716301429 1.032310774772093 3.7926723255396104
P 0.8582318003231245 2.023149016378129 0.01640735063445396 -0.40133223419586367 -1.109008067624832 1.1979574383720466
P 8.633833696633783 8.610616542168442 2.761389958297011 -0.8688387502259552 0.044541276945484584 -0.5208661625981545
P 1.2857961469940162 5.4834033980292265 0.7713129877052408 -0.6575840589788998 -0.6588328437843364 0.08721130501018529
P 3.868103330890478 6.0846163386903385 5.275150856525126 -1.043215594610055 0.8452578775822217 0.30509764264114553
P 6.467909941973634 4.782509228281133 0.20123873365574355 0.857599172756394 -2.3483620666657945 0.48693917083340654
P 6.93326369338533 4.39689484534955 9.95711230654415 -0.6141648114530003 2.2534235682146804 2.7818577729680802
P 7.875331786906393 5.51222598398378 6.273175941920815 1.4160816030454255 0.6110977424919024 0.6883457656417886
P 2.2116562149068697 8.739073567297712 7.905110758667619 1.153865847369471 -0.6764094192155189 -0.45428821756760474
Ni 8.09779910375626 1.7730007874329465 6.008206540366924 1.4093771944420566 -1.1186396771773248 0.14022128154831337
Ni 0.5878160529817174 4.907962341043062 4.549997053066454 -0.5191106133596285 -1.7732492269089333 -1.2036837993328624
Ni 1.8770147623955633 4.015192099083228 8.22813895495503 0.9765216928269311 -0.9924183094525295 0.9152343067713593
Ni 4.562353333097101 4.537470457755166 3.5669690703495855 -1.7709180076725954 -1.3671812778002972 -0.21444671582179195
Ni 6.153369435770893 3.364363135457491 2.0464953110013173 -0.24749053365063828 0.42508099987602915 -0.6487842012990827
Ni 6.926217132598389 1.140429247572578 10.803135682959383 -0.3122465949811009 0.18061588331527606 0.3962319368548208
Ni 4.315274522396429 5.488821669869385 9.015720795154424 1.3500741858063652 0.2187900803921522 0.779627898287238
Ni 7.424295748647445 8.168919770397366 4.838702041313568 -0.10202780119772752 1.3817280652662203 0.6089071625984868
Ni 7.742532657919034 1.9196871623802263 3.0236895274571243 -0.1297111260456089 1.0785188978970393 3.5800960872676537
Ni 4.597792012645767 0.3177222202366856 11.831006181791713 1.304068151389896 0.30490609545562974 0.539771998363722
Ni 6.4909867267021815 7.935531688025107 10.974791962485407 0.02032071383522307 0.985352660855 1.610644178348781
Ni 5.666838570068562 8.826870158669665 3.1250280552364917 1.688543719039737 0.502651953582973 -3.0816538008906535
Ni 3.072880698018392 4.470925844533469 10.654338147170755 -0.45053774938623703 -0.6081695131015139 -0.13752265167022767
Ni 6.945606872240542 3.6835919908690737 5.071458459870265 2.4345256471377557 -2.1739633679048236 -2.954514806447596
Ni 4.389286805615442 7.860003411648744 7.712909964464767 0.2504061646355365 1.9844540387546599 0.6342111885809142
Ni 2.714535475954201 4.101547561157454 5.857354927429913 0.15238285661151174 0.2996764716255742 -0.38586859134262574
Ni 5.939586326637201 5.567915337560256 11.625588173172558 -0.30540797479271276 -1.3561993248674966 -1.7744355339075506
Ni 1.4879472839389056 6.0109877327518895 9.729081669126108 1.2882211570553106 2.6374875022483995 -1.2229362198045712
Ni 6.286224712652967 7.214695657670145 6.691709835524777 0.7419144428968643 0.4601804146823236 -0.8304218410106536
Ni 2.411664373870073 0.9129413731367948 11.616191822991727 -0.7154017413183164 0.22531425466391516 -0.2848206375596643
Ni 2.453045372276253 8.40990653452128 13.03512024314842 0.1987079649302965 -1.0472753665017254 0.8109547334249776
Ni 5.84634338947773 2.3187396081139973 6.8124839570603175 -1.047137041151648 2.2905487552017516 0.46839843171674167
Ni 8.414894339168612 5.40995259375738 1.4510328505574361 0.43896161451286336 -0.914472231794354 0.6927413236063231
Ni 7.192068056099331 0.8681419037406153 1.2536673858388967 -0.6311867999322935 -1.6098905880122079 1.2593258141771988
P 5.429997392171228 2.3825329744945782 3.9585744336474358 0.11014400254695869 0.5455194423704605 -1.1976535339783825
P 0.6647920092435252 4.879130397106056 11.135272003568081 -0.2686196023197696 -2.1493609959751114 0.0709526770594778
P 1.4932251860422716 8.328445297269855 11.134231395919333 0.13443629943542007 -0.6687354476100289 -0.6178461169593294
P 3.7498277906698294 2.7387539345419887 11.93066027272958 1.0326319055569377 -1.1968012132804162 -0.327290633798417
P 7.220244941264642 1.2941621833067989 12.975075684538421 -0.713071807633559 0.0008345800861534014 -1.2552210479802062
P 8.384892647425007 7.788424203867453 9.236094731329606 -0.11663629513952171 -0.0912026855577655 -0.15461663103803694
P 9.288181261661762 0.8951640138712542 4.071487849922644 1.0501267199075914 0.07032069990243374 1.6308921299645396
P 0.6924092870581607 1.6264173502926473 7.988164724532506 -0.6312755029913579 0.7876695376447919 -0.7301979257908844
Ni 4.465105179447842 8.55605950446875 4.730898083457577 -1.6941142711489792 -1.7956376219064623 3.3923168534347186
Ni 6.446452088209416 6.860336936130838 8.994326575670884 0.00978664707311863 -1.077442634113725 -0.30598004524609884
Ni 6.229842868374986 8.628256339091926 13.693928758411639 3.288602408563188 -0.8465845668134453 -3.279457765949443
Ni 1.1762048144895445 3.587532300991317 1.9515801023775359 -0.021655630596562704 0.024858196694260416 -0.15530877200905513
Ni 1.4481665005321505 3.1977910477980602 12.142912415933997 2.2619331483475884 1.1038486349110794 -0.19189428444257273
Ni 6.353808061926923 0.7933472931885496 5.096824207106763 -1.5413460061735906 -0.4299699525372143 -0.6625462880801815
Ni 1.3319029265388487 2.0903393303890683 5.422263019674007 0.42181647019214447 0.04291068332059706 -0.2625705679122123
Ni 1.2179975641236467 2.1024485596829616 10.057574927165938 -2.470387394031371 0.22086418931236157 -1.3105452744738075
Ni 5.398779162708764 6.495647001963665 -0.09436402345731298 -0.5724908287529817 1.4148413028804212 1.7297394765517564
Ni 3.545187430392501 1.4137946309831002 2.619016677462216 0.14792070707510008 -0.28617792291850713 0.2043260824480223
Ni 9.2957237955187 3.5088035946161042 6.780899830483949 -0.9321639926471624 -1.2562322628535396 0.9490677103810364
Ni 3.161528865793549 6.391726606825575 0.5545381315813969 -0.49081690862125793 1.4599981019227177 1.8403419067923723
Ni 3.327633054330341 2.178819054480075 9.636028699010428 1.1818458775221645 -0.5874937299197173 -1.0147388273266007
Ni 8.96150345221777 -0.04715768097427927 10.695331725103392 0.397979772783863 -0.013442755768467173 -0.008952581207597485
Ni 1.042975218309358 0.7087773341663131 1.8329555094113985 -0.4182925161992861 -0.06468766998637246 0.41500484658694975
Ni 6.94128348434736 4.0223415976771495 8.023967429598587 -0.4991555103939404 -0.0629208078939368 -2.764753766297942
Ni 6.460535851800845 3.256503029706783 12.190494013513387 0.12933703053564177 0.11036743141167442 0.4977239201537364
Ni 8.51820646544727 6.6682643462875895 3.820159579390166 1.0946091185906826 -2.426484522000834 -0.7553322589646669
Ni 0.7620289333138408 6.537954440632669 12.412512147205522 0.13110697795187096 1.2411023491906368 1.2463070333200277
Ni 2.856215330289246 6.316834673256001 7.5528809781363195 -1.5845220273404323 -0.18053412223474713 -1.3332368025340522
Ni 0.8745305983611262 5.393529334552755 6.659002751054076 -0.5019675259214387 3.653836097264281 1.1809400778784436
Ni 2.2312237562156265 -0.3425517550786389 4.100127019421122 -0.5538318188908978 0.909709263188072 -1.144097198018481
Ni 5.86389896455914 6.114468302714697 4.4280859366629 1.7575541847711795 3.2271566425528806 -1.8005990796767957
Ni 2.3208357961834194 5.674699275328894 3.094842011238569 0.6845081370632533 -0.10709750241115104 -0.264171593850745
P 8.21745962537992 4.1437520620194785 3.3154901362996174 0.4785393768054855 0.3401726319674077 -1.042323936033721
P 5.795566976688963 0.34594683111250635 7.220950533141582 0.03772091158954149 -2.4165443800689865 0.11037668738305507
P 2.8120269371472326 8.715856412832373 1.6426450276640079 -4.262646072163272 -1.1864661499029954 2.2912393535108735
P 2.2327023174431653 3.4860449812909504 3.8835739474814095 0.686360874001276 -0.7113257714767298 -1.413716702357675
P 4.112271809048337 4.087866190811494 7.44035217493992 0.7306532681607482 -1.3231711907679342 0.9532400965911711
P 7.881058872167492 7.354569421391804 12.861587688140613 -0.19403189961086584 -0.44130800325785285 -0.6850884350467557
P 5.142173925871164 6.704872773642853 2.4025459557680873 -2.144279467687146 -0.37237904149662315 -0.2871382299492474
P 4.3567958905394 6.981897128192412 11.763181396570475 -0.5001574692958934 0.5633711258399008 0.1318726524733019
