# total energy = -340859.29726389435 ev
CRYSTAL
PRIMVEC
9.34614727059350 0.00000000000000 0.00000000000000
0.00000000000000 9.34614727059350 0.00000000000000
0.00000000000000 0.00000000000000 13.67903125355674
PRIMCOORD
 96 1
Ni 7.377802030384906 7.797014126066897 3.5970517515746097 -2.1284304164700316 0.9991617988239502 -1.0567784208961544
Ni 5.0926970284238875 0.6200252880448202 8.420578800133805 0.7280615961741719 0.8172462228606441 1.5475295092764831
Ni 7.673850595570235 4.102566172389865 2.5147529282962497 -0.4156998157714453 -0.9450354492931918 0.895057060492536
Ni 4.2325804289340345 6.94051448562259 4.354637375578003 -0.5115310012401577 -0.2779884451291793 1.0118350234162445
Ni 5.158549983036081 4.78465735611857 8.534306460210873 -0.862513836449192 -0.2353654682523301 2.061380159788753
Ni 3.341042081870212 2.509178885984199 5.280967690969863 -0.6571333445947263 -2.6527739960938246 -0.03400206797705757
Ni 2.6847743034201743 6.827958832430049 0.31330155329405796 1.7907607534301353 -0.1549704148330299 0.19853595812880648
Ni 4.215476979183777 8.807183122136193 0.8352390243285225 1.4555470081298998 -1.3108298955937618 0.7187012380051945
Ni 3.2714413221488092 4.490721020246662 10.591988853533675 -0.3690762023756353 -0.5163831871261364 -0.18934863520258358
Ni 1.8969968848412455 8.868222810835062 1.7731305240597641 -0.9990499558364342 -0.028515076720557343 1.1605414596174335
Ni 3.1135381617495757 7.729245211236779 6.183237284483546 -2.3416972530511093 1.2697698923286584 -0.26052474112677715
Ni 8.712525341223293 2.901567538615239 7.528090884493684 -0.21367847019719974 -0.11416983587690015 0.05916416906498197
Ni 8.624793055537138 0.8855979357735152 11.318440591303156 0.09811021131087619 2.070541000352415 2.5576089834542017
Ni 3.10617339759482 1.3425927669529862 0.5929130490390707 -2.6461732029478555 1.8890486279694565 -1.0459911004726632
Ni 0.42182995156999403 7.620605593806729 3.5788043333820405 1.1814391290020492 1.368039254925218 -0.4690764316203728
Ni 6.63903580879524 7.14064353999541 9.14150509555774 -0.9720556866357775 0.4363969391094807 -0.10463104314852949
Ni 4.344079967469866 2.7606930587870266 7.425059890121083 0.6484671842792962 0.25779165846633023 0.15608010295744087
Ni 5.0716401583215225 5.416765343527944 6.498716490122855 -1.2140422597490512 -0.3296192819315936 -0.8222809570710742
Ni 8.428346383241696 8.508181174371039 5.428318116334662 -0.8596820234273517 -0.9744717522764378 1.246685242595053
Ni 0.8766648880842823 7.158999373497871 6.309166339997203 -0.6146008705491545 -0.848653533527332 -0.09842979943382404
Ni 7.3931484044231155 1.0953778219562342 9.34987745194134 0.14665623854037968 -0.8424749155204458 -0.8261011021481128
Ni 5.553863979804733 2.0060103481674756 4.187876871283512 -0.2366312223386312 1.9703883046902129 0.77843233531724
Ni 5.553966787426183 5.09937017767071 10.969639566322538 -1.0771405294922738 1.4671377982912928 -1.023040405213761
Ni 8.577875395566487 5.8992975878755045 10.481872544813712 2.335973206083138 1.7209923264867455 0.9390828312541828
P -0.051157072433337974 5.054994669794086 7.733727623531983 1.618346432089045 0.6063872243901104 0.926172808060734
P 2.943316779071195 4.324705403900311 6.404973697040858 0.8958728715256119 -0.5710006173607005 0.957824373527744
P 1.9142031422129522 6.2229733647885705 4.3956333165531545 0.4583744718218364 -0.006919095717336471 1.0983205060039987
P 6.936841449692617 2.4103620694762915 12.291539962921936 1.6813685414475368 -0.5735339253055155 0.3686560841190812
P 5.4711505752748 2.7770207783027097 2.286942454540746 1.7518519921800797 1.186963144144072 -2.2517376958718254
P 7.220786753989102 8.219974026858097 7.342562381596193 1.2003904732935715 -1.649791537972204 0.8888015665011274
P 3.406053883215998 2.052787815927059 9.942426001231633 0.09952097561547377 0.6587924774647042 -0.7344484735371223
P 4.529357993616915 0.611712824543247 6.432865404740143 -1.35947722428782 0.8250477211829339 -0.95621280606625
Ni 7.454178746974581 4.077191382186615 10.980404458903056 -0.48427345107578534 -2.102648936630553 0.18133450664885545
Ni 2.813984791287555 2.552460894614495 11.976279457131891 0.5821949434146231 0.6998324261251496 1.6465897432054546
Ni 7.128147740915577 7.2678259138760115 11.589805981193168 -1.4666194638939773 -0.4230308022152198 2.10522595332911
Ni 3.8049661467353877 9.162103069822544 3.373235821219794 -0.2570085004434025 -0.8621950196571927 0.01747861640073764
Ni 6.101239794844799 7.248722388581189 1.536250548862922 0.26445210120564133 -0.39275426271886554 -0.6389114222700609
Ni 0.8395522713557049 2.101284974809073 5.332031301929155 0.4847177377020555 0.9011158650921062 -1.292495358950632
Ni 5.037769720127569 7.735133284101622 6.9977549654015245 2.6786696329136643 0.5804309095356648 1.5917100604484393
Ni 5.303106844941671 8.722525718946121 10.678590255383885 0.7181571925762664 -0.44758072364044205 -1.953052384514927
Ni 2.2402621867141694 6.593351840281985 11.503244767776797 0.33804581543239204 -1.1131989657777281 1.0894864526521366
Ni 1.4342317422542286 1.4142216406611678 10.692338438215922 -0.8017756380288708 -0.21995864677895666 -1.419407324984549
Ni 6.265965642849326 0.5362043650474525 2.3302506323837746 -0.4206607593211465 -0.1503300878475411 -0.3144528586038004
Ni 6.754376613914324 3.6431843351632818 0.37616093689258556 -0.33450514926898517 0.1790657652193368 0.759919364114717
Ni 6.678962550507316 2.996524396245083 6.104171681285595 -0.09592117407935738 0.6785758307392185 -0.48666252013325223
Ni 8.147167538576946 5.377754524261509 13.024393811663508 -0.4568114982100907 1.4210692860680043 -0.49487770895419286
Ni 9.077529781959113 7.225394404659526 8.591019817276193 -1.6245348202879442 1.0099005253976931 -0.8784963279203774
Ni 5.150727257658504 1.8881367371017679 13.646324779164107 1.4599536218380276 -2.064768873755328 0.6753532100368627
Ni -0.1655398974434605 3.970607917185558 0.7868558884448438 2.1483708641477 -0.5144893125375333 0.6916504045349895
Ni 0.223239273059957 3.8884178969102776 9.858067674758507 0.8711198329506482 -0.63706588442089 -1.1856300271549454
Ni 1.5290390615256002 8.364278542783765 10.31165022752059 -1.6129239755218931 1.3580559184602612 1.1218358155171195
Ni 3.6854943444635087 0.23874827006300456 12.268669005608352 -0.8326733560489917 0.026310355759754687 -1.13329393675539
Ni 4.613501358699739 7.276256138834882 12.655648108121662 0.03981507511440885 -1.469881679585017 -0.643868252054704
Ni 8.337427061290601 5.797686273293648 3.9703798711888876 0.7352182618236113 -2.071133125410459 1.9958147151831178
Ni 3.572536806932574 1.9574944969906527 2.6313666786918297 -0.16699315032551884 0.20655034379285073 2.443484141882624
Ni 0.5475216149395763 6.883110448264076 0.6172195745939856 -1.4580098678480953 -0.6131592530066214 0.22578579498369503
P 0.2934204285351796 1.332097043417719 8.735484152322478 -0.2964875323746313 0.6539608604040157 0.5090696841838588
P 8.310697079713696 6.5174143926203225 1.9588506229790477 -0.8690202701091421 -0.8282052929753091 -0.3744906885229873
P 1.724513734490973 0.49279244496823377 3.9281250041583475 0.2855729423446566 -0.10874917908196109 0.24434144649869532
P 2.4977205092662667 3.438821476016218 1.6684863846451434 -1.3046373936298048 1.2695582905384843 -0.5322533213891736
P 6.733787051182185 2.988748401604529 8.867691949662486 -2.0628163780146473 -0.03360354698705825 -0.628660176855698
P 5.834388594151167 5.514404545462882 13.008923133864819 1.8714075178489253 1.4195603056226456 1.7265009150098007
P 1.6936340634664646 8.16998148439136 8.26519909953379 -0.3729709094443512 1.2387261356489763 -3.6893517736723886
P 1.284198037969594 5.18663515598664 13.031480060625608 -0.6755373010232107 -0.1410633178336345 -0.5096805782949803
Ni 8.416476776037966 8.643373196577308 0.49216625309213147 -1.8198170473661432 -0.6279634078989895 -0.22626247750979742
Ni 7.968039277422065 1.2202610435753263 4.39226870348753 -0.36676889439869736 -0.17541557006125919 -0.6080080478229851
Ni 0.4719720323952019 0.43716324100183673 6.628311104648562 0.3647976296049395 -1.282691999706965 2.4124573544838066
Ni 0.5920915226822141 2.065021922879566 2.7622071346665575 -0.47250988278195394 -0.604700580716307 -0.704204072830284
Ni 4.641455685586634 3.8774922505944027 12.827484505071544 -1.5204185119923042 -0.25123971628042535 -0.9318248641401887
Ni 7.424691651913345 5.279732130282986 6.468868633771805 1.249006948749694 0.31152540054436023 -0.7028676134070476
Ni 0.16750632685736988 8.07513678053037 12.31810451768978 0.30077330423417875 -0.3898753985091737 -1.838132043625247
Ni 5.701047109130991 9.318548231226673 4.767456706435306 0.08945227852556208 -3.200176257309295 -0.24651608555251092
Ni 0.8588436542133585 4.598893330306486 5.788036376098489 -0.7539875720113144 0.5892914452500883 0.21669385998475582
Ni 2.2379256498630413 3.7156169775482515 8.520354531365417 -0.02389120479530079 0.5690028702043813 -0.6696754429257951
Ni 0.825295658104862 1.59399478598696 13.519082589940117 0.7731687729254556 -0.5955317697328453 -0.7145329655601178
Ni 9.255686043783925 3.344116964366296 12.154243188320171 1.0980248291404509 -0.42176530523923494 0.48217028868985345
Ni 4.281339279943375 5.167896130440593 1.2739004527593027 0.27118016395809424 -0.9182700082738895 -0.0976983205844382
Ni 3.55575112619407 8.533976541207494 9.187289067848223 0.017809774487911264 -1.4230809171813943 -0.13579769855932097
Ni 6.831248676316438 0.6984151647854258 6.636724506542103 0.7879063362459463 1.957997644335344 0.4283622417304623
Ni 1.8297420081183757 3.7736472067828677 3.8131393526406336 0.871887307244292 0.18416940499448928 -0.0356246911821451
Ni 1.4896917809526038 5.549106790775837 2.38432370280732 0.36869670754902956 0.18224879093300872 -0.9411592541672372
Ni 8.215609376020188 1.5204966827978759 0.9003975601885602 -1.3578641141644292 2.287046141365132 -0.19407817946776898
Ni 1.76001040233331 6.273386483888509 9.140930307492361 1.014001434939944 -2.39829597538176 0.41715968814642346
Ni 5.2973963488775135 1.9020251121448728 11.01543662321939 -0.11533788804307232 0.27201474404424764 -0.8292599594920687
Ni 2.3818563198925293 1.3441816120117533 8.10939508384161 0.463048480258738 -1.179903151973497 -0.18820346585454684
Ni 5.880278177907321 5.458280930298788 3.5051557572197436 1.0671497368281493 0.4239497144850634 -0.963454832340644
Ni 4.221439821227856 4.467617343862708 4.631966542126833 -0.6054929947106154 -0.45870125903363584 -1.2440472907515736
Ni 7.444580253590146 4.905839503365475 8.801471691457296 0.3601961262771861 0.3540290782345258 -0.5938842068270933
P 6.270152716886548 6.758582380246356 5.343221444216578 0.5920726075396513 0.469380850234669 -1.3909601253874497
P 4.095126639055874 6.399204320248052 9.893673692525478 0.00027356537636081917 0.771566204325026 -0.20504162045780816
P 4.014572194576383 7.03563022775831 2.3101283770218597 -0.04905819097923164 0.9285266530048911 -1.4629543563375642
P 1.8868376226125407 8.900046442747426 13.31960122358243 0.02415937085502291 0.23158774637745275 -0.7755588704241869
P 8.451851943964044 3.2701889383966045 4.570506276794761 -0.041949862069224526 1.6207025910260477 0.07200708646592116
P 8.458459670179034 0.06230515705744012 2.4224064496364863 0.31426259696986525 0.821074852578115 1.9318587811564474
P 8.118970211857533 8.551136067842178 10.329529407505422 0.8304439524978408 -2.1562677503972734 -1.3529263105431797
P 5.872904067605162 8.97095566310546 12.618113045530402 0.7731402336803653 1.1496615794801361 2.54416057125878
