# total energy = -340862.85114287346 ev
CRYSTAL
PRIMVEC
9.33779223292084 0.00000000000000 0.00000000000000

0.00000000000000 9.33779223292084 0.00000000000000

0.00000000000000 0.00000000000000 13.66680281138323

PRIMCOORD
 96 1
Ni 2.1727455084221887 8.783099353993999 1.321246242060844 0.3512273471196726 1.0422581157927922 -0.04959246621614685
Ni 8.735196479876826 8.498446095789737 11.004263182664209 -0.5020611140765096 0.03154640734771341 -1.5934427268688298
Ni 0.6176520018771849 0.41389764039836824 12.647355109363758 0.8686937400076589 2.351111090165841 -0.3968513156063746
Ni 4.06900832683749 7.540846165265359 0.4635242709603799 0.6114474125218373 0.031432507477668445 -0.6046237047317845
Ni 1.8781755148743733 2.8182857605602596 10.873212871453678 -1.828466238400709 -1.107930261179621 1.6674663295441476
Ni 8.707855424240359 2.5561179060351704 10.728439740788446 0.2563659817633972 -0.5445442229413847 1.0730488759214036
Ni 7.104211000797728 5.792185828559635 0.7392505997969963 0.06673349677180765 0.21991082426015676 1.1327519482089912
Ni 9.33807235933627 1.9089248646731736 6.329574837361937 -0.43577730324761077 -0.5110818295178811 1.8541525874232194
Ni 3.598299558538757 5.720088734786012 4.4435284974206315 0.22861015180636757 -1.2831997925813192 0.8221652574288164
Ni 8.970107318895478 4.042582374839128 1.134324184847839 0.049290361594695756 -1.1184604712869834 0.1583354746505209
Ni 7.057073825643054 5.0452184772674284 8.457127298970814 0.3592787566692393 0.24628777159178875 1.500963488591486
Ni 4.1652436135142095 3.155809598345695 6.685129951934947 0.5021112505881546 0.8455880072281309 -0.7235886480044829
Ni 8.963384108493068 8.568628942157117 8.404126924077705 -1.9096079401780468 0.6320360353064663 0.8006993742455565
Ni 4.798168508355535 9.108857573575216 2.248531030124911 -1.9897898491452763 -1.9773837621714399 1.4416121432163622
Ni 2.9909415388110396 5.598893529490346 1.7642479132678672 0.012711276919081334 -1.1705582204234872 -0.39383644003945073
Ni 0.4070838534113701 3.5316557354248674 4.577354000480603 -0.001632650507416543 2.807536151570791 0.5153668300464802
Ni 0.6172168607594735 5.173977294265805 7.534630930760019 -0.9465377448703312 -0.004539025520934118 1.5685544482675826
Ni 6.680461989601385 6.972464090287169 12.371764178514411 0.08257252068659328 1.7121050512994447 0.4921919345919136
Ni 5.1242255372879715 4.002887420088232 8.487562898950836 -1.417727623289281 -0.1259781413657379 0.941570887783359
Ni 8.877299001965543 8.124000627544401 6.14257154135657 0.16825376220549734 0.5112263255155454 -1.3087961529931849
Ni 8.490266189800138 1.54962529541771 0.43561547755659774 -0.4983199018665224 1.1533153741826394 0.7142995093930731
Ni 6.449379645395217 7.430772270510346 5.923561094939617 -0.6884049010144984 1.6703475077466847 -0.351968081940439
Ni 3.9957813602045738 9.614937898824405 10.215798682721571 -1.1241883749096961 -0.06743309394199355 0.6686287468288357
Ni 0.5194156263265262 8.63982027008486 3.4609677144980835 0.2870991491811959 -0.6763202019358223 -0.8151086076923509
P 8.078338823561365 6.270495559729981 10.921073725505833 1.5446807269737786 -1.2007805096431383 0.6077342253363082
P 0.9925232734480081 7.086973436349328 8.551304536241018 1.2814915516409606 -1.0972588975087039 -0.09591397499050579
P 7.405252084357864 2.585728045182451 2.0924965220356446 -0.16099579509150339 0.8320506348633283 -0.04894583377108345
P 3.973977615357869 0.6392577855287077 12.824599478714182 0.320332457313029 -1.895836597425567 -1.32146732070295
P 0.08794612851808124 9.084429909113126 1.3643102722467255 -0.9086332565150738 -0.40746920033153694 -0.24059200675859208
P 3.0505913555479776 1.4519800021149298 6.967992221590343 -0.901647312115544 -1.989830729685541 0.6375788195015665
P 6.337522232325119 7.79976446809595 1.2122209813727622 0.4489647484721623 -0.6184858074258575 -0.49670293508838975
P 4.427542197130457 3.9995351526792526 2.7070931982966226 2.1570992451596336 1.2226863085772943 -0.8181111419641007
Ni 7.2419994628782325 0.831437953543931 6.488765519223446 -1.0326092798491184 -0.5772802797218252 0.07512403482834805
Ni 2.70278660852219 4.495465297779249 8.468388676394852 0.3844370011024218 1.327215793150953 -1.8344173137778215
Ni 2.5973162453343828 4.5812329193711046 13.047655990502475 -0.19442604972549096 -1.172297314601781 -0.4847082246203588
Ni 2.8254198338205945 4.917253372608223 10.498742191169331 1.1240773032531284 0.9249834157383231 3.052369707214556
Ni 1.6285483153082236 2.1243103801481595 1.221597992325679 -0.3194215154629854 0.4243484925853788 -0.8884320989768505
Ni 1.8138848154013272 3.2542952929487763 6.82526967009785 -0.28557551344781784 1.1895712711908804 -1.140949653528435
Ni 5.508886550228082 3.199753248559225 0.8428562058773574 1.1882142429423537 1.4788867112971047 -0.055030606512582646
Ni 8.040614142970064 3.814161301417247 6.562266083168571 -1.0404899681487758 -0.19580081858583054 -1.3338451255420125
Ni 6.870430034638371 4.383309075357934 3.3162496768069847 -1.3238545899882037 -0.35437129206529294 -1.4867167488644848
Ni 3.2673868776490247 6.863043840987946 7.159026642499489 -0.27700037018429713 -1.202861303431567 0.06058933154728274
Ni 7.905701720895037 6.174979283054631 6.831816396227196 1.6330847667404844 -0.22054331563783308 -0.7609933139051862
Ni 0.33109850295502086 1.8417301118179752 3.094205381695945 -0.7500129036342824 -0.7901714781310392 -0.3489272382315862
Ni 6.372370872910945 0.2641474664769101 10.26443830864534 0.663077220882987 -0.09422450310322483 1.9407823088983218
Ni 0.9781243978361798 6.708755500044861 10.95472152601145 -0.21551140964088047 -0.06126321768585578 0.12034896810441854
Ni 7.111952030552725 7.268425414876594 9.361609198420041 -0.7036098908897107 -0.20172772559322677 0.0067118648025368275
Ni 0.853835581976182 2.144470673563164 8.653655143046263 0.4549075963191585 -0.7097221744350357 0.8929233019789848
Ni 7.884486256958542 1.2617038099345 8.819420564413795 0.4738936505033581 1.233368985102121 -0.3051007279649391
Ni 3.363612826533519 2.4779325717304768 9.238895668108496 1.000518827072477 -1.3016621130515649 -0.8688066114364392
Ni 3.760627738588057 0.07067027912155512 4.536230363519196 -1.1772906540513144 1.5996362572740515 1.1777179713967203
Ni 4.0881041119387795 8.928189969594897 7.744020649846968 -0.3090468570968806 0.6811667313948463 0.0283690380609963
Ni 1.3920127004423226 9.233545113163245 7.18284828424614 1.927827548509867 0.40259618850995177 -0.41713911932113323
Ni 6.116730135151529 9.29119664236391 4.4533275765821445 0.6351308721817062 0.5922191604198446 -0.02408789418713916
Ni 0.4352746481403645 4.582642925997166 10.198386501558552 -0.4415288610194073 0.2931790368266886 -2.2740240180738516
Ni 3.849196697847584 1.6816523396950374 0.869959147812073 -0.2997826581861353 -0.13496800356917402 1.484153873233315
P 7.596396691215272 5.754900024202936 4.646015720494439 0.6691347399309766 0.5361287451841799 2.332927477278279
P 1.1216369265509576 4.644533812868241 2.6274978573658685 0.5253187990528695 -3.297220232139186 -1.9285618555727302
P 2.5852424799867215 1.0020758348947656 3.047519221905765 -0.18828934070013376 -0.004052572802818827 -1.4610116307888967
P 1.4485343567836946 6.194131094909275 13.774087669132209 2.7314263557904055 -1.2640401889337327 -0.27716234968345815
P 8.857773678421877 0.5485532731871933 4.838553525951902 -0.8694869253329154 -0.24948031038715746 -0.3214588576079883
P 6.251016925147444 8.820301118220666 8.269508642457781 0.07655459662728752 0.9102741345526066 -1.7987142039492572
P 4.967686788418524 6.127879459068859 8.640740042619077 -0.6565898133864304 0.39647027811787205 -1.18132882867643
P 0.6814991562195165 2.7612225122698044 12.966119322568023 0.2727300249437174 0.9830227271702425 -0.6873792879634613
Ni 4.888875822034717 5.463168719491693 13.08789066964401 -0.30037298347196656 0.18084651126884338 0.41153874241522026
Ni 5.351404684343852 6.705291179129174 2.689039510807707 -1.4402831399922937 -1.6480331605202005 0.5625892533685536
Ni 2.680609351986463 3.288396910156556 3.4670624914837127 -1.035097850598927 0.3724548890398811 -0.3808132883069054
Ni 6.359092532366185 1.8252115573709429 12.46810124712639 0.11242945614702574 0.002075651582106103 -0.8800503026710585
Ni 0.03919351530838287 4.940289706028703 12.386947428673189 2.6245741366208413 1.1741379673549455 0.5543830634086775
Ni 7.635904890121656 7.1668769244235255 3.084159784819678 0.3292994366983297 0.9681100717244682 -0.0611860845910172
Ni 0.09824664712210697 7.538558406170094 13.23905925420453 -2.526693781932584 1.4186012841434859 -0.8238778692445489
Ni 6.441171726028941 2.9579978078392304 10.182136875527616 -0.06446501245260511 -0.4412447541200853 -0.5491490687032478
Ni 5.415321872127875 5.37309637568385 6.397594117270653 -0.1148411509123119 -0.2091705550245172 0.4772792791461393
Ni 7.523776681077018 0.5083830248120158 2.5717643106883346 1.200588191126674 -1.31383320119646 0.3538087346936036
Ni 2.7948759154507568 7.277716518141037 9.730941291642656 1.9703381681785679 0.7691701932890237 -0.5296637062851265
Ni 0.6511644043955314 6.053307850355461 3.8327724551020297 -0.8694776693615349 2.9603578954919336 3.772905170215012
Ni 5.363683881120475 1.791436762891058 2.950102704512511 0.3726040130232357 2.6306627660170823 0.9859023627108826
Ni 7.534991369539926 4.076086373344472 12.836339884879392 -2.57911549006741 -1.7607171558801933 0.28821012285718756
Ni 2.287002734094257 8.249687310900566 12.472815898421079 2.095027158419237 -0.5809461586091866 -0.7209730647585066
Ni 6.114414362679588 0.47777374189659894 0.6625798553912902 0.3603755892778439 0.5706105810111334 -2.1263352245038996
Ni 7.5739112875361005 2.322252899745782 4.427880225209022 -0.6371052222992576 -0.22123494238821897 0.0362713236272085
Ni 1.848201201830295 1.7826872515756993 5.034385704506545 1.4297035647042347 -2.4504693149512056 -0.09228383443708622
Ni 3.9449744327052505 2.5176368642735985 11.833757007866776 0.41817733077766045 0.433966218180801 -0.34796487431831685
Ni 5.571664527360585 1.514253738467253 8.344335172898937 -1.1785494661590799 0.8008857792247497 -0.6074375200314958
Ni 9.312664226690496 6.38820776852551 1.611288340158481 0.2080158725947837 0.08562390591840736 0.4920759778393396
Ni 1.8942645308790296 7.796244120426911 5.194943439149877 0.15680515404892348 -0.5844534004314967 1.1404400608818683
Ni 5.739576707160777 5.568293584367155 10.650034034587229 -0.08199145137214266 0.2937914735997069 -1.1556990439234678
Ni 2.94035871832513 7.454667680815578 3.091021194547026 -0.04005521614967295 1.2420433729476674 -0.21293105050821393
P 8.442232586591809 3.5062476027790925 8.61266877163057 0.7415984543183421 -1.6088621467476936 1.2350592283203503
P 4.742524604483367 7.623466950877198 4.664357011983903 -0.3562805932728638 -1.8995078756295676 -0.28224182108889456
P 4.250105469260185 7.033738682871356 11.541000413569167 -0.4722352889643286 0.1584264917024304 0.7683034744133542
P 5.708136360737284 2.4024551971711983 5.517369934465012 1.3347856350784109 -1.0103918632118147 -0.3414206454418959
P 1.4693576334467147 0.23924730972820646 10.454352194487418 0.2609260903302539 0.17595035951880664 0.19661097319195173
P 5.622368739145428 3.8876590640247044 11.910016889414559 -0.44749973389086156 -1.5191738409519255 1.0862306647190003
P 7.814854340332471 0.051830349527246085 12.65688059121306 -2.310579962821014 0.10504139121307071 -0.24431573546708246
P 1.7984587826446863 5.474924999903686 5.863550839422772 0.8804156564302772 0.25155390508673453 -1.6360677606282081
