# total energy = -340895.3622785829 ev
CRYSTAL
PRIMVEC
9.03074821819368 0.00000000000000 0.00000000000000
0.00000000000000 9.03074821819368 0.00000000000000
0.00000000000000 0.00000000000000 13.21741285935071
PRIMCOORD
 96 1
Ni 6.512460894728264 2.033670324370391 11.410949169091957 0.10242272264330103 -0.5964002883807277 -0.024352203592119353
Ni 4.575157685073879 0.2572959518400545 6.102030544590081 -0.4697965976158489 1.3648883680010624 -1.088855503936357
Ni 2.471797076356809 1.4012470235024348 4.703535190083426 0.9985359923144932 1.055784175303685 1.1783129246682416
Ni 3.4002302437940903 3.921602433270168 4.605818881576906 -0.23365054244375244 0.36116517505867474 0.4919854750080624
Ni 4.838972934085098 4.403925667256412 2.5233491028169652 1.61248585954321 0.4044630665153615 0.011608016552573555
Ni 7.243996657784222 6.028114773131076 2.547418756162722 -0.3495340185776496 0.034947462609462396 0.13920081070359897
Ni 4.817028215805658 4.680727132270031 11.445340967702487 0.15400085183090895 -0.2375640185655457 -0.683015611678127
Ni 5.59102655719492 7.72885753203241 12.275355234418376 -0.20984726937656764 0.7161134226733603 0.6792911116386882
Ni 1.966508649537391 6.355009798760353 0.6464715328661023 -0.6845081370632533 0.3516184119105041 -0.7719379858421479
Ni 2.852145100955634 1.452406212413144 0.26426588334954887 0.009480428686609478 0.41447211401193135 1.4848005056783784
Ni 0.34747790707063425 9.09504719077732 4.92396220906437 -0.0455180390364571 -0.5093818161076389 -0.5386576822536207
Ni 8.378646961810391 2.327801795300982 1.2761223940172732 1.237799252959333 -0.21575129356582842 0.6105081885370195
Ni 6.814241409437738 0.7022382095406675 4.8179060045368365 -0.28683021179052537 0.17692120807250822 0.22021884241887882
Ni 0.7981528837686908 7.483979762129004 2.6100289338710976 -0.1914800797232896 -0.7239537446533855 0.23716524046523024
Ni 7.577032592232437 3.7087838197009226 3.6791331639285425 0.6016263126663575 1.138652372853826 -0.18290313668755598
Ni 7.496162241535985 3.9039924741570378 12.697545424944826 1.0627914598594537 -0.3051020135165197 -0.9176107774233359
Ni 7.865339230533301 8.949995312174705 6.895841444593853 0.3261302949417286 0.3286425198406211 0.20763637776817787
Ni 6.863874401891976 0.691450077665516 0.31047170683792374 -0.29487827890598245 -0.5036865654950744 0.29487082270681475
Ni 1.8212219714799343 6.605784647279592 8.9113247450371 0.01329697421922226 0.106835506999016 0.5964144294481148
Ni 0.04644423524252192 4.848292666292663 1.3627155298880795 0.23768511752444224 -0.25751166533206615 0.03544368551959057
Ni 6.529384516973395 2.052526526743835 7.04620250010037 -0.15580010982317682 0.2321137940842519 0.27233330372593095
Ni 3.2910936510339983 4.241507659743771 0.5121201878804866 -0.10509307038661256 -0.762506408115603 -0.9279923777679759
Ni 5.795302082907231 5.420065461825345 4.79895227008215 0.5587950764334442 0.8842247457637222 -0.12711945405903272
Ni 5.014332003858824 3.0746446766629694 9.350949698160372 0.9028297624594193 -0.4376884042273946 0.03956799210060928
P 0.14528667805745646 5.737586570757479 12.450710691892798 0.004035860632270469 -1.5315961258756783 0.9789752965737463
P 3.9486675858148095 6.0665767299838045 12.79171987398254 -0.5468376469612518 0.9983290185100098 -0.5765832536548006
P 2.4968754642835593 8.410751271885866 1.4905674453487106 -0.13537038121391526 0.06801853413181834 0.6001906086610953
P 6.257640270987138 7.812942829110541 5.89168816219459 0.2686530266608664 -0.47512340914540113 -1.2972493286958497
P 4.879809977731035 0.8764792726794154 12.609835185513868 -0.5364061672152827 0.5376793775007515 -0.4684976762987673
P 4.000793064789675 6.259988265535554 8.023762938089153 0.5784884410973133 1.9292100306796902 0.48174605666824133
P 4.629396359142322 1.102067364292746 3.9284928941949464 -0.13309161248206755 -0.3533603343022753 0.042639431937081404
P 0.28430872604477003 5.477609389758096 3.5522321862600204 -0.35727175354153956 0.16758861781767267 0.12989881657638275
Ni 1.3046360785833233 0.9412297377261559 2.7111561559966075 -0.4079556530496523 0.4733629748108686 -1.4492691455409878
Ni 1.9859157275548867 6.2638082720508645 4.750946618464931 -0.5360541831925025 0.7133204333092554 -0.4578067722438245
Ni 5.905712011172426 5.770837785862374 9.219251587014467 -0.0683329800484436 0.19273452095568097 0.15372471535138688
Ni 8.994534962608531 2.3277566415596667 10.324332512002625 -1.2854441085308057 0.46243681481666815 -0.37141744891430223
Ni 2.616370325301477 5.147851616929403 6.846435123921019 -0.5826433438059513 0.20989072101999334 -0.2013477165459887
Ni 0.5824652014762447 0.244778431672511 9.342794029403928 0.6324497258051173 -0.9711118346652694 -0.1845851523756692
Ni 1.7260740077794519 1.2704637271555872 11.466779964079192 -0.004383988000308579 -0.8872457919782332 -0.6949522152147127
Ni 4.225369712597534 6.769358590569913 1.7157654086370733 0.08512099814005984 0.2953148522227688 0.02312527316355372
Ni 5.619247645517243 8.112709486957334 7.933804945415499 -0.1666671344446678 -0.5863004809425645 1.013331662566429
Ni 5.521607195296133 3.010869532428648 4.741653978502156 -0.8643740295863822 -1.2241109568389628 0.036626135863465956
Ni 0.6371834082774589 7.414587492475008 6.833548246149514 0.6372453474215477 0.03841459522245642 -0.48175531263962185
Ni 5.160873955924857 4.581632731578554 7.27448085162129 0.7792139506782709 -0.3281534960193445 -0.8013130965701554
Ni 8.108076713098342 7.483943639135951 8.869240555056022 0.014344955867762391 -1.1759747634533682 0.5625604570131473
Ni 4.857142799590544 0.562179431652745 10.258444172674729 -0.9453252126194687 -0.9522234824011988 0.45371537578327026
Ni 8.083151847892065 6.990431308051673 4.82641748477485 -0.03360946052432921 0.24421057734778584 -0.5838939283836008
Ni 7.119670346445522 6.132636653528702 6.952451593156195 0.4225782880588336 -1.04063446414644 0.3786214228619092
Ni 2.4231935892045695 4.906017209190677 2.5972612619766653 -1.2732809908057103 0.49119254679312174 0.18977183878293125
Ni 2.245558770868532 5.289264103981971 11.436353567031007 1.0098197927584287 -0.069185557856726 0.7661835998568741
Ni 1.0162210713033015 3.2158313950089585 3.8223698621302655 0.45650939358863957 1.0592945024497886 -1.3909549831811272
Ni 3.602645435364194 2.4355024990872343 2.471457520222115 -0.5720159459990922 -0.3264555394916313 0.5417388922821056
Ni 1.2853825232863005 3.5381658927653477 8.147490510818006 -1.1866672101702078 -0.11473676412396369 -0.17170572530983977
Ni 3.73509038939146 2.8320787783149286 6.985415630466323 -0.5562347719054357 -0.7836025666642699 -0.38473730595166
Ni 4.039236960145878 6.913164225912215 5.819415083844651 0.6101402636746396 0.6474320581465625 0.5628052260341017
Ni 0.7793671212316993 7.174225096703173 11.101609015011407 -0.533761530503584 1.1736134623100434 -0.48696102521027756
P 0.08173278715558238 5.682697682814091 8.00701631850998 -0.3277837713847516 -0.9317909255784598 0.9376525265655594
P 8.612660741553235 1.7964686904906573 7.9738409616904935 -0.33773985415619895 0.0449343986188452 0.7942358780083999
P 2.0789775884065826 3.357153574578895 10.242873356519416 -1.499495645796708 -1.4857088764252606 2.010605757449363
P 3.9800494360292342 5.995098357481023 3.79828756573694 -0.4794122663287421 0.37585980095637206 -0.16086929681596812
P 6.674589918296483 4.011115210054449 10.60123783062127 0.7883423953421004 0.6841299277882282 -0.7948249177426504
P 6.1978115637438105 7.804652602204975 10.178676476341206 0.4054534554530888 -0.9047871432961062 -0.5987554188764656
P 2.294315780741245 8.48846086069022 5.792848428604135 0.24040894421350853 -0.5481823339146044 0.452071412421944
P 6.841613607423327 3.9087065247503983 1.5442037685080003 -0.4854281335055188 0.8375070299922092 0.687374659977771
Ni 5.196129997144169 2.8542402345526834 0.5422025134198447 0.4414782102871299 -0.7581684428618813 -0.8122950495029561
Ni 1.50117225303412 1.1121727715992038 7.129406396148018 -0.267974512536603 0.39420745022562437 -0.8011783707645039
Ni 7.0681950813456025 0.5898496443310174 9.22200054678577 0.159321492712874 1.7093390585185337 -0.22756217015782743
Ni 2.820374928565894 1.6127290863287347 9.10959933852855 -0.5503993961705812 0.2859614360323269 1.1264126362545246
Ni 6.2612254780476055 1.8854667146239388 2.685090707284696 0.29789135470069344 0.008188963568695574 -0.9233533363340678
Ni 3.9737369429932965 6.9037090324807036 10.429384497323298 0.39148850863256446 0.3523915426311028 -0.23442598715719623
Ni 8.035577866041823 7.381435615601006 0.31336786780591397 -0.14811353981219652 -0.6380107648326625 0.09005134556214167
Ni 7.680217921887118 3.9080382493789263 8.65617630513402 -0.43396518973953646 -0.2143523563357728 -1.213942243836077
Ni 3.1717974664778694 8.215858693618962 12.582315786331591 0.53085027039406 -0.16342831579239595 -0.6035345854326638
Ni 0.30382868841555527 4.732292704852582 10.216254322938973 -0.6331004720152388 0.8524348549466351 -0.09482305591917217
Ni 8.772188909621669 2.4254061225290395 5.566619153864121 -0.8391013710625226 -0.07009392860360832 2.655349213020169
Ni 3.76493701240115 2.5897476794217296 11.530341982654502 0.17384154070591995 0.042407775542249546 -0.21633261999059517
Ni 0.935386843599902 3.462723021775045 12.552603721471021 0.35592912347071604 -0.33564569063133165 0.4141401845938093
Ni 3.162938302431726 8.469252459134513 8.098137471559925 -0.09739364485982582 -0.6175188155268978 -0.3081243452826113
Ni 5.5933113365054945 7.924571908391261 3.658301936909949 -0.3278953572619514 -0.666901993945716 0.45886349564311296
Ni 3.089617657283261 8.369634275043774 3.656809154222051 0.4199166820662703 -0.8242118555451999 -0.04348326799461543
Ni 3.276743792043863 4.676265942628038 9.260688272345076 1.4236465598768773 0.30684650701145216 -0.32095517849869243
Ni 7.294957170233142 6.118205517804198 11.236571741654437 0.42334216280805154 -0.32438117346110584 0.5012100789301239
Ni 0.8898736785033102 8.82108138071833 0.1614995804142784 -0.998267569144455 0.25119960707110933 -0.334732691898759
Ni 4.581578547088975 0.2474108947912174 1.6731529198826032 -0.053459919591353086 0.1460854536385742 -0.23673972289203743
Ni 6.01201294897789 5.573949412229314 0.16487798333952047 -0.20693138128135327 0.6040017548770695 1.6442248425177037
Ni 7.860336195995519 8.616932285481703 11.320304839550305 0.634072863230837 0.754456798338249 0.5923865392356443
Ni 0.2305559062328859 4.929488123926588 5.90372885885384 -0.8233554210821755 -0.3509478682060408 -0.0729095436755325
Ni 7.788767516010105 8.762607285714473 2.585696485750883 0.680098438031332 0.2553012879443087 0.2987598733485758
P 8.393610911682421 1.6582711498197689 3.604362180609018 -0.10923203225565059 -0.9496153553543903 -1.0876568556425654
P 1.6753302332888473 2.986703250076476 1.5250116222991672 -0.3786795297933543 0.0582434570229255 -0.2620074963198907
P 4.700233548518421 1.241366656251738 8.130149668003117 0.8410872911442999 -0.547504076900657 -0.11633470473870289
P 8.675948225381346 1.4491822352832018 12.392527386983014 -0.18554880184051917 0.47778990023397067 -0.05771869486770705
P 6.2094612290032645 7.798403324406879 1.469207919556723 0.5873890860210529 -0.8786248830784417 -0.33865722376414575
P 1.8211587562420923 3.3054164177793446 5.972869170631294 -0.08854210800646686 -1.2054645453823691 -0.4804090830243727
P 6.934738683512865 3.948432786359968 5.980680767878914 1.2208274009916846 0.8121430973061239 0.7636878300182138
P 2.4364055739135484 8.416070382612858 10.453876789687769 -0.3073807822483674 1.2583855617511166 -1.2349381293614539
