# total energy = -340858.51152661367 ev
CRYSTAL
PRIMVEC
9.44904285989175 0.00000000000000 0.00000000000000
0.00000000000000 9.44904285989175 0.00000000000000
0.00000000000000 0.00000000000000 13.82962934933756
PRIMCOORD
 96 1
Ni 7.879244920485386 6.570703686009746 9.817847379800806 -0.7367364982403505 -0.3280761058141898 -0.29434631766191244
Ni 2.966867133012248 1.2874131749143363 3.7933701767499146 1.6534556170873524 0.8343348029118147 -0.07331860618849309
Ni 1.9900061967123106 1.2485492621345329 0.035183510633503105 3.0598948119470077 0.6864261800215726 1.599407429092697
Ni 2.7404019257198704 6.591415987690594 6.291568569593638 -0.6720665688657909 -1.110809896720261 -2.1989804587744515
Ni 5.253176411890636 3.1155478204885934 3.1343466910150752 0.03142273728565556 0.22212428697170777 1.4550800957958103
Ni 1.6388608704971253 6.284851245111469 0.8485835668069209 0.10665990065310017 -2.4591745560346876 0.6457857807923909
Ni 9.27553941486524 7.64884891141416 0.6979110211214867 -0.9681167565926876 0.1391725285688248 -0.415699044440497
Ni 3.280197390191505 2.873671224491168 1.93346501477898 -0.6961128111817173 0.6772046614233047 -0.9408700050615925
Ni 2.03332060862153 8.139150290026178 11.455842717983167 -0.29021609754362276 -0.7718685660567933 0.66808187318643
Ni 7.205509275208083 4.3888724726811486 6.505374894330435 -0.15616829179587297 -0.7771177302708745 -1.4630266043363964
Ni 6.681503161150999 8.71145991055794 10.968306129276174 1.2598834864528818 -0.41638192944013447 -0.608155629144443
Ni 6.726093193829797 1.1863178666646115 12.680843075807019 -0.8303912448830344 -2.6623768092909117 -2.82936198919663
Ni 6.572196634762289 5.51346919218367 3.110961255143756 -1.6340296471522566 -1.1378435037992856 0.8698463655548633
Ni 6.17973064465552 0.5134562578405376 8.01045338303561 -0.4959380318979072 -1.3629970645156204 -0.11098321061880241
Ni 9.036346347005297 7.931517024909862 12.11638749959876 -0.6727715653526155 -0.5843225312805872 -0.11878085228635028
Ni 6.009553384951105 1.5984662127938285 10.13317705442334 0.3814120982331689 -0.5558758459041201 1.265274575561466
Ni 8.194521680468592 6.058641161973006 5.157953683702338 -0.3112176394959543 1.8183186084437457 0.15587030093947996
Ni 7.221128542853357 4.995869529102689 0.7748838681663585 -2.687785222061687 -0.1346566429763423 0.9032935894697154
Ni 3.691929978440267 7.011293650779178 1.5640064988340265 0.2035023009951463 -0.56710488185072 -0.6942544178167398
Ni 4.208159530324294 3.515289573503324 11.38515915378445 -0.33985715760951796 0.3749907680878574 0.31097724135037413
Ni 4.879504567788981 0.7389255360283711 5.995434625292564 0.038479901242753085 1.2283180529417748 -0.9667376168569737
Ni 3.2737625920871904 4.346191146635349 8.35194840190287 0.7557652327370274 2.02578786450644 -0.7511552447688419
Ni 4.70946904372563 1.516911524925488 -0.1663494524914083 -1.0930877968501496 1.3756142390589987 0.44145558457931067
Ni 5.434626379581024 8.754434156928605 3.6252159570956217 -1.544356253754824 -0.2525862030059908 -0.7688786301905338
P 6.263137344900433 2.63046231346774 5.46448724444043 -1.0044811541543346 -0.38552560618091025 0.2116701815179193
P 1.8015355902678756 8.078118922983933 13.706407213089438 -0.028691454397421556 1.2015099316099953 -1.059345410292382
P 3.2568015603731744 3.412758010757482 -0.23690545461316678 -0.1003064476312466 -0.7722460040008701 0.1296735879394541
P 4.856259922654452 0.1494649580235671 11.632225164053372 -0.6815536824206198 0.1725387627340964 0.1218090975897128
P 7.816361541066569 0.14035608082450787 6.656463197896324 0.7558937878950918 1.0426188415663205 -0.805339187010413
P 1.1379671149762443 5.933280711973091 10.835099194186947 1.143584777158437 1.3664297443462532 -0.8987123978569361
P 0.7159747561229821 4.448637667996553 2.398763281402998 -0.23214490443250343 -0.045507754623811944 -0.42232683416965977
P 4.662724629302657 1.1297747949227337 2.353250077248736 0.05277754881234782 -0.9197741036232417 -0.2819679986022176
Ni 6.722096248751786 2.7727648970961956 8.255998097423777 0.22979748724624938 0.03216527187863493 -0.3297216118374128
Ni 3.629698582970345 6.233212226550412 12.075368260170507 -1.0907902590652248 -0.5935623047113002 0.7179152517687895
Ni 4.0536298853933665 4.365637276589357 5.2417610233593255 -0.6029630291999101 1.0209665534038674 -1.496830697370035
Ni 4.060839505002165 7.686956900774955 10.336887076994998 1.425687501566306 1.043523612768777 0.36664085346126535
Ni 3.857070898365534 7.163905140034371 8.098437199582623 0.7369205892266987 -0.5637747890362227 1.4493442217532975
Ni 8.454767215547935 0.9788168881466236 8.755206143720267 -0.16179849349845682 -0.7590022516170865 -0.1767872535978052
Ni 5.781321206666794 5.819495339326752 7.906841794704858 0.3325979049439433 0.018611187343284076 0.2287523338111867
Ni 2.101911209853865 3.4366924360118563 9.949491443221234 -0.18251721410304697 1.0667864399514595 2.292238227089033
Ni 8.589784587225692 6.362305048431685 2.55147020598984 1.788342630906946 0.012714619353191006 0.44816076451362813
Ni 2.8505966621259162 0.9364965155334012 11.551280884345882 0.9500889525566992 0.26194578984401984 0.29987984588563193
Ni 1.4182540697020676 5.393683677398946 4.195093394026722 0.3107113892834972 1.925151801449917 0.7968139231482213
Ni 6.9581900305937925 1.0739970956426024 3.1305992006653374 -0.240421799729315 0.03496520322127527 -0.045418280233799194
Ni 2.5114894163584505 0.2474505863083432 9.347363478522386 0.6503654297432734 -0.1608317587098133 -1.2271417732454866
Ni 5.296982174022212 7.892190109035916 5.966420394662448 0.11185867124522027 -1.0832355866464185 0.24667266573503324
Ni 7.580815803703345 8.676224430189379 4.624600576569208 0.447842461942261 -0.06155349523276496 0.3734902722829309
Ni 4.840574511710014 4.9934978193755475 0.19258849926948665 -0.5411207990821325 -0.011904207636753691 0.016157326486152816
Ni 6.539833663385963 3.9287040913593807 10.490382051746158 -0.36210259927127963 1.322993527539489 -0.5045640830040213
Ni -0.16736711439424923 3.229588317288848 8.86111384943626 -0.3974586101730704 0.8836997264981876 -0.015028097977716053
Ni 1.9548274106001762 2.440857821894791 7.947970643028868 -0.18869454655835244 -1.2075239990145592 0.43616888225907463
Ni 7.224615239623537 2.083107614806014 0.7258839672419172 1.2245822400484263 1.4882308715161658 1.9724703840302222
Ni 0.17936739867101814 8.319995518981358 9.916673972889228 0.17868807016494387 0.4314753334381472 -1.407116166322022
Ni 1.5813634454387484 8.13402890886239 7.633028379158574 -1.267805569513436 0.7280932207430557 0.8367698947158685
Ni 0.7496501995355622 1.5898864819880754 10.26133631088214 2.5140724936241474 0.4327030351976612 -1.6001725893934957
Ni 4.6714271976639985 3.243128795531848 7.091529252281348 1.1459396505438588 -2.3492128447018636 -0.07955970200219846
P 5.540597393883358 7.985707285010075 1.4458046436121266 0.9482920085572766 0.6499180577932098 1.0682630244969862
P 0.3027586681644151 6.475532927556505 6.669173105282688 0.5484042201174232 -0.9336549753703921 0.009364986154667741
P 5.99250731185245 7.929617767319602 9.012188924342315 0.3129711318519513 -0.6402787349312328 -0.3079914192491728
P 4.198776630885844 5.0102698702348105 2.5402674209201255 0.6165628793715316 -1.149385185890298 -0.9111580798194564
P 5.776360459229547 5.780933795914552 5.440631246240778 0.3001192155899477 0.6492320874697787 -0.22842811770254853
P 4.054300767427737 2.180999697567688 9.571154606720018 -1.4676067675079112 -0.13652506364364872 -0.98282963732283
P 7.6855111972361 4.655637847249446 8.539575208830836 0.4309762823145416 1.063322392662259 1.7019034281760947
P 7.295001158976017 3.1104547864530194 2.7110087884759766 1.5853823184581985 2.1551678324648753 -0.01984248864722389
Ni 1.5933542806727796 3.104823156981402 4.075218113335991 -0.09226892203875077 0.007116042219490972 0.5944657903621762
Ni 8.902708535567232 4.798762497596075 11.326549576395857 -0.413951465621771 0.22451592713233592 0.1033100103442608
Ni 5.58144560563806 8.269641570232617 13.183274190581308 -0.9527875824347849 -1.701408490817547 -2.0711691208547167
Ni 7.964843798645424 2.720643977355521 11.812854009929861 2.0072509820445172 0.33264701301432387 -0.12818646187096633
Ni 0.4144935985366923 4.121823626830722 6.553515877270027 0.2271947595160797 0.0720130000031921 -0.30719823392391604
Ni 8.780948170850348 4.116475468641232 4.209130891917721 -0.6099859974849624 -1.3707785082332522 -1.5254221358544826
Ni 7.320466329153885 9.049178147042976 0.37875448419021757 0.39495049903923596 -0.5737997773723924 1.0284422929556223
Ni 0.6840899063091798 0.7004244664896919 4.052758683652958 -0.6549427647013109 0.8294065123722619 0.8666844228871139
Ni 0.16012820275296372 0.479933888920307 13.13163422711598 -2.321242584741183 -0.501928188043071 -0.9821626931627924
Ni 1.4163642611545448 5.7680264035349715 8.400172536418555 -0.5790700246323962 -0.018516827857264887 1.2626764758169868
Ni 1.7962535753775497 4.658444212942517 12.655230500562444 0.26760864455675204 3.264087454140959 -0.10441198515918791
Ni 1.4708568906223607 2.668608098999484 12.143562001607862 -1.6570579897266302 -1.1870860428751815 0.3127520738626098
Ni 8.350619866493963 1.8995127144141881 5.412861454539206 -0.35050923800672534 0.33760769945370883 -0.39607484245166624
Ni 7.957879854147803 7.671951820907625 7.505547563968339 -0.09394502418959305 -0.5708543215908233 0.23624812796759959
Ni 0.7069112343290636 0.9540037019176512 6.655729952179886 -0.19639448630577144 -0.31402708392029144 -0.09875375843214605
Ni 8.969673901448697 0.29830249960935673 1.679746878422778 0.37271585601075163 0.10534580982736695 1.5913303085115174
Ni -0.2265474139641951 4.705632732374159 0.21219053842866542 2.939827636749066 -0.7875103863591082 -0.2641191433462548
Ni 0.37963513497336315 8.270359697480675 5.4790227068837005 -0.3717077264612114 -0.7162144670275987 0.73087695413578
Ni 3.6261079467300523 9.037215658937157 0.37085130484447776 0.22114649643947074 -0.25260522916938427 0.24426199941101157
Ni 5.869253998383024 6.110497508517028 11.536953300842839 1.2230902288839323 0.32745338462852636 0.1353554688155798
Ni 3.633062442184936 6.555481278159451 3.745146987138505 -0.03336520572400706 0.8380716442464277 2.6206375205705963
Ni 1.0160839127037704 1.9536273821724992 2.130565431955677 1.4216719526490098 0.8329654333681139 1.3235064626201658
Ni 2.6806272813617285 8.93269034817368 5.085472911574928 0.22579813627886922 -1.2447404601638563 0.4900070111254529
Ni 2.334130884173449 8.996206813455917 2.390935694399159 -1.0355351952466616 -0.7654935157683849 -0.05698361647389541
P 9.57528194858781 2.451762017213997 14.22695403260028 -1.5750066316508293 0.5958148481909029 -2.049091058008755
P 0.33667600707107803 8.22109238864676 3.3420546035690166 -0.8477279363892691 -1.0931520744291818 -1.67515675620987
P 8.03362338073251 6.187922964709032 12.877389779079293 -0.9649486432773511 -0.12404287201623797 -0.12618562939085365
P 4.363463996759706 5.394524642202594 9.857483279372273 0.42764978904447 0.5786866731510485 1.0776398377261958
P 2.387744752666667 3.058777971721012 6.061609106296891 0.6020520873498663 0.5197310205524468 -0.8612367695089812
P 5.894823108031005 3.3626308390344435 12.83363315196995 1.3817643178207943 0.14976393093142595 0.10173263855481189
P 8.73794557735147 0.653184922227268 11.07101911364258 -3.759321003772674 -2.3469122215931457 1.347830384077511
P 3.4716916903119763 8.955831053838093 7.110462299214704 0.24341996312569045 1.0614778832543525 -0.4260086538966211
