# total energy = -340867.86512198846 ev
CRYSTAL
PRIMVEC
9.25143733801869 0.00000000000000 0.00000000000000
0.00000000000000 9.25143733801869 0.00000000000000
0.00000000000000 0.00000000000000 13.54041369380640
PRIMCOORD
 96 1
Ni 5.293524448395534 8.810338101415773 12.136245568576262 0.1483307980293252 1.4378017683313367 1.8490744015693636
Ni 2.616389755264552 3.496747285333325 3.5436344951415566 -0.5209214413161222 0.8516748368521591 -0.1820482448864284
Ni 1.053340906283591 6.860449649640588 7.883513376796024 -0.07065365776182027 1.2658366187125232 -0.4112824034300401
Ni 3.9778682865126824 5.905812328811906 8.200954247194385 -1.3334296352711486 0.011460692341431876 0.6678360757242112
Ni 2.848323290493213 8.873867721934928 12.705741850514507 0.32924338664941366 0.6543863779772086 -1.09300809265215
Ni 6.413198160725774 5.339781635317884 0.8597323755638354 -0.4764683532090698 -0.14484618191483442 -0.19684262958678359
Ni 1.478647985722442 1.9819724366245277 6.08389787274426 1.0059528536038547 -0.2841868606304074 1.5919142060394456
Ni 3.0405774107798824 7.922533164252503 9.205193149559904 -0.9019460743028854 0.6536988649918807 -0.25083013954683253
Ni 6.344968810015309 6.667261134178087 11.989210623937405 0.0649856608427655 -0.5570274430100601 -0.3224716151432188
Ni 8.032338474568776 8.607861142819266 10.71764403719772 0.48001904667480555 -0.7160455455499023 1.2855659788206504
Ni 0.7143830428164285 7.915816620711378 12.327991784950525 -0.9961356104031167 0.30630297580315635 -0.8205922565147417
Ni 5.52422754245206 2.9793143924199224 1.4314517779055687 -0.007926968156560542 -2.035215328467927 2.878875779656042
Ni 7.090033319773593 6.898241771356147 2.394933472873803 -0.30819325084733373 0.5716217958844672 0.8015426960824583
Ni 6.909500770653047 5.792426712227843 4.569185933809677 -0.19151427539533467 1.8963688157799534 -0.10078930080493612
Ni 8.81432547092848 8.747317309952765 2.137313321747162 0.8928394840159269 0.917335155164446 -0.7667680116054343
Ni 5.053375636769464 1.6752225272676586 8.931961197846968 -1.403535390949299 -0.15220647893464753 -0.9174685954185168
Ni 2.733938518671627 2.9936633718032355 0.34010411655909834 0.538538383066937 -3.083667488886573 1.8745116106955457
Ni 2.967592821253799 5.206681205667515 5.89025603684992 0.4732483036098753 0.3162606012365005 0.2560955017108299
Ni 6.816810619498043 0.863666086739712 1.0680876974744362 0.21093304624157866 -0.6187022943120377 -1.6514524706143945
Ni 8.645634761660055 5.9198560107615315 6.24946992247038 -0.22806842037028463 0.6758090666273586 0.05667559831517336
Ni 4.026281058345614 7.167162553247918 11.237311152239473 -0.3204229601443062 -1.0528860278202836 -0.7893404975893116
Ni 0.11153070338847706 9.060117659359076 8.583186634171145 0.5187668568669647 -0.7318154067896494 -0.8256951249589457
Ni 2.594047533981057 8.29230386507238 1.247467517496877 -2.9846620194549374 -1.3653421677090292 0.5458529144504792
Ni 8.969703361800653 5.157223021410139 3.234629085350354 0.7924173367424224 -0.2869857635317832 -0.2073990649463912
P 5.627473583662744 7.530707036708048 4.2431051460379585 -0.4805453514919208 0.5221090338663201 0.0722719100915336
P 1.3252128967010086 9.536289141537745 10.44648348231517 -0.1828393733291561 -0.6865922732857916 0.361297586871481
P 4.527126124028661 1.699322521654203 13.150165175020888 -0.5428989740284779 0.4732650157804236 -1.1039836178270472
P 1.0687445495287335 4.20366811875544 5.495173403346133 -0.9819045544053994 0.012364949323256125 0.6680458777421721
P 4.290733395980686 2.168925483289896 3.247465454721306 0.31271967796277755 -0.9747401754464762 -0.6452823587934112
P 2.8957924157129282 7.45824977911288 6.9229699383410965 0.3310359597734622 -0.30304718787002 -0.13177572188412146
P 2.36710977494001 6.548047112041808 12.49769367632507 0.08977109531756151 -0.6236025598271325 -0.29106661846937615
P 8.18569030065375 8.38479973604231 6.411210026831852 1.334957384769585 -1.1639669403592148 -0.06212479435520268
Ni 5.878317056905262 6.395749949818663 6.931459982428825 0.5532101261464988 -0.12552485587840317 -0.862030211944554
Ni 4.7770537049701165 4.481257497476459 3.9667184541769194 -0.006123596399234615 1.788555004028068 -1.7071461646322728
Ni 2.386796833694162 6.106059690998758 2.641612874149571 -0.07783012090560144 -0.3738278581280078 -0.05103202687615082
Ni 2.7330688835574866 0.8873775207561083 4.321382482891697 1.2485994288986304 -0.7609136097071862 0.7973032040798139
Ni 6.276572933431923 2.3256263297080473 6.515809553331883 -0.8565511911078538 0.5999399261028701 1.089944623235478
Ni 1.1587425324048568 8.623977146743012 5.7676476623372785 -0.09292249646234964 -0.11633701873154802 0.6929740084424195
Ni 0.4790940112484206 4.658015460144142 7.985499372234943 0.44909973138812975 -0.8556176235499909 -0.5388129768845624
Ni 8.110004291411402 2.8018533205110208 1.2734918108593911 1.3857315299986586 0.8134582165731217 0.7616191204146432
Ni 1.8011900986946012 4.992861984837646 0.612407223958632 -0.9886729834774844 2.241652543721681 0.22323114688264137
Ni 1.730823665948323 5.9228534764741 9.939679565812785 -0.48595161010915666 -0.3470678164253442 1.2999261041970644
Ni 3.6351857943545327 0.6050403043693786 10.709613789548003 0.2511641258474836 0.19642302555086172 -0.9825627568146883
Ni 2.473677082171719 3.4322277610140315 7.7212857216843895 1.5966509493934824 0.10418727074289155 -0.26314803768223716
Ni 5.179481979757173 0.2661472009639074 5.4861014438469216 0.05184603813701394 -0.538936132725988 -0.7971360823743304
Ni 8.658966082931077 7.676759478696675 4.147781110659595 -0.7366791626398538 0.23495383463620828 1.5032857089667593
Ni 3.2534807393086886 7.452772928181274 4.681774076491199 1.793281977190092 0.5354767134224778 0.6945475235771265
Ni 4.130461494732129 3.1708746549027564 11.15757208827899 0.39419819425424363 -2.2154563449422877 0.3470125377073766
Ni 7.812441059377311 7.693791374921484 13.715084770885037 4.087211475938618 0.524887882163038 -1.0847921325002607
Ni 2.09904012528761 0.8493504125309832 8.547223521626496 1.7609639817836769 1.3792330667585084 -1.7004137310044458
Ni 8.619231159364778 1.1049361725767797 12.718822457832408 0.07015692063105981 -0.3767278053836221 -0.40930985308470147
Ni 3.990542755729406 2.9248141747880103 5.333745072424517 -0.0271099688429146 -1.5656336750763618 3.013411580783804
Ni 4.35777856270594 7.578916276918521 2.2787835267992604 2.7146427085741633 0.014426459837975155 2.7638469382129562
Ni 8.563343226125196 1.4747346277088111 9.859723093073764 -0.37928528169815323 0.7275843994274372 0.7752801628415035
Ni 1.175561645569823 2.9488401576754786 9.677374486794648 0.55308851296697 0.7176550561288673 -0.3666164279812331
Ni 4.0253836689193205 0.7277763487179256 1.4229756109739176 1.2598058391374107 1.4920800700589272 0.8993867982161413
P 8.781390353839768 6.646722943184564 10.369641968543503 0.6785881720343927 -1.436872828759164 -0.5535785652295111
P 7.89667539676291 1.584114371905399 3.25097174949002 1.3910742823678106 -0.14140090367871133 -1.400512544962575
P 8.2559549675888 3.3077681738807576 8.680203682590866 0.5468949825617484 -0.46288341543578343 -0.9477582475409936
P 1.0614174111202332 3.505415882162573 2.101499157344402 -1.1350253176242 -0.5130425527886776 -0.9863535913156886
P 1.049677337079341 0.4672493959650837 0.2994246212358457 0.5994010228802644 -0.4718938464645098 0.36451352270561743
P 9.162873374388385 6.432237618863013 1.5064383784816513 -0.1610526164713678 0.03635796980374383 -0.5354373755441101
P 4.075748494040374 5.056622891291412 1.7987356923565012 0.8211674122919213 -0.45670582587016184 -0.20354600974888817
P 6.0099187536993455 8.078484644242513 0.5612301226352213 -4.825184931909864 0.005596006030538749 1.7668731481792601
Ni 0.5979185478708137 2.379432689536124 4.125885733801771 -1.7906252562935354 0.5142489143919531 -1.1145832477197644
Ni 2.1887328107300457 4.131525410031343 12.052877165729848 0.3352939637188677 4.015587998064362 -2.1316134421837027
Ni 6.621855079495108 2.9679536273117932 9.935251827880577 -0.8635559045604613 0.05469996264604128 1.4372137570383507
Ni 8.641517872023966 4.21807260676306 10.677401209719015 -0.04386019171805995 1.24066114788816 1.3020210390528804
Ni 6.287017806238988 9.359401658746679 3.041583042023574 -0.6685891518401518 -1.4600006730258792 2.0192940292519803
Ni 8.239302380296753 5.588247489152592 12.977796094248399 1.7959970621284103 -1.4095993377551919 -1.1109309956791575
Ni 6.930149978895184 4.230228995486253 2.9075056605854055 0.050613708391809606 -0.7447490841321819 -0.733244425926692
Ni 5.229134444199623 3.859551653802697 7.834022812507802 -0.5709553659450619 1.0222801300089686 0.46219538822982337
Ni 5.866623240051291 8.926489897777794 9.823502790569828 -0.470682342654912 0.3572599264669976 0.4641738521124328
Ni 6.219954136638966 2.2922193893127263 4.234994410882994 -1.97033405441351 0.7139529246869317 -1.269113746801898
Ni 5.203174910898801 4.955245640432391 10.214062396336347 0.9133188349162011 1.3839289295722812 0.07182710924463113
Ni 8.64547748722452 1.7152349939554912 7.180061832393085 1.9022499571510787 1.8589867755870695 1.3626011146287824
Ni 7.413768868168348 5.330705975243719 8.533521217716357 -0.4351522680691021 -0.8642431604354728 0.9954997765913307
Ni 1.6358114040098168 1.1137990495911019 2.3725246412411405 -0.48685663842192933 0.11272127635583168 -1.9115270115776306
Ni 7.8829277608095865 3.6895564918630623 5.197637000480457 2.1593713290232617 -0.34491348908650277 0.33435859638879195
Ni 6.7023333333026125 2.5008393023325226 12.883446235226621 -0.7173398388812936 -0.4729066039997404 -0.12738453479496126
Ni 1.910532837141651 1.9928151212391263 11.640219576626786 1.3857628974572263 -3.5437771982319615 0.12504791624198464
Ni 4.2107269654797905 6.641884441432485 0.27891048397952206 -0.16500594469216098 -0.19099054168138077 -1.9937331500637405
Ni 7.661707390072142 7.623757993921046 8.359526659395415 -0.6064569012857814 -1.0356601508603003 0.43504916683233463
Ni 7.6549260864693265 0.9271698032341904 5.424993849635021 1.0140857671236343 -1.6764261098405968 -2.4179235198047007
Ni 4.896970836347616 8.613634039747174 7.724792941596843 -1.9257421267357482 -0.6979768609736496 -0.6388396884918611
Ni 6.85795176154678 0.5034474950192992 7.732469784338476 -0.1927257792049326 -0.5695566858253223 0.6164669772236158
Ni 4.7556458788624525 4.099709716866151 13.353772659265777 -1.1909324132044652 1.5232960906504152 -2.7460667314113993
Ni 1.179437997833916 6.310433194259082 4.640164811710807 0.24170863686153857 -0.3250211210379499 1.1184465873299125
P 3.1474685183200477 4.29755170533304 9.641478909742904 -0.38527183829889133 -0.3601225927267733 -0.5311729438408014
P 9.701889870719754 3.08267145087922 12.471790576792293 -3.251268190889104 1.609294606299422 0.8561231024314997
P 5.704195753892153 6.920130672207803 9.305703540736 -0.3438932753521045 -1.4574303411955418 -0.8281901234666575
P 6.684293030402896 1.0448203324524943 11.311309699302894 1.134847654395755 0.41455876018846666 -0.9820711618902505
P 6.555503770573691 4.35088624185451 12.010576818576837 -0.12323117474822003 2.672469160529907 -1.3452338269949284
P 5.948998038522612 4.414536131059663 5.812818730510691 -1.0967176802932532 -0.4409110249297504 1.1799584306914648
P 3.574551873736717 1.164117617525234 6.695937814638729 -0.32293107127814064 0.3480443214060006 0.6261507801702829
P 1.802411288429351 8.165364892720069 3.273462918915405 -1.337202986270652 1.3132469896756866 0.7328919276832797
