# total energy = -340895.5829441302 ev
CRYSTAL
PRIMVEC
9.06325934212804 0.00000000000000 0.00000000000000
0.00000000000000 9.06325934212804 0.00000000000000
0.00000000000000 0.00000000000000 13.26499617550459
PRIMCOORD
 96 1
Ni 6.308436335681723 2.0531998303581993 11.434572305291692 0.8726054163572392 -0.5007619356491118 -0.29359786953166206
Ni 4.545559891226579 0.32796763350235497 5.9547498911976575 -0.42377153703598636 0.8505900884284124 -0.055592392553323614
Ni 2.5985361438407604 1.5702006145012501 4.612995072221542 0.9589119501649679 0.39742801404545103 1.0295668934783688
Ni 3.3732001079806135 4.421193846792347 5.033760511609167 0.4907323193272516 -0.2203329993992399 -1.0872364802756953
Ni 4.998396580055608 4.508717742077391 2.603454774675512 0.07322913179848034 -0.27260378377849825 -0.358318449638499
Ni 7.422718753184023 6.215782635619695 2.7317406787670677 -0.9771441569022784 -0.666188255708143 -0.47674423257827575
Ni 5.4519583296305 4.67831851379418 11.233660691590721 -0.6822471089432185 -1.2639591991841523 1.279468607673661
Ni 5.628120901097353 7.899509636404517 12.259589019253966 -0.6460981698264873 -0.002491398963286032 0.5372469179490231
Ni 1.8654181604388846 6.332173011849427 0.5846889854643008 -0.5111589626127196 -0.4781819934660668 -1.2431587174990333
Ni 2.7692607597136374 1.6417278570806813 0.39940152451075617 0.11309305787295361 -0.881062803095973 -0.2114344113580294
Ni 0.6645118293023424 0.07262389695754963 4.862642550281659 -0.2598770802404492 -0.4254260419202738 -0.45346392189409646
Ni 8.561662299305006 2.20948667412907 1.2320957254457918 0.06285627320458853 0.1854629269949322 0.4506344228651013
Ni 6.7508955925855805 0.8062403596222067 4.826044202808267 0.11978461096051626 -0.14139781835491777 -0.7396495581220874
Ni 0.4860118432560121 7.258410924912039 2.458136287337691 1.1888122815376687 0.6240190785392608 0.3233699585877722
Ni 7.567694649319424 3.869223227485135 3.8542906014240774 -0.2848664031959352 -0.25516399103549603 -0.2430497242704653
Ni 7.524988571388065 3.8384534620825543 12.70567720519087 0.3405562405590716 -0.0017774036153969388 -1.0026196754655636
Ni 8.024093199062508 8.99373506102437 6.674640953943119 -0.30516706242650027 0.035228484184990944 0.632453068239227
Ni 6.689102290519366 0.6238785187782212 0.3227970440584161 1.5035271355536042 -0.18673536594945261 -0.29052977212929965
Ni 1.8360713267500606 6.648526078528982 9.279103563055383 0.6468939262549053 0.20902965857127873 -0.48077906476928167
Ni -0.20541333460684988 4.704919179908046 1.2929555118017066 1.0090394629489783 0.614698058248651 0.5801419175403364
Ni 6.575394639049328 2.004919847943016 6.924540390612423 0.35354159707514593 -0.14072393221634474 1.0846291245598352
Ni 3.3130563191112388 4.193823860148886 13.790555690470612 0.4747575411655501 -0.31078415150296157 0.3536477836357071
Ni 5.802226112697818 5.374485588934989 4.745592368773189 0.7060804639173904 1.0457003087051218 0.13859891545354197
Ni 5.269913702862829 2.883775041263449 9.385077535344855 0.2784407021752495 0.12616377501398274 -0.34738997565145335
P 0.16776364905195695 5.623978991586608 12.412879549492555 0.7615802967569077 -0.834785260185672 0.5760317520267048
P 3.927708439898347 5.8516027494911205 12.629297493569748 -0.08209069595416829 1.36486394252103 0.10709493130798975
P 2.340795175204944 8.280565311393064 1.5650173364942588 -0.9324534988631231 0.576024295827537 -0.5158401701384728
P 6.3882202075046735 7.822290666970058 5.635713193432475 0.121223657399888 -0.5292150487834821 0.4160119476952255
P 4.653041083541514 0.8765803152302866 12.64586603793866 -0.2834528106778602 -0.9388524604109315 -0.9105494997011803
P 3.917802297457988 6.424591067169049 8.228210487586127 -0.012232794620766027 0.18057808809880513 0.1103329786293132
P 4.70003408313279 1.1387260278972235 3.7958851456929104 -0.25127442617310275 -0.468567096084122 -0.06415622296293468
P 0.204400968540438 5.405672264266442 3.653736986466377 -0.43067880567878086 0.801042359407272 -0.37244409040660376
Ni 1.5126942340949538 1.0235229386388418 2.572811894903457 -0.8540837034039678 -0.32264799282008305 -0.6168405585129506
Ni 1.7464628818206593 6.3465382778768475 4.854312508637618 0.7425469342745404 1.1591929160093393 0.0771220390949833
Ni 6.150354966564839 5.660340787991661 9.263145882364858 -0.12079839693701129 0.2638172958351198 -1.0530048127863347
Ni 8.686381810852845 2.3874709607199054 10.235536630879476 0.7974142757363816 -0.2015109815967304 -0.2882800568631745
Ni 2.35451694982041 5.3423110183372975 6.985850620956705 -0.3756312298853337 0.11425416806059031 0.8131723099015866
Ni 0.4472328755894368 9.056924105026372 9.375844793072215 0.5541514070138457 0.7382542204364576 -0.5328973827310758
Ni 1.4224332344942754 1.097406628642329 11.50737112315418 0.37303235880990593 1.0384757659322246 -0.43231479862030703
Ni 4.088001244290114 6.874980675980789 1.5199829072427464 0.15737491050946445 0.018878067851425553 0.08401156712596498
Ni 5.622900463727136 7.978559384222281 7.722138026143936 0.28760128562859505 0.03442655710898587 1.0524705375494197
Ni 5.244808474537307 2.8289151325795547 5.084831071569992 -0.3559718037831934 0.5229796093967316 -0.7220624411679435
Ni 0.6879956405349278 7.542670990327811 7.172555575668413 0.5225710611044033 -0.3581454143957445 -0.059210191811568995
Ni 5.076023396159615 5.0402597748699 7.009038063609419 -0.1909589171124969 -0.8289033474835982 0.36410471730297295
Ni 8.275471759653371 7.110616355127093 9.26055922815399 -0.31881242112407676 -0.0975150009290385 0.16700574873100915
Ni 4.6344885917067336 0.25519328644003864 10.285544976847612 -0.11116344495040854 -0.04598597981181112 0.15465674024735301
Ni 8.403399665001658 7.11613588005498 4.945124554405154 -0.9346263381447257 0.12163066303031955 -0.25557922419604373
Ni 7.255374733038734 6.262820951507586 7.191113505458788 0.6993524011649375 -0.4379213461738071 -1.366573726123285
Ni 2.2570778488356837 5.174921681895392 2.739235087901499 0.09569208878768681 -0.43586394942414614 -0.5664343381462568
Ni 2.332321027737665 5.29564429608166 11.275193983765645 -0.8720608567076787 0.08755197617905568 1.2300625464367074
Ni 0.8819956126759543 3.3104007841295138 3.674855287015583 0.9515035735160389 0.010528924555781865 0.38370655069430043
Ni 3.5083423677502408 2.6017354743818832 2.570624024102814 0.6135186932285692 0.16374379015028573 0.3262107704706769
Ni 1.3575584242581415 3.4512891503101093 8.373701176851089 -0.2885271398769741 -0.13857166176003233 -0.5032127111824495
Ni 3.71696953411313 2.936332882079227 7.103617706277646 -0.046525654365365036 -0.3573689412410362 0.40361845912687905
Ni 4.090421134529433 7.008554991887487 5.797002050023872 0.39096220381544927 -0.5065592590571792 -0.008041639357553892
Ni 0.784076158947093 7.489451531581432 11.403360252834135 0.5183552232508428 -0.5623349712659025 0.4388042629993926
P 0.30165246005717267 5.5474397666013955 7.9561586324788305 0.08781165759834554 0.30266152239582716 0.7266408045672453
P 8.777666958757058 1.5438718461670828 7.988485465833152 -0.3916970250989447 0.49955814514899777 0.21757034905243822
P 2.0788126012058266 3.2848514560971496 10.542872660858286 -0.7058778609882811 -0.5110018682095652 -0.21483263840630099
P 4.033911712648699 6.1712004630084145 3.678621977590344 -0.9449650010665726 -0.653007752462127 0.24394703927375408
P 7.141957105867043 3.86208137913838 10.132771958716383 -1.1187101254039442 0.5307859928150277 1.5731433531898453
P 6.298212979165047 7.721035933810224 10.084182919158275 0.27772696393767654 0.4357212531986948 0.33130798248792614
P 2.342906914627272 8.272254302593602 5.9758410019688935 0.4031453761452025 0.8278054864337291 -0.43670752837136395
P 6.791571500428521 3.9420646426664443 1.5425332027650325 0.3348779592273717 -0.3146914569771677 0.34628362996115203
Ni 5.320323551218988 2.621629328596512 0.3978208920847738 -0.20101887245166025 1.689766792813561 0.9764299044440732
Ni 1.7141161092958253 1.123173474898452 6.9466003638053175 -0.46981793777208763 0.4516487230622286 0.4956706371691334
Ni 6.999691124269306 0.6475798482345657 9.235262765056747 -0.44635379321187646 0.018277458152949167 -0.4986058085380574
Ni 2.766677730806499 1.663715324198991 9.24911142530274 0.46841848632139976 -0.17217675140898736 0.47129297965571737
Ni 6.4613425837250045 1.8967407846601863 2.598413789839896 -0.23397990075871317 1.0649041353270823 -0.006210499686086077
Ni 4.258544594976525 6.652232951592209 10.569058229695147 -0.46615488709820363 1.094054531638793 -0.5126939112000074
Ni 8.228786910879087 7.235707460307188 0.3273893975575288 -0.40897380990152143 -0.025880981531819943 0.5909449216931113
Ni 7.930243148769804 3.7936175182102225 8.18698353357633 0.028086730933887114 -0.07716009142177034 -1.4859253633114409
Ni 2.9099769239670903 8.291404969543722 12.677847561112765 0.9000228891382436 0.17584314451698102 -0.541173506696939
Ni 0.12142411045789038 4.9384340563726985 10.156914668901772 -0.22153833256125072 -0.4869219444422259 0.35338064601724944
Ni 8.805201140581222 2.375634344043684 5.7229044671003555 -0.06517026604974582 -0.06982859075736361 1.1384160884733039
Ni 3.9253248026963212 2.6683232406301194 11.625190775379195 -0.9483444590617666 0.45684697943371644 -0.5412226147673195
Ni 1.2244010182803156 3.401858133960867 12.712177374777536 -1.091126816469037 0.30418232991572774 -0.7943891157568125
Ni 3.258450181688396 8.605528474429747 8.17317475167136 -0.1615562955806637 -0.6978249087768176 -0.36838611828714624
Ni 5.639304963102297 7.679644028480744 3.5330524379692676 -0.24987317495020192 0.7364606188711446 0.5196646860908857
Ni 3.096625686470994 8.212237399354754 3.6172582740160535 0.11190006600611697 0.4985423022899737 0.5266110355017318
Ni 3.579171739361778 4.548958613472814 9.30800810968923 -0.021619378041988574 -0.30447209324200464 -0.44935607037331
Ni 7.351526851199555 6.210027465949403 11.531566400243644 -0.12919639119271945 -0.20916772681103976 -0.6976783558966243
Ni 0.4865066972150639 0.2015034445347811 0.19658572002596214 0.385553116984736 -0.8198749187327429 1.0169484333834098
Ni 4.781621543561077 0.29924072675124436 1.687506379922636 -1.4075252288349822 -0.020979173354828386 0.3886258423727888
Ni 5.848086204873684 5.628845961843217 0.28979681053637263 0.9604510125173137 0.030679945582360067 0.5048885562229757
Ni 7.9211255098905715 8.722426393181584 11.494729689050052 -0.8724974300244651 0.7319295637700104 -0.41569364512385826
Ni -0.014050770928901685 4.900975605589528 5.85767603956366 -0.3577232392566614 -1.0055432768702617 0.30040897891622453
Ni 7.740929788024853 8.876855268791179 2.657880553237821 0.783601024002373 -0.22530859823696034 -0.15220467916243466
P 8.61498145390394 1.6137767653276445 3.7029631731549126 -1.337784826916051 -0.7483092906796145 -1.1260871345943058
P 1.6098161210033655 3.1428483090197896 1.6283051700228837 0.1854603558917709 0.13921777998446347 -0.659058072421265
P 4.893697808352923 1.2479473660022318 8.086487395221855 -0.8973936790455126 -1.336655598407614 0.2217378501665665
P 8.382536042039437 1.6733767586376216 12.279592538906405 -0.04656190691993917 -0.06386620252634163 0.9524042309534371
P 6.274240658254937 7.741392014250341 1.3506685345205738 0.5276453903035171 -0.8898230657871062 -0.2918870574881425
P 1.8287482132168398 3.240867458601207 6.015835352710722 -0.13712310223896385 -0.1322061245533207 -0.09811021131087619
P 6.902152327432024 3.9982568504708627 6.089840490389141 0.3974393268993607 0.3562705659705348 -0.06723640455015517
P 2.3633989439572383 8.604966552351701 10.309899767301166 1.252373551229082 -0.05268010400253508 -0.10202805830804365
