# total energy = -340859.69006076467 ev
CRYSTAL
PRIMVEC
9.34066872813187 0.00000000000000 0.00000000000000

0.00000000000000 9.34066872813187 0.00000000000000

0.00000000000000 0.00000000000000 13.67101285288324

PRIMCOORD
 96 1
Ni 1.1706193214799485 0.7368255839449086 4.566842607969462 0.30066686056330155 1.0550776361549636 -0.3164637183862421
Ni 6.069930893686083 7.425523480063437 9.539974420028683 1.1101226408452494 1.536992100080269 1.5599024290195391
Ni 8.850825477940532 6.120557318760261 12.770353197323635 1.9297934139869863 -1.2289238048465738 0.16615111404019772
Ni 3.288886858730307 7.624096758781508 7.646321012135565 0.20276979370449594 0.17389733364451987 0.5192427680621187
Ni 0.52471674202112 8.228568801632123 7.380720027939673 -1.3616904298890549 -0.07279255848169398 -0.5368345130019528
Ni 1.3186315598056717 6.337755891131081 8.38543038961011 0.4509031031454556 0.2631030433769146 -1.9945872705339198
Ni 3.1249487800445337 7.136831428445796 10.206559108417261 -0.1015493188994122 -0.8785624052716224 -0.9521494346301538
Ni 5.971115958103107 8.741250091862085 12.549415555219012 1.1805114749814571 1.569783178468361 1.024636546056287
Ni 0.7391934434940421 7.78656835246052 4.26565647772097 1.162413994049798 -0.16132798161994152 0.48427010864167563
Ni 2.0863317905107626 4.522798552221811 6.150930371604117 0.29116200639665984 3.146982961115768 1.7731075591247463
Ni 5.0402529242253715 6.901885585292514 0.26754851364754645 2.544707702011501 -0.3951070792217582 -0.18881127464187483
Ni 0.1332427727671827 5.949184067683519 10.29099221619826 -0.8616846556796773 0.5675951912235773 1.783856570111134
Ni 1.6921462250946417 8.718851168000853 9.44073635214758 -0.8478858021233721 0.9603605096860365 0.4455040436170714
Ni 0.7498221905589696 2.763502258887637 11.791016762537698 -1.1447721125983188 0.11652445215200577 1.2549742220767224
Ni 1.842474949290918 7.342849220223669 2.0914598177000103 -0.8386156896753557 -1.048076265136466 0.2544458819225489
Ni 8.261728175988827 3.761646130368565 6.030406787586658 0.07949593864379857 -0.8270220713004853 1.561247630193524
Ni 2.7683220440054 5.9721434316747235 4.158585324956618 -2.555385750550638 -1.5145695094106948 -1.7769451877032816
Ni 5.720711308031418 2.7849951378720803 8.6822964605234 1.4321024039537142 1.2474077225833742 1.584149474492362
Ni 4.720260291348771 6.550545667812788 5.1857842809090835 1.8390812949123942 0.22693173566268016 0.344608042030942
Ni 3.43088370632766 1.314232104785388 8.891558266586928 -1.2966813720075216 0.38636224314959267 0.7963572952267769
Ni 4.460953983879351 9.19905495269891 0.8845856242121442 0.9007993622929519 -0.43540397906859213 -0.10300019241332582
Ni 6.682221076349813 0.9767163771783148 6.771034023746547 1.5794973204323313 -0.9436871627954134 -0.5563504715476935
Ni 2.5512075376540744 3.030028903364867 10.575335252407314 1.5821095612441978 -0.9357555666531626 -1.4130705841332438
Ni 8.342898588146502 6.375772413280879 4.569522445857614 0.20511695378043385 0.7504186237131334 -1.482003145438899
P 2.043915813340681 5.019722134130714 9.763891735490992 0.917593293921839 -1.1852433332394878 -0.028561356577460485
P 3.054828379116148 7.119588553780311 14.010054237357753 -1.7097704896289971 -0.29312324388808875 -0.9677550023778946
P 7.24171779877014 4.934637981732063 0.1151881939801203 -0.9047169521798032 2.2570197702063712 1.0712187646912001
P 7.3553283537843885 8.463141018032092 5.469826547581719 0.16058210459285246 -0.40377992440540783 0.43437965156913577
P 5.424257160613658 3.163310906941148 11.281429101825184 -1.400698435721136 -1.3167778856470804 -1.3663819218274533
P 7.010209321747355 1.87111343993251 2.702035053566026 1.226015115840211 0.6468751572018279 1.2327606620941607
P 4.842212063630774 6.167167256236302 8.46954778278456 -1.1137417256550755 -0.17814968116297059 -1.6204567935638283
P 8.465280031194819 7.547288438968784 9.14083549793049 0.11447116916740285 -0.5231210200706023 -1.5320941485580193
Ni 2.7668088556544745 0.4447269904039191 11.935094711151015 -0.2809524128535097 0.07181759616293439 -1.2379905430345324
Ni 6.7196211143566416 1.1067665093384211 0.6979188960553381 -0.6880521456607699 0.3356618885812477 -1.029331380428795
Ni 9.287828669286545 4.199461959903041 8.43995000545383 -0.11821546670118349 -0.4614104304346827 -0.1801661973723671
Ni 5.242627855158422 0.3991323836300107 8.538983512687496 2.414186678470087 -2.3962504057066405 -0.11008203896077169
Ni 6.7700420447164955 5.28084053135371 2.2859437516030487 -0.08215163109909078 3.4938980540133313 0.5978470481295833
Ni 8.181463808707939 8.232940234645907 11.170707615680945 0.9408183258880507 -1.226681031558984 -0.6749976264696568
Ni 7.731570494372558 3.6629246014739185 3.767662455163819 0.13422726874840754 1.0214568627767249 -1.471529499601085
Ni 7.804558480632636 0.33457248285783464 8.926897753049223 0.08841175307618966 -1.4699485282672102 0.05473030166334446
Ni 1.1441291846699175 2.969846974074659 0.6006890719733016 1.976894481239847 -1.0052956796358299 -1.1107846999092805
Ni 9.416608470485382 1.371219525334753 6.77760985460489 -0.563815412466171 -0.05848076984471218 -1.5183616294632756
Ni 1.4433201480557083 5.297261427161903 0.36069086104831727 -0.632213441424595 1.6464020526746808 0.08899179394937577
Ni 2.082128489535969 0.5270687224332375 6.823257703191146 3.054471584048907 -2.683490451341075 0.08272524421437366
Ni 3.770248886363642 2.5816581180492437 12.871491157245346 0.21848540466753985 0.6556053379859741 -0.8390995712903098
Ni 6.613557819759356 5.207544303022147 5.183569608328809 -1.3287905938372406 -0.32055511484679633 -0.8179329645150236
Ni 3.6129893858933735 4.682785527991279 0.4199405915890043 0.9560757662677534 -0.07383154126916962 0.2754186275194741
Ni 4.08759810996054 6.261405264091168 2.253529762619209 0.7409392234677884 0.5290803229778308 0.7132389293390426
Ni 7.769708445217182 9.076019662832293 2.317646915688707 -0.8018463433658061 -0.1544140281089276 2.063891099136065
Ni 6.917727359633068 6.235111281326628 11.628386377488528 1.004633620571799 0.1493831505532395 -0.7871797424925668
Ni 5.962391773413202 3.442055146251777 1.4547054892960987 -0.9133327188732722 -1.0926741063514989 -1.2086917940704152
Ni 0.22760407745064357 2.3227534593396393 2.701870657794567 -0.256629519837429 -1.4773504771582362 0.1996641581959787
Ni 4.908250592279194 1.5501306961596237 2.5382015903711803 -1.6408327861170193 0.36226560721170514 -0.41453973402507316
Ni 1.2688084322511213 1.7352253897518573 8.936330894503543 -1.9799216981019447 0.470792385870215 0.12696698764156844
Ni 7.111452831226877 5.28259657709429 9.349647083756276 0.6244165710879955 -1.2115493181238683 2.476505334003651
Ni 8.184275350026635 1.7410726484412367 4.757307252073715 0.6568546370120429 -2.2942475442095778 -0.08274401326745104
P 0.6181701336940254 9.161991178770068 2.532650430883803 0.5166444112073231 0.640707080717903 0.10033267288349172
P 8.403715682917346 4.22571857999225 10.99716826350186 0.06587886208099622 0.8036170621129838 0.008196676878179432
P 4.808884557235079 9.03558390745478 10.56407040579487 -1.5347853222369374 0.0722305153306369 0.06758864568325133
P 0.4858959882848118 0.7095172045451178 11.04626095075368 1.3319301679074866 -0.5247315590908317 -1.0640556712838576
P -0.028278874891526383 5.68080797077738 6.261118505558 2.357007658155934 -0.42993087176916284 1.2253288884064637
P 3.9208578306249047 1.4601520332925473 4.511926013700346 -0.5239183191609171 -0.8285094544792893 0.24773118890653464
P 5.102405734639316 4.82188676825044 3.5303207304549047 -0.12940387921783522 0.12838880768975955 0.5636269506044487
P 8.636671963609226 2.1003521344289067 0.29289068225801723 -0.2383386919480411 0.33608406372033084 -0.6261698063336765
Ni 4.678133874912508 2.100968618571876 6.876409845117734 -3.2348498974320807 -0.9119183550242489 -0.8413526289905445
Ni 8.687419817378231 4.245203215177625 1.5801777596612134 0.04914098050102505 -0.4865846157074652 -1.2814427006808964
Ni 4.441572096051138 9.007020142163853 5.866122170087185 0.05699261533495992 0.6698878160469173 -0.01319901518877727
Ni 1.0147048773216136 3.3997138944323586 4.742993611154219 -1.5515448010834634 -1.8087798157153752 -1.920758043257595
Ni 8.629591736633909 7.010162618403191 1.5483101998040967 0.7826360889859425 -1.3209474436437378 0.7790884808440002
Ni 1.7308446160692392 7.454722410835002 12.290309138062618 -0.0719392093424632 -0.2628523608186892 0.04021333899409203
Ni 3.472701880692437 3.709506516943462 4.356350635820644 1.1112086748205767 -1.4766909891973665 0.7479709335035892
Ni 2.232261059686755 4.00914583243323 2.4051409606462384 0.40964666759883 -0.40250722834057123 0.37374455438558213
Ni 4.865573076381792 7.143855611408118 11.63747671639668 -2.1112058250616283 -1.3662721357224663 -0.17603623436439358
Ni 2.831894636081941 0.16188313154254128 2.7000389526364406 0.39244418767761446 1.0117607185348834 1.5358438454084389
Ni 8.374722246860104 2.3400617186869552 10.023108372539616 0.05162440904451109 0.1256259002326417 1.2577890658176982
Ni 7.981003714885627 0.7768176575528591 12.218344889106623 0.36981436609324053 2.4851812645110942 0.6347673181947003
Ni 3.308109955188362 3.667725705254016 8.026087387074378 1.1987146282530452 1.7880122441507207 2.3409603748850847
Ni -0.34708057249193636 -0.04867329122122373 0.4218451539640274 1.9351690764766027 -0.06398215927891562 0.678602827322412
Ni 6.327836100830569 7.5387323863178715 7.284695150137077 -1.2117678618925776 2.250490967948918 -1.6935324305035804
Ni 2.956592565000811 4.9637995498282965 11.653171842236558 0.13037267088900772 1.2415196392337133 1.9781921170053482
Ni 2.14475767406039 9.144701600760417 0.4980201764298824 -0.9154132555513849 0.5219750793916171 -0.8568265562564276
Ni 6.197785968670463 0.327826651826733 4.113060773198955 -0.32293441371225035 -0.8905581441809178 0.78236329494053
Ni 7.517267529339926 5.765256957695395 7.364943638280948 1.0878789989557005 -0.7064833557827639 -1.6710525042335092
Ni 5.416541768157705 4.847059870755037 12.46141524601074 -1.6483689465930642 0.21139635903124238 2.9293393356232325
Ni 5.867229039343881 2.4515706232138057 5.040899298508607 0.28511477176131544 1.9287318054916913 -1.7534386199409093
Ni 6.264842630221667 1.278616134525639 10.78499403689624 -0.5725011131656268 -0.03850458383310143 -0.43579735785226886
Ni 7.101673150958858 3.2490489061580994 12.673084142432499 1.3266226396516443 -2.7932035369982025 -0.841587627819486
Ni 4.970599556738629 5.063324376242571 10.263840760034864 -1.0880422640064422 -0.4886319851547971 -0.9342149616389201
P 5.643454636114716 8.216164393422066 2.6341582812912963 -0.7546969393735131 -0.6973829361433925 -1.4036449199439696
P 7.729487525222827 7.743152923725321 13.45326070449766 -1.8009556916852658 0.8039124818662154 -1.1493607604102658
P 2.876010614979606 7.416463031295549 5.558538615755057 -1.6390813506435513 2.067215278413291 1.1015171585644254
P 2.171229129532755 2.5202805831484283 6.824583144098531 -1.3464597289822295 0.3123198714211976 -0.6527025625168823
P 5.539726508725649 4.097658010293546 6.535988235436753 -0.49577836639159134 -0.7114106178810522 1.8688382144598523
P 3.1292735097141544 1.8880947758706752 1.1010649650828348 0.04712986360826722 -0.287133344853241 0.5709898187274232
P 0.6672067769328479 5.39705713297233 2.6876392147608006 0.5154367640524671 1.824087392606723 1.091403210058875
P 8.088953824587154 2.2819627585464777 7.974930412010493 -1.4258070578633057 1.8997796412337151 -0.261152347408447
