# total energy = -340862.2960559491 ev
CRYSTAL
PRIMVEC
9.25944995446054 0.00000000000000 0.00000000000000

0.00000000000000 9.25944995446054 0.00000000000000

0.00000000000000 0.00000000000000 13.55214096790152

PRIMCOORD
 96 1
Ni 0.1406825224123068 4.609085515006278 7.5980071598568815 0.15406744340278627 0.719362011517645 -0.13902777546084444
Ni 2.43883718559737 6.488837130339251 2.4860863053049744 -0.08453838616371247 0.35973512748036757 0.7193458135677288
Ni 5.215403537968897 1.094772511246612 7.578153973848205 -0.13224803353484965 1.8918035650067742 0.5599261047140938
Ni 8.069249257174254 6.688989394115919 0.006281610647024955 -0.22129947707756728 1.318137999219401 -1.142837357469451
Ni 6.2620917271488805 4.548713903245366 6.330516282276122 -0.31901039606749576 -0.39821297184059157 3.330446341182167
Ni 8.053943386891925 3.2868638823953957 1.875033925732945 -0.910882971781199 0.28587196164231415 0.1593145507343385
Ni 2.2629539393706026 1.490660281313758 7.146490468142924 -1.2256888428490438 0.33984301654213084 0.10791974120213027
Ni 0.23599374150736382 1.1764686355666314 2.0477282174979856 -0.7596139170591563 -1.5116523357638998 -0.31503521346983165
Ni 0.1419445854004989 6.808667780927236 9.403505396503796 -2.038951912692224 -0.9650717991187765 0.5591540024347595
Ni 0.09482139420822383 8.618964264386191 3.5528832413041562 0.9515225996794322 0.6588079040836717 0.8315976064863096
Ni 4.40097012452495 5.4176391779182955 3.0282122675783767 2.8417048270326997 1.239109487130324 0.970750851781425
Ni 0.9573437594436278 2.2739171277639953 11.244617328419855 0.8519741132601327 -0.4751100394089624 0.5638010142884677
Ni 4.992954519419182 3.638611855949617 9.479722704462016 -0.31672391402616423 -0.7465964217535658 -1.090899016728947
Ni 3.5583602057760246 1.3479351243072093 5.144690972831515 0.5269218818739312 0.20326704505588866 -0.03271008863851141
Ni 8.946433960940855 1.8572881904661065 13.448006154094632 0.13691998508922226 1.409646388943043 -1.2543129343436397
Ni 3.014997181028503 6.299953616794643 6.000684500114063 1.6956173380570667 0.13248380369473958 0.20398798238231322
Ni 0.21913876529748835 5.7564424408526165 1.6639592151413736 0.38708420891728174 -1.1850810966300105 0.14919546002246564
Ni 4.1108623073345925 7.926227797778695 1.990877048496506 -0.37607114563622973 0.5160528003699113 -0.8990754376233097
Ni 0.9229458299143929 8.519406661678625 7.871042403770434 0.3256201880745295 0.6603366820233724 -0.03290394981687236
Ni 2.577553000902619 7.674259653723796 12.420306318325402 2.888573980780412 2.16499793118142 2.3427940856597136
Ni 5.0416592246128 2.675434643222343 11.58274372558428 -1.7111146623617175 -1.4543545304836953 -2.054152274581746
Ni 5.45062133759504 3.2865768394560417 2.1919506275140037 -0.9566961734605717 -0.9431660001846208 -1.3898103280537226
Ni 5.536484214260521 0.6331620934620152 1.3709476345387115 -1.4402983095009454 1.590749496307383 0.7636996570927557
Ni 3.680242341605608 5.160865379491632 8.236598068652551 -0.25561650519188234 1.4405870443859576 -0.20872318307445345
P 8.329726835463552 7.949330124671866 11.474963731581669 0.5131813923593871 -0.3392429210642867 0.5515725905430758
P 0.3225779293010927 8.594648949588008 0.9607114212837266 -0.3187257749475414 -1.378478190870355 0.7607043219098576
P 7.149471084987378 1.421279225036992 12.254929769623958 0.21917111788065477 -0.8833138039136788 -0.7930991933007955
P 5.690718867190201 5.804665654664094 9.354662725510293 -1.7674992117990336 1.845173780963377 -0.003453762876555342
P 0.9739274337785654 2.2707226176324746 5.5848231711927045 -0.5712021918485453 -0.16175915562008916 -0.9386920235736673
P 8.254484547554169 8.028878056671559 6.733652349534441 0.21456344390531437 1.7079745740708392 -0.8827047095747701
P 2.933495505151272 3.2223532966379915 11.396374152621432 1.0253651966921953 0.0248535687085701 -0.5123882070341305
P 6.094764212404795 5.372036388359632 12.854611545017704 1.614099226776917 -0.5488497922952741 0.16909991225587653
Ni 2.4435317265732572 3.8318195324838484 6.223996499371773 -1.9121841855456552 0.9754829671497716 -1.3533302308498176
Ni 6.73990710777746 8.800551331601412 8.769549768206211 1.7870161987860385 0.12992581315957624 -1.2510062385679102
Ni 5.593365013500902 6.468105222558164 5.35175356388689 -0.5451553741628224 0.2521295750845464 -0.6298644815764444
Ni 4.209540262324782 7.550173768875946 10.405929712545458 -0.5693371136153486 -0.35806571019774464 -0.7168166193879719
Ni 8.471933463289332 1.544726207858538 4.293493840471076 0.3889415738409947 -0.1653928957179345 2.004500415882574
Ni 8.285883341339638 3.7340119657613773 5.450900972974669 1.4615343360615862 -0.7197448487783604 -0.2398353310982257
Ni 5.516780105391315 0.2805057678964829 3.775924864631894 -0.3414407000465539 1.208791295762757 -0.02271878175375442
Ni 5.499298264439689 8.845811521522783 5.957724357487387 0.7793221941213611 -0.7652402621069982 0.3192430809035921
Ni 1.2613963078167976 5.13814269003438 3.9458005799214715 -1.6736724583548597 -1.1236348163990715 1.8579912444430196
Ni 3.3456613877146886 0.2891383528113139 8.713728250006545 0.36318683347439384 -1.656260176415683 1.2778143598996896
Ni 0.7754215001508378 -0.03572480866502312 12.55711561294636 -0.530460491154809 -0.2858809605033786 -0.8713522606764282
Ni 8.119926225144726 1.0504290068412427 7.154446187287859 1.0195676161738119 -0.960523517626462 -0.24922525695355788
Ni 6.2247668855832 2.930560259610136 13.28515002758971 1.3870541054648242 2.003931944973613 3.872547759010015
Ni 0.7606184179848609 2.921874895832262 3.2317655272139065 0.7745070321209048 1.7646817969548962 1.995054182868009
Ni 2.4475966249724963 3.2059825896451555 8.9192463648592 -0.15752969091977387 -0.17216235323128415 1.5439199375483539
Ni 8.621908769376983 4.410544395469855 13.143882307959109 -0.16277525558942935 -0.7819115521150921 -0.579695574031537
Ni 0.5655551477394504 4.780626079344109 10.717791680758987 0.4496165231235483 -1.6617168286548798 -1.843392263582922
Ni 3.4371447503217145 0.40240364479048263 11.154048799438899 0.6432378175595567 0.6849663076465945 -0.6466244746436025
Ni 2.5172554647389593 6.070763718894936 10.960645748516912 1.5098175965480063 -2.2839219939138538 -3.5274622631220214
Ni 6.496476176305931 5.460473392029642 1.4532909943897259 0.6286979720721688 -0.4898509451635628 1.2349759245779248
Ni 7.652620319876366 5.973530238051173 10.909120614957898 -0.8972838929405256 0.7539616038693854 2.080785046677926
Ni 8.02072048152411 7.385392602787421 2.4667877603307273 -2.429787875342454 -1.3871317527802949 -1.6638433880795793
Ni 6.218229714125654 8.276892415723097 10.964508790913637 0.9247345329523106 0.7601816166371682 1.1287513116900303
Ni 3.7739757504791838 3.288225021494913 0.08358597799492773 1.218627050906256 0.8980889053403243 0.7731276352748749
P 4.195151077558454 4.321912943357056 4.97321522464128 -1.757865031143379 1.8225215907815 0.48986225801747246
P 1.590356775766172 7.132276286975106 4.348394043429914 0.4930848787198282 1.9014585715980348 0.22112155673880626
P 2.215101103545389 6.310250124812762 0.4954740770686469 -1.6918095342752024 0.1898746829093827 -1.3877179643010682
P 3.987924594244158 9.00260178255768 13.81830450909085 -1.2620321573647686 0.5817542563327787 -2.9117391060429663
P 8.151806510312335 4.932027340678874 3.4985395312696794 0.39821065784774645 -0.11552557857384621 -0.9300803706452562
P 5.681450158083963 7.406615261400305 3.1223317955026313 3.0422053650870446 -1.7779011238586477 1.3940166528255864
P 3.5094610521396175 8.726540550496356 6.59008087882928 -1.074509005406698 -0.17718448903622389 0.17917246600053013
P 1.1159581320608707 3.0723965094496526 1.086247335947797 0.3430797783118737 1.0148105611048006 -0.7138143422265384
Ni 0.7417874752182709 6.535708464500867 11.960441306801071 -3.6426669680213397 1.4051479868520576 2.7527132901936398
Ni 2.794233382316285 4.06384282197847 2.5380855226864054 -0.4878848225761275 -2.4847585751513788 -1.5159589335590538
Ni 7.0895994835079215 2.0225693668360876 9.166640340783747 -0.7994529034329652 -0.42233583303072425 2.2930406683856703
Ni 2.5493209388997013 1.379037615703667 1.5793796981982946 0.8401213276866047 1.315393346594728 2.0692297377401587
Ni 0.1078549955448281 2.683221840383528 8.889011483895565 0.2817643672318438 -0.9367770659391416 0.7366156563917702
Ni 4.274198999276691 5.895380482949624 0.5017992071290577 -1.7354892345513402 -2.4078198557117947 0.2136491596211611
Ni 5.706330299311197 7.41196722330181 0.009461305659095075 1.3509007954727188 3.0356487949154496 -0.5713258619106032
Ni 7.337660139807743 8.281790664591428 4.63678330676401 0.14727484596098508 0.15088467479943046 0.4467381731344887
Ni 6.0058734957016116 3.8765334148754813 4.296191118156038 2.4272437687643618 -0.32650439045169577 -1.9771269089656272
Ni 1.5220961128978525 -0.0545205655229181 5.3150139195395045 -0.07881691029890298 0.03395784500268345 1.7474335513974102
Ni 1.9553457623293053 4.562973455716501 12.836465801525701 -0.9145282818432702 -0.5741831288537401 0.6027676253596522
Ni 4.997195347361895 7.588906046789428 8.089909867192985 -0.905302392369628 -1.4289630869937842 -0.8559577804982291
Ni 7.537793884685097 9.413341709873983 0.5926742238936464 1.1429707977235217 -1.2971256586337918 -0.5102032835676696
Ni 7.996275534430735 6.11671836754055 5.398440635000339 -0.7353966963830044 -0.32832087483514427 -0.4116634409185426
Ni 8.579343079305678 0.3394208682264146 10.097943749958171 0.9516814938547997 0.2227763187334099 0.2731768826731489
Ni 4.596427847325731 5.311655517149063 11.332869143096733 0.9484017946622635 -0.8041325682968216 -0.013357138033196351
Ni 0.7680120885356413 6.604154316362319 6.214361116059134 -0.10807040784738163 0.17417784099941616 1.4611628116547803
Ni 7.688296979403175 6.542866019085404 7.988146663577222 -2.1242017231006645 -1.3457459907446565 0.049338698334127934
Ni 1.5459947524614897 8.2176689757196 10.41007702004664 0.8377086044800541 1.1856084298883902 -0.7193501844431031
Ni 7.264649379265596 4.517463260654402 9.323303747358349 1.836037622990064 -2.1861118303418996 -1.1881692486370312
Ni 2.715685470879503 1.4427333698912916 13.061918585544014 -0.6964977053249618 -0.5074218641677906 -3.145073659908196
Ni 2.278352404149498 9.089529495933668 3.1210854735788556 0.43944035392149483 -0.16398418829586597 -0.15218128212366694
Ni 6.493707600858613 1.9367898252175157 5.7317289697191995 -0.8912777959557618 0.3849941591574724 -0.48076389526063007
Ni 3.9012839238075236 7.820771925639887 4.325735244175293 -1.3529162832408506 -0.14685575614569546 1.09450833134676
P 5.436695125311541 0.8727447976562701 9.809513745045585 -2.643338047491906 -0.37881682670216693 1.3371978440643293
P 3.9364142758045944 3.0438774045073815 7.327981237081718 2.311244850098523 -1.2014345982873695 1.8409144914663909
P 7.33252114524834 0.8790782612213718 2.773242209944814 -0.32705100698378514 -0.15320715228502002 -1.8274259700616526
P 8.406830272753906 3.333707438208042 10.94698528243856 -2.1741490015530687 -0.44527213011192346 0.4796174403610128
P 1.9788092077590833 6.5739870293811755 8.629556148848355 1.8217075795206368 -0.4110288926583373 -0.8123241029686783
P 7.587461572643001 3.192186009656849 7.614188974076724 0.553392417360634 1.2498489850350152 -3.3465424754130817
P 1.488845429181068 0.9464268682985181 9.612303208424812 -0.02218682050968437 0.42171876827201565 -1.105763078324973
P 4.027712449418489 1.7606380549507077 3.1072074104335714 0.20253145244144477 0.7922270751084872 -0.65276581165465
