# total energy = -381168.6969837888 ev
CRYSTAL
PRIMVEC
9.24049088464585 0.00000000000000 0.00000000000000

0.00000000000000 9.24049088464585 0.00000000000000

0.00000000000000 0.00000000000000 13.52439245280925

PRIMCOORD
 96 1
Ni 5.862121176759609 5.820132386451999 10.610602424597948 -0.45222979237667926 -0.43084772715647734 -0.2499261396753244
Ni 3.4909650286777363 6.388311686283484 10.107089927656144 -0.217138146611026 0.3246871347372989 -0.04227047863343687
Ni 8.621396420462123 6.206384902926044 3.3292998695516993 1.8083488988255438 1.026202090771194 1.4437487299433909
Ni 7.665523087587934 2.644018601645558 0.43723692459953617 -0.007064363045949123 1.2846195557469813 0.3480114112855362
Ni 8.320452115282057 1.803974821259459 2.6872160481530427 -0.12915731042466788 1.818719186316274 -1.1171348104970245
Ni 2.6522611194612242 8.748490131265568 9.276150802879657 0.5546275753193157 0.6835223761112164 -1.3688272980441523
Ni 6.479238115998905 0.6067158427669719 1.281754950642973 1.3876889108353456 -0.8851616557556949 -0.4880342036697982
Ni 7.593733714370544 4.000254680483166 9.491932896520774 -1.3252352723858143 1.5352002982871689 0.30540231836575793
Ni 1.97740035305814 5.500106467718851 8.017854686293449 0.3588424404627691 -0.7181749331880792 -0.41811279608831214
Ni 7.663425496170719 7.172644547487238 9.798084218280577 -0.46672850021348655 -1.158159332538502 0.2318003766088911
Ni 3.7146403495813423 2.1896082248482465 6.288436765253387 0.661889371222473 0.786822102042832 -1.5747721470425202
Ni 1.45313186562581 2.605772210121968 3.2632331323020702 -0.47862216632727894 -0.798485140203057 0.22603544910065587
Ni 5.065073400181015 8.52204266311454 13.218213492394037 0.4604915181648392 0.2785990821299847 -0.4861886658206272
Ni 0.10115565305840593 4.306142648254465 4.979112810234808 0.011689777633102449 -0.6200768060620612 -0.46324876919500224
Ni 7.427090702837221 1.9624122769404153 10.623937376907127 -0.11654116432255412 -1.3014304566567327 -1.8511359120840827
Ni 1.4571792006070452 7.70409289629039 7.302968733883011 -0.6532648627782556 2.290815892820209 2.128160707748412
Ni 0.6669333493245414 1.4147191452673746 11.798017508214842 0.2199506763591567 0.015035039956251526 0.8494688303397757
Ni 5.447611239343515 6.847942940396772 8.392466956475571 0.3094235237100091 0.1693883900305728 0.8755709267434663
Ni 1.7973401488472973 3.6079034400647942 11.501264689672878 1.1681686371453883 0.5960585887705928 0.9696918143892913
Ni 5.120192927950577 4.064633180059115 0.5292380233978743 1.731905888075456 -1.1332723394888353 0.6571253741749262
Ni 6.0993153357398056 0.4619709463901122 6.846209424318052 -0.3583531595311764 -0.41695194301099164 0.6619351368587438
Ni 1.192087999826964 4.660986736415226 2.233228885835504 -0.23846030512756997 -1.2846138993200262 -0.2920824613284002
Ni 4.953281942183335 1.6362506722996413 13.293950403291754 1.364303956252502 1.8302783519087833 -2.5072158757136305
Ni 6.185676962987806 2.914192072379245 6.610235934175803 -0.34979781376199753 -0.10062397887166542 0.37615907736434573
P 3.520627004225145 9.377712113485272 6.946384661299954 -0.5134266756009739 -0.6648978190314937 1.2126921734790599
Ni 2.3267925516323054 1.8924525209063248 10.322857236511938 1.0457033940289153 -1.8322740421825734 -1.3424804326195072
P 5.077511100831112 2.625796353739175 4.554488231561956 -1.128990681394346 1.7603723709462649 0.19170376569832148
Ni 4.570993596273103 2.159049921690838 10.64778153943128 1.2597605877217724 0.24440649540867584 1.3395172362261254
P 1.923426646150846 3.666885492999097 6.666105789800333 0.1878093157399217 1.4058714952816433 0.29857758213444063
P 2.916844093245945 1.3731923795010021 12.539316479598707 -0.4081263742995616 0.19158935160764423 -0.2690931995220785
P 0.3504068044667214 8.514003436097019 9.139662285054703 -0.21212578099809917 0.0640675199038703 -1.9630429200687352
Ni 8.706769315191876 8.866204743881903 11.038352137267726 -0.11229087368663243 0.8376173303178284 0.28798155178614915
Ni 6.332970386734129 4.464598584917071 4.497387542559571 0.681160046526627 -2.735418507668934 0.041336139744625584
Ni 2.8195047628981555 3.3284617570338955 0.12385491876937461 0.6278165979084801 -0.10654625789337134 -0.2648241398330794
Ni 5.3765241434288065 6.139372863465044 12.990611886939 0.7519396883433501 0.38832373775133766 -0.4216436920597061
Ni 6.50284757005611 7.684992801755656 3.4151394090681015 -2.224434122960866 -0.6496817734126875 -0.7731055237876878
Ni 7.278263357613993 0.8866361832225924 12.589816686004983 -1.7336889481178077 1.1011878002494648 -1.559512135559656
Ni 4.679966704569238 7.188686039558982 1.6130542681823015 1.4879894449293212 0.9643796581477584 0.5860587972454036
Ni 0.5671443648591141 4.954640294334572 13.514289907007631 -0.6083880568702232 -2.801395071670059 -0.7532141841803995
Ni 3.4712088592944466 5.549995877681611 0.8412672213712942 -2.1161798812374526 -0.25863318053101914 0.8036044637074934
Ni 2.9995280051456996 3.972939789605241 4.477764436244158 -0.6930346864770258 0.23383849008484245 1.7047349840876187
Ni 8.319823761905976 8.769271995130403 2.552796476223745 0.3134799531675698 -1.1275027839949097 -0.34212152816366237
Ni 0.8051766363571153 5.336254084414599 10.411820985976185 -0.5476390598166246 -1.7495297718048062 -0.4615793519123792
Ni 4.059135088018396 4.685649606426452 6.8791822677279635 0.40407071617294926 -0.6041657912587595 0.10304133006390641
Ni 8.288618624390836 6.621957496786982 1.0316010032810807 -0.4027471122655193 0.4514474056846999 0.42663446040607816
Ni 7.799362356693437 8.42544257203273 5.035563892732214 2.1320803545177927 1.4373914202667952 -0.1418287352447493
Ni 1.688330078587864 6.5232413333063075 3.3357645169326853 1.0048004851669663 0.5676895507095965 1.1781211203724098
Ni 3.6943851936935164 7.042344386367608 6.999887103175186 -0.7860340589238979 1.1166229038576123 -0.6003903833767272
Ni 3.765546213534823 3.2283317984570354 2.4875013199579823 -1.9124281832356609 1.0991124057776749 -0.7521718589588142
Ni 0.9593847193875891 6.218406781489028 5.787154922796675 -0.014764817014000379 -0.0526209686298255 -0.738351151025638
Ni 6.751693987966302 5.152793379580252 7.263504445668721 0.8583491635485411 0.09440807986894065 -0.3399147503203307
Ni 2.997088515567969 8.34262929326143 2.8889729248203704 0.811907327146234 0.0866204655037218 -0.2682066831520671
Ni 6.443625264360365 3.712736808471446 11.926295849942019 -0.2426815422977692 -0.27001905377045754 -0.10150561014567033
Ni 0.9161050325117641 2.4042463457252583 0.8189791575020263 -0.646133393939797 0.6714106804493469 0.20518688778642083
Ni 8.932459063095274 0.4535186694327244 6.848887318559061 -0.42923693102593174 -0.4001281865854335 0.8397024949816312
Ni 6.789182659242264 5.5211747867992536 2.3929387571030265 -2.9200257715317903 -1.060103371504329 -2.273445519862562
P 8.044835995452601 4.056695598440665 3.2463276543382125 1.3016919378482357 -2.1363524995305854 -0.6838581621840802
Ni 2.7215185981926346 8.665399637769525 0.33358726306753345 -1.2575080442421698 -0.9499385430217638 1.1353562186010577
P 3.243292153102286 6.109489116137842 5.0276660452243105 0.3762472662027778 0.6304607203995465 -0.3043337678919275
Ni 1.9626063272477348 8.497130299851047 5.215235996328418 -0.8351354444362391 0.5818326749791979 -0.8853300630127591
P 5.014343105553204 7.792524393483132 11.128316631888291 0.23829575452524768 -0.4664089120905387 -0.07823532676382011
P 0.265065327405772 0.6027341152705922 4.042928191160889 0.38553460504197473 -0.15659946579602063 1.867018130531978
P 1.439234167425404 6.602728035380703 1.0712214557903095 1.6524629141567797 0.563419719689649 1.7159604204897934
Ni 7.806634622972506 2.3858392880023804 4.960057070056033 1.0059099161810612 0.15468219416864976 0.15734534282310966
Ni 7.282412337994299 7.516649539910581 7.027043981660007 0.3067624319380782 -0.4733398348824171 0.982975418872075
Ni 1.2491572711605452 7.377949772631265 10.641411145056708 0.9073551611335987 0.8523471803288352 0.5666168864707081
Ni 0.4456882775078415 7.088639245399546 12.889138360996224 0.8334485436521194 2.9352798694773834 -2.8210444704698707
Ni 3.068129409028554 8.597029246157287 11.652859561898117 -0.0430657208412226 -0.02886526097112448 -1.0853732018147115
Ni 8.838390866499443 3.4825654225180496 11.690159727161253 -1.2385867818576346 0.6804799897404668 0.9428530969298923
Ni 3.375819272510677 1.1481309849736856 4.128902641843332 -0.7189912584417876 1.813092584158116 -1.5805309039031683
Ni 5.3284920721218185 0.1324476511872984 9.624593078997043 -0.5367918326894756 -1.962219395726175 1.7999344495096035
Ni 4.518211912682201 5.353367473422013 3.1806665746357896 -0.700179010831291 1.040754534664072 0.3102935850197882
Ni 5.556972448254288 6.176491915108017 5.4660996133856505 -1.7301153718339364 2.9053224038833445 0.7509968648141065
Ni 1.0049865416076706 1.9838409751629824 5.734017480309019 0.32784393519872573 -0.3265833233187472 -1.1127317963333223
Ni 4.4938632193590164 1.684273503115804 8.408222917380831 -0.5036989067902486 1.2578929383854143 -0.8437653521970951
Ni 7.317461519692531 9.09746650775262 8.812845529614455 1.5533348031043506 1.9624042580434717 -0.6121238697635716
Ni 9.037726734570688 0.483677783386504 0.2736164776149845 0.34703593474614425 -1.5693136950311102 1.1327087536758815
Ni 8.750495317774535 3.687879888152901 7.369806128067423 0.9607207212389324 0.02156847019939511 -1.2518104796367602
Ni 4.159625425737421 4.231137584230067 11.730232963720894 0.12435757504317937 -0.12235545701148606 -0.41751938547868744
Ni 3.7085601066186644 1.2460709472250828 1.45312816942948 -1.39891897522321 -0.9143516470560898 1.5398133715791482
Ni 9.147392879678678 6.242986487082831 8.37322178623489 -0.9710874091852371 -0.13316514603248034 -0.5762898907840979
Ni 4.345220683952282 8.674667850066736 5.089702080376189 1.0625112096148732 -2.6294749163565685 0.7806545397795395
Ni 0.4239795924132847 3.104509221405547 9.489538685348084 1.2453845215057586 -0.8383382676442529 -0.10865816203005157
Ni 3.284310691873298 4.118699291874656 9.261084182589924 0.9199687361325511 -1.4707913358834799 0.8762869789738843
Ni 2.5125264172095374 5.693611586079688 12.26377058749952 -0.6373564190781152 1.6352097835032868 -0.22767992668261433
Ni 6.090934210561769 0.843710407145355 4.6007683058085735 0.4263287562402013 -0.9666442858122192 -1.9677362117793467
Ni 7.500312352132445 7.979745978083146 12.73046989304465 -1.3458624617178627 -1.4178749475004226 0.7723375352734119
Ni 2.144274376862082 1.8646663649963378 7.929878745298366 -1.3261724394881031 -0.5381416618491506 0.8431511156518641
P 7.760801788481806 6.249075970536333 5.295002685274803 0.4003672991794331 -0.34766071281433675 0.842787047444226
Ni 5.798130777798298 2.466009786397807 2.4690129459158467 1.9439172549828778 0.3293205197442522 0.45593449492177607
P 5.054086456590402 9.197125201297418 2.614913827694881 -0.8335930396497837 -0.8186014513369578 1.6211543338514853
Ni 1.2969675706877393 0.43630733122256754 2.1828635905952702 0.3493136750367274 0.23687444869768884 -0.30109674901186856
P 7.696829870502145 1.9717266916917513 8.029783235899103 -0.615757609861417 -0.5990827203088973 0.4105689223027833
P 5.510862399038846 4.542366555698066 8.86153367577 -1.5977927763074093 -0.18859581619695906 0.046453663476849025
P 7.3667687787333325 4.889818251199036 0.02479500903001924 -0.512329328771737 -0.5518065609307529 0.8889830863843141
Ni 7.92040354600668 5.78537890046016 11.68928095648382 0.974921695329663 -0.1900279206577953 0.3513127077446272
