# total energy = -381166.3176772554 ev
CRYSTAL
PRIMVEC
9.30148801039428 0.00000000000000 0.00000000000000

0.00000000000000 9.30148801039428 0.00000000000000

0.00000000000000 0.00000000000000 13.61366791202742

PRIMCOORD
 96 1
Ni 3.4132089345737904 6.623598922801914 0.04270313151446717 -0.2512543715684447 -0.14304949502572784 -0.029366368977259104
Ni 6.642471642000968 7.312095066278468 11.746703191125206 1.351839505236904 -0.41578311951387104 0.37353423814698894
Ni 1.570230700634889 7.595753245033683 5.058770526410894 -0.6693967353431116 -1.0114884387101033 0.0810375720993056
Ni 2.332096981638369 2.0228504093313577 0.5519223948320494 0.34182687974137904 0.08985928415599362 0.47589756830726426
Ni 2.3100338520473613 7.767449412453756 2.331790032533604 0.32889011707505295 -1.468118417037007 -0.20296339777254077
Ni 1.461961380044953 0.17123760406052851 10.724820323475054 -1.3564106695473543 -0.005415771698932609 0.34721256953332463
Ni 7.278172539457893 6.995956091346273 2.02161610187068 0.9128876609160536 -0.685866965083993 0.20350281521577857
Ni 7.434465442711562 6.617915713619745 4.433086401406142 0.2802258191001303 -0.9314052601042668 0.4308644393270257
Ni 8.05815811913055 0.3246889027231123 11.273614627884903 0.2638952002609068 1.535710405154368 -1.970908181749425
Ni 3.179527650967178 8.843333929120144 4.195991471695019 -0.37499231074975414 2.4530062224404463 -0.3065639427740269
Ni 5.213893302471246 4.259309491115284 6.747056643184918 0.778240531021408 -1.0517359733762404 3.82415651219082
Ni 2.064772215851877 1.2763129805900955 7.149544121882798 -0.8603353407406344 0.25468885117129036 0.637102136975464
Ni 8.85918366471166 8.207223766190198 3.937930057830822 0.9364690477804194 0.5440464573693599 -0.29168856832409124
Ni 4.06726166790047 8.620879541557521 10.260716997665154 -2.9963391986825494 -0.14055758184180953 0.07291314321995829
Ni 7.929937106730868 1.6905640511909035 4.186093758289542 0.6899596470961279 0.19780113684531095 0.24459032928470778
Ni 4.4016222578700965 6.178420404523998 6.72240211903065 -1.1755392185778464 3.452259552536938 0.5309664842569501
Ni 4.773914315998293 3.172430615605484 1.4148958506476093 -0.8274254773864911 0.9945214718384615 -0.07346258796552509
Ni 5.554532396856525 1.1912322696419726 0.5339733133936989 -0.16932256978964386 -1.12995073131477 -0.7014136545693405
Ni 0.14976046821498185 2.5829395106477686 10.926111965487312 -3.210280435622833 -0.3481885602933487 0.3543970030969058
Ni 4.057216060835425 3.873102406904394 10.09610019277953 0.17658465066869589 -0.035014311291655824 -0.05886412132605992
Ni 1.151189363702138 0.33616693894372923 3.21304370276114 0.6839293817416479 0.3880221473505189 -1.9412206819873215
Ni 5.985805190539772 7.806859817208013 9.480231928085654 1.4033387015574605 0.3277673163245194 -1.3031237851987558
Ni 8.306098583876711 9.32539284741001 7.471140279838199 0.32218853668516123 -1.3757039705593275 -0.7187688580183362
Ni 3.5716132756087235 4.397204051059081 12.39015315825425 0.7941502602731291 1.2223214690387079 1.3455660135233667
P 3.9908592452779845 5.2463647971602025 1.6947655333309786 0.6911328414686226 0.23965406832535502 -0.3255060310941684
Ni 6.519050197421254 2.339528870568899 6.164187267550912 1.5552741862189086 -1.4667932704676803 0.76769540851571
P 2.363982482581866 8.150577704128969 12.140124509446881 0.7494773428457866 0.22208880574808204 1.3315545297356228
Ni 2.269990946107527 8.690445370482962 8.662281394897544 0.07813299685800092 -0.12202198493146728 -0.7474466855690031
P 3.8182794364957098 1.7518701587517516 4.772829762494788 -1.1818996135782356 -1.7530146450296133 1.1833072925590395
P 8.773628577874355 2.947148575683812 5.921659338685443 -1.5929359624357404 -1.173954647699546 -1.470771795499454
P 3.308836937465571 6.023727357210318 8.879760416516561 0.8615123917678712 -1.019713654833373 1.2144312676573537
Ni 1.8634043016378279 6.925171767489794 10.501297194938566 -0.2868962891417704 -1.113822715404656 -0.9814564111243871
Ni 5.61708490381248 1.1166343356959856 3.9163803703786946 1.760112432416659 -0.6989988744802607 0.15584716101102836
Ni 6.56183704232793 4.7048042599859885 0.43376280202705464 0.3811791562867564 -0.9813558809907809 -1.008909365129017
Ni 3.029643472961488 3.6956858243500603 7.9102077204848795 -0.08654230396761868 0.06637277099827923 -0.11622414730276757
Ni 7.605398888113732 4.754390492637616 6.87088642308885 -0.9851004356348775 -0.37157788575156653 0.4660597562812361
Ni 5.064064933393695 7.8307832444036585 4.292920418087082 1.8339570863119512 -1.016104854436192 0.2175253547471157
Ni 5.772726702904525 0.30826712561816966 11.137478049177489 1.363721858496787 2.123886248742774 0.16048517400367202
Ni 8.473804412934836 5.108739980369078 11.56483770684938 1.4384062346845548 -0.4572475573062448 1.1826228648975052
Ni 7.6115378702090375 9.201320298668673 13.421102186280606 -0.3454385083520374 -0.6537448877384676 0.878349517929868
Ni 2.1518527467249853 6.699452557631032 7.2308865647944 0.24075655736091442 -0.2036614522808299 0.28898299646747005
Ni 0.29063522492140986 5.413307904200425 5.865911800367254 0.5782249030232817 0.2855567443947405 -0.047775981832698364
Ni 4.914069137531725 8.296657573533173 12.676815717640958 -1.8437571031215083 1.6504353422037896 -0.16685971007144812
Ni 2.0889746876882183 4.21416936973874 1.5438033128634006 0.7732564475432554 -0.9561793817251532 0.9688703469292603
Ni 6.47481232038296 6.981408564078004 7.126496894858937 1.548716844716365 -0.3231892100355337 -0.44509395266284635
Ni 3.7290130559371515 1.2896513144153503 12.156175157179698 1.3332167479293942 -0.07313425809182889 1.104693242299562
Ni 7.142817285744426 8.967443683813574 5.179809859907869 -0.07230867686673999 0.0504221612062938 0.23499625783836947
Ni 0.043090073416231896 6.115486536559092 8.55201132423382 -0.10620044451817841 -1.5557662953639788 -0.06789614962134113
Ni 4.180804932199556 1.614589497017484 7.903074409319895 1.8154603130593443 -0.5044537826784021 -0.2548418318093869
Ni 8.378650190457597 2.0935789242596976 8.558627472664716 -0.48808151196796584 -1.0777056579671247 0.129665360409338
Ni 0.5319948868911663 8.425464579678314 0.9978534034910417 -0.6298914781596379 0.018556937066580945 -0.12212534327855097
Ni 7.122781880542474 2.641055207816662 1.7547880355446264 0.6925297218161492 -0.4070033164387119 2.24100976793136
Ni 1.4667051389367798 4.207267665625533 9.625625347673747 0.2283083042952326 0.9844396621224272 1.1167090358135154
Ni 6.24597711203643 4.699288477588236 2.726273580787528 -0.44785506034775124 0.45957491988784077 0.9767350943893179
Ni 1.5899033478039368 2.842060363997807 5.405742073842361 -0.7505366373482364 -0.2560538498396171 0.20228025566258712
Ni 5.6785863426218155 5.39606294540543 8.994604958990092 -0.09120551377124292 0.6276111667658932 -0.6100286777974397
P 5.305922224972691 3.100195259617387 12.621694169466727 1.1061083774795337 -0.6854229355680389 0.3145685582460583
Ni 6.177704189946212 3.0833223603433195 8.508951015579262 -0.9158989369385517 -0.7659414019390809 0.0960093629177895
P 9.047585304621382 1.235944522569449 1.1075616642781656 0.15871291259459763 1.2856721653812115 0.5434103664472576
Ni 2.910658838168836 4.755162516143541 5.8198294382539615 -1.2432790451269815 -0.2717491490876868 -0.4264084604382011
P 9.374690733932919 6.509860327254342 2.8190912694733403 0.8481850785313457 -0.05037562423907454 -0.813868821747979
P 6.51233452306851 1.0059838341721123 9.254735023790646 0.12247527041880196 -0.31012543487304006 -1.0030089404841822
P 5.8135323308622615 5.633781074814107 5.126553260082289 -0.14579183365755538 -0.15411320903905718 0.2237044869746341
Ni 8.313781612983867 6.477891112918638 13.478362146551367 -1.2026147346383997 -0.5044296143086862 1.1960417094065723
Ni 5.7481242670831865 6.769725299646236 0.2775936085640946 0.43132286702068295 -0.419987901623838 1.3167277491354354
Ni 1.1956318734769416 6.012928329615395 0.5785730183160945 -0.5583343347469416 0.843437022323399 -0.5502962949338136
Ni 6.882282606214863 2.6942876237733806 10.846893982440207 -0.616837473189157 -1.227064640150648 0.7332693656273565
Ni 3.196447057681361 9.090762812025032 0.2814676783257534 -1.1630804239892034 -0.0748250155306905 1.6521934625454773
Ni 0.6894467555525242 2.584976536524847 3.014597385935175 -0.3050847871253391 0.537716401386274 -0.9750762186296562
Ni 0.4355505480251118 3.6898444898714966 7.538133317176426 1.6051852121167387 0.4232172071944131 1.146663930304393
Ni 4.2967758848726945 6.412780696756304 10.989865294547062 -0.47770633938122886 -0.5578255134313232 -0.11913952117734965
Ni 5.09752238581311 3.4876952506634993 4.883290513662989 -0.0028490394130209 -1.1698725072103722 -4.2667076438271545
Ni 0.6151873957705813 0.9418965816923306 12.801054763017909 0.027107911960385575 0.632143507418608 0.08896222626302099
Ni 9.083684379639385 8.123035998092302 9.630404452220063 -0.5835033778134016 0.42645396896415594 -0.2195488129350477
Ni 3.08632674097481 1.466807455305035 9.999946990488604 1.2845403657696135 1.474800457042873 -1.928035807865931
Ni 2.1269061558467888 2.8513897564850668 11.68786476833691 0.6839358094995511 -0.18066267739281144 0.1532305493237877
Ni 0.6224062806253793 3.6724972147082466 13.3470986174193 -0.6049769743061453 -0.11364224550820427 0.07779515390260795
Ni 6.128062148366445 4.882964961582178 11.289269962376736 -0.5171663451490641 -0.10560112037128265 0.945377663123959
Ni 3.8655961060696793 1.1777358105203235 2.525308421004883 -1.383155027520734 -0.44075984406386676 -1.4442470097360482
Ni 7.999400619288055 4.206104979622634 9.484560840611646 0.5027869364989406 1.6346816789139587 -0.8625007238230695
Ni 3.5619490295526286 8.666661465607664 6.427706794587117 0.13713852885793157 0.1888488127480296 0.6809533298324595
Ni 4.0525932212879 5.45507158542455 3.869194851785852 -0.6614330004113447 1.2585987062031874 -0.623437752114494
Ni 7.708217536722079 2.6630625284795304 13.240694245178014 0.23434859695204155 -0.7049687189104504 -1.6227967545509148
Ni 5.911625823554828 -0.16131384648858663 7.040989245610549 -1.1355994449601152 1.4095733696132626 1.492003965405353
Ni 8.252782454527784 4.160871843365859 4.170819784806661 -0.6634855120649992 0.013783169827021423 0.3169686830471186
Ni 9.30002768957077 7.930681225772723 12.097691121085086 1.5065309553769344 -0.5417471198122219 -0.13888173680128338
Ni 0.5799403370555035 0.5451927682472711 5.331425044834675 -0.7439201604729833 0.31744485135258876 1.6594316321651292
Ni 8.852170342742175 4.638270716156107 1.879693997612841 -0.6310307339704034 -0.06469384063395955 -0.5746778091019715
P 7.660221858522416 6.443512813184925 10.099218051564906 -0.05689851295925685 -0.3519367144818713 -1.5794145309105379
Ni 3.0134681852891596 3.320035929045492 3.722303892626024 -0.05137398359660184 0.5158381132559439 -2.243904058760019
P 5.684334662220147 8.444160570604927 2.2549132340219353 -0.7712993238168846 0.8774048946284116 -0.3981083279419273
Ni 7.6977347597199435 9.369481900639931 2.3213342298467357 -0.8393106588598512 0.9735651813017685 0.22328616849029287
P 1.446195357845645 5.130031086454161 11.959171501146129 0.10011798576952435 0.014328757917846293 -0.22330108088862832
P 1.163253393668216 1.9927693970643598 9.184379498532035 0.7355105962530494 -0.046753454105454964 -1.3447962252368773
P 9.462775825512532 7.3020401577254 6.824449674281874 -1.2414252797476943 2.3290098873914276 -0.4055336738717209
Ni 1.2431996832275374 4.959218560396292 3.844812861230663 0.6441911826117614 0.32515430418170455 -0.8771886648525474
