# total energy = -340887.8715473361 ev
CRYSTAL
PRIMVEC
9.07685419991637 0.00000000000000 0.00000000000000
0.00000000000000 9.07685419991637 0.00000000000000
0.00000000000000 0.00000000000000 13.28489362405971
PRIMCOORD
 96 1
Ni 6.563918193318966 2.0619527100272506 11.14993171775138 -0.052818686462928394 -0.09323205728296846 0.6450116216305278
Ni 4.579999200697068 0.26066910508862495 5.988166056294955 -0.7427073711118048 -0.2156006269205771 -0.7098538149168936
Ni 2.7156314575745175 1.6131567203343062 4.75171422483371 0.5957569983697739 -0.03396555831216731 0.0679534852218378
Ni 3.3775156815129024 4.448711578439185 4.6686836990729255 0.8705547044757974 0.757350060725644 0.10630637396842336
Ni 3.3218201028227496 2.8199245148023295 2.7898147733370466 1.3894899685998265 -0.9582568330794722 -0.5136714446219283
Ni 5.232897338764649 4.338155491665056 2.5443493993934685 -0.10109037698512269 0.6785611754511992 -0.07152783283665745
Ni 5.519589785460945 4.533362322713038 11.280721928387324 -1.9544731761218532 -0.19098899901948396 0.2970968838238561
Ni 5.757548600803356 7.8226963635846705 12.265384541434093 -0.3833031446082947 0.8288691518115531 0.31720933830301495
Ni 2.257386462435607 6.633583050953732 0.0010020847274108294 -1.1542885367291862 -1.044791423737607 0.6187354615428183
Ni 2.842716496238277 2.0219691663293817 0.20859428362459717 -0.036176707030873174 -1.007941344788793 1.2777932768537672
Ni 8.00780065566881 9.121240233042286 6.471098280071654 -0.025091138640672916 0.0618766829001386 1.2262352022708172
Ni 8.974367651753928 2.5948003716026613 1.2690568002051978 -0.47520311334340093 0.0499220816414237 -0.1561621211482859
Ni 6.602939590448849 0.9091558919105388 4.710039663158335 0.9834161059539193 -0.9309864273992935 -0.8753577822913956
Ni 0.6284559844989952 7.6036900202606805 2.5079621054148045 -0.010819459213007173 -1.4743926800814928 0.14925845204991714
Ni 7.513366241977481 3.892400248201121 3.6927221586683316 1.5634418096313656 0.37238058415851993 0.06598350597966054
Ni 7.733425500413606 3.9056615325013673 12.413577805039827 0.8436134000002633 0.08443785603010619 0.3546008915775958
Ni 8.496271576009516 7.528624434249018 8.854527758284185 -1.0220536158204592 -0.2594158243333145 1.4783282676904732
Ni 7.035233858815409 0.953124174696572 0.10344346365457223 -0.6647201558030488 0.5555860825778433 -0.6078424687793983
Ni 2.0258722137278116 6.377089298895985 9.342574789523711 -0.09103839206575934 0.29076451384792507 -0.11868417880748593
Ni 0.28164299258525727 5.461688531147958 1.360412616835377 0.25249827127787483 -1.184591558588102 0.2637424767331264
Ni 6.635897648829545 1.990345405547685 6.732545271583641 -0.8709660809816032 1.3555575775184396 0.7822218842666593
Ni 3.653933129011471 4.279800394631322 0.32957695306518336 -0.4290929492488997 1.3491956398561538 -0.29125276633825326
Ni 6.2363617480465505 5.878361533066383 4.635551365087465 -1.1346242255310395 -0.9441129374789224 0.08665311851387011
Ni 5.45062384561613 2.7409649582466518 9.203269581761099 0.35853493652467927 1.3830673529029343 -0.19491044556107723
P 0.07090384826240664 5.751240186984964 12.479868795888551 0.7279806064245914 -0.22739299156981485 -0.2480492343675857
P 4.27142245800632 6.225360600495628 12.036419073446016 0.46359046880513705 -0.09310015969079449 2.3554727095686467
P 2.3357560234543127 8.239106136725061 1.3751325516401063 0.8421062193271174 0.9163558219703123 -0.34296613555214484
P 6.3545060851115815 7.861027919779018 5.542032308001916 -1.5568268754180092 1.1949574752034582 1.3776376972469306
P 4.944416751748607 1.1988981616902588 12.608799159054872 -0.6907808574458426 0.2583647573609808 -1.3058460692259253
P 4.018214527246786 6.192284543007538 8.219562761484227 1.368619038688088 0.4800455290373668 -0.45691614210875503
P 4.670123288183137 0.9555023105532897 3.5433734114955757 -0.05847845585186703 1.1171103850169923 0.5160070347336403
P 0.13072848802592144 5.57576643743509 3.7514149146863023 -0.30281321748234297 -0.21030441151864426 -2.4295233088271577
Ni 0.6307006905958131 0.23686142364364432 4.852427370680265 -1.35507472434475 0.12430692431090204 -0.7973996204483621
Ni 1.5522237966467256 6.824759758641475 4.758224144820115 1.0006797781303736 -1.3407914749528587 -0.9228558278723591
Ni 6.28593045000661 5.846846694537666 8.917963170733968 0.5908829581069243 0.19184466215155993 1.4988294729676186
Ni 8.80429463058095 2.2535923372901565 9.986600302400676 0.4807060454395012 1.2339531397403651 -0.3386592806466748
Ni 2.3066556281999726 5.308689073129508 7.244625090257639 0.3384921589411912 0.18364207173610952 -2.2560373516884438
Ni 0.9110348007744341 9.253762307500601 8.973999131464682 0.5388672271612656 0.5340700628829383 0.7463297983557404
Ni 1.6465958519989938 1.541086496279578 11.537691307616415 -0.1040916257052917 -1.6603299756096825 -1.4207334999951402
Ni 4.289031555571329 6.802821001520534 1.4101247330951923 0.8833575126674207 1.1306719257515108 -0.12127096569805565
Ni 5.759327664268688 7.956353044844857 7.78415059362613 -0.8725660784788715 0.7627995138759894 0.28784245510512363
Ni 5.362968662530928 2.879541294599742 4.603707036743484 -1.1524913356194475 0.5880560301810905 0.09257179799115026
Ni 0.7078802760007183 7.641794655094653 6.813251214928755 0.029041895758304823 -0.7062748393163836 1.227168512718364
Ni 5.306782933702367 4.629286520170263 7.30002294812298 0.06715387213867789 -0.6270504091664169 -1.3644070574892695
Ni 0.6670335234479877 7.2753166580909205 11.051251787293776 0.2947019012291182 0.23175538230356862 0.5417057250513252
Ni 4.667146079935033 0.5291424896032267 10.417283429108581 0.7179031675839314 -0.34616510210541673 0.42978380466833727
Ni 8.077964740296398 7.223850893558135 4.558605054841022 2.31268749608232 1.452666344147995 -0.6529684145837593
Ni 7.564260164682124 6.62890847093003 6.941795811782439 -0.46287595923661573 -1.7248281552930682 -0.8345196652291111
Ni 2.767206144360282 5.307091546752476 2.4489507518068687 -1.374343599876691 0.5634814261655198 0.17831551731687353
Ni 2.5614973927541977 5.271410432047294 11.435504080612873 -0.8624374746853017 -1.013623482775235 -1.0860617432413038
Ni 1.0923812751307833 3.279848728008006 3.6409904423011894 -0.5701632090610697 0.7932925402585241 -0.1057967813218565
Ni 1.2471597966145647 0.8350560832086271 2.606535836675754 -0.19471529883113564 1.990476847909972 -0.9745841094845861
Ni 1.3643238334027803 3.4123798793207376 8.186284290142684 -1.0829764194477607 -0.37671057899244154 -0.5101235793696699
Ni 3.8034289212257493 2.8620592729965417 6.7217846606747145 1.1779784241469584 -0.8586556390453662 0.8868241310597823
Ni 4.110026909654038 6.637840095674344 5.887440202852219 -0.08086633662876395 0.6856278524899935 -0.02835798231740277
Ni 0.7501729714617512 0.25055748927036714 0.229171512583296 1.4054755453948051 1.3175839264881437 -0.18395446077020577
P 0.2737906058308813 5.675393991493616 8.00940907427114 -0.1093986397405019 -0.09921321456706783 0.40423526677527155
P 8.697959281109775 1.8875137218806806 7.843494160105652 1.0684957093330822 -3.019198876889542 -1.089525533420188
P 1.8982153332359104 3.3932821776316757 10.243277406917603 0.48781051769476635 -0.7787863762225491 1.346150682382243
P 4.351434929674133 6.246019521144062 3.6082166440651178 -0.02337698416304361 0.06675612247962696 -0.1866312362714205
P 7.210861914890337 4.1170523949712114 10.21288174453825 -0.03640476388127924 -0.49972063886879103 -1.6350976834054551
P 6.8080038853914715 8.060401027003463 10.315361246253955 -1.7507451322691463 -0.2384957863511957 -2.313863261557976
P 2.3187823056983503 8.466109188788627 5.753488523823548 3.0432952557171133 1.3713914592269028 0.7429912209008107
P 7.246633798139667 4.084629871000999 1.4741982484103469 -0.5596286280783329 -0.18185155549459003 -0.4797210558184125
Ni 5.630300178760128 3.1080783350594325 0.1405287677377464 0.072354699613327 -1.1365517815710555 0.4236998032577864
Ni 1.726399556015262 1.2000509222009579 6.961271110615163 -0.20893735596778856 0.18161141445932594 0.1809267296874755
Ni 7.068473299682967 0.7862316833105941 8.862392852634741 -0.43327279165820215 -0.7705986982054341 0.6668577709713419
Ni 3.1171914968920458 1.7898195378125397 9.298695459910943 -0.8608978981123239 -0.46103067849776086 -1.377822302453911
Ni 6.627165714882359 2.0009017872322756 2.48531172290773 -1.094061730727645 0.12541481266310017 -1.1598850569803574
Ni 4.5709132694277 7.219612002546352 10.137530237612516 -0.43720297995054386 -0.24171686439165466 -0.5695991090274836
Ni 8.379724765321518 7.756335480956948 -0.2104141929347953 -1.527490588347737 -1.8030598825124622 0.4362580995387712
Ni 7.873354288074524 3.743331068144345 8.05449834857742 -0.8246983082633151 2.736866810079687 -0.06269455081574364
Ni 3.2730320103423765 8.543035529955354 12.372978850612624 0.4671424478224535 1.1312409108811032 0.34783554782930415
Ni 0.2240766742001828 4.743146581951436 10.33483745277212 -0.22802265473401376 1.0777681357739437 -0.4385872618925802
Ni 8.977317629438788 2.590035023034811 5.717101229844884 -0.5993855962612967 -0.6937221994623536 0.0580915048260935
Ni 3.751200700922109 2.8220575755898434 11.44197315475441 0.7715376650799357 0.38493399534349837 -0.21623543229109854
Ni 1.1569177100211003 3.646653491770679 12.476760880936874 -0.4320944550793848 0.706213647061145 1.1757485063751751
Ni 2.9903152258798302 8.139460428957706 7.928411763899305 0.6991328289549636 0.8264492295161509 0.0005551011725216247
Ni 6.038132324478389 8.160836421104921 3.251238482892074 -1.1079935103173888 -0.3620763740190345 -0.5290857222944695
Ni 2.8698018298124968 8.631789012424766 3.490832039714619 2.051364427423964 -1.4377392905245174 0.23750873984757806
Ni 3.626176108210544 4.357743343492524 9.340488928379155 0.6655516505654085 -0.048696693874754844 -0.5001538697514677
Ni 7.290829002286075 6.203421843374685 11.22904376546123 1.0768492235041003 -0.7164841757492177 0.35189197728686494
Ni 8.064031768769446 9.136307811371108 1.9602656177019717 0.5995853709769287 -0.005559753475964618 1.4106326641157123
Ni 4.559712431079648 0.5558093801889176 1.359881620852102 -0.13816902700497494 -0.9609379794560612 0.39218399203769233
Ni 6.0380869402063135 5.429583697082269 0.23176023146244062 -0.4427894728993858 1.648590318575251 -0.6943415782139074
Ni 8.293458340961802 9.236334747023893 11.132236390069432 1.0337716755883357 -1.4268141589715815 -0.798856921720179
Ni 0.15459335365371632 5.0003846360712085 5.814266233300633 -0.3129078827141837 -0.48379008368146353 0.7520245347476725
Ni 7.139390763226997 6.177834190778934 2.2678511678906066 0.41420549061410605 0.2606180721715318 0.2619205930330392
P 8.452902365614868 1.704097724717722 3.547890054252456 0.7710111031525044 -0.193516393427028 0.3681647463049595
P 1.8644040505402097 3.6014507567842116 1.4800038044941508 -0.4879719829732951 -0.2631464950203404 -1.0624361334025638
P 4.871357150562649 1.1979269382678588 7.92069280690483 -0.18025335776953472 -1.1472190314769146 0.35721313238946223
P 8.624518452038387 1.8518598377387447 12.146166412491773 0.8802925005888517 1.9319202305220018 2.544019160584909
P 6.482653115741891 8.105022843307374 0.9760877086809621 -0.3739011345681045 -1.7581082575024365 1.6087225358460358
P 2.0231854648209855 3.442297191472423 5.873158680115732 -2.273769221750568 -0.3525087849352574 0.14398229125264234
P 6.8579719689457885 4.071223357030113 5.7410804638383075 0.1969884111360285 -0.3736036579323436 1.6624434224082594
P 2.4780629469719484 8.375858025340746 10.345544510239998 -0.08357730780202381 1.0092451512018812 -0.714847411476743
