# total energy = -381164.0825818046 ev
CRYSTAL
PRIMVEC
9.29173757682211 0.00000000000000 0.00000000000000
0.00000000000000 9.29173757682211 0.00000000000000
0.00000000000000 0.00000000000000 13.59939716691135
PRIMCOORD
 96 1
Ni 2.1391809520868206 6.859485762404501 10.696592349001994 3.0109566914854082 -1.168546332199781 -0.8187307778259706
Ni 4.789500378764891 0.9950428668515251 12.865559823684654 -0.3770278531225442 0.17383177051390708 -0.08049224111879687
Ni 6.945527250765072 7.078742889925492 4.533875391044843 -0.8013835447967746 -0.04904404991184457 0.33127635791904236
Ni 6.250012830867255 3.848711966615026 5.82781765422783 0.505115327521801 -0.6610581335704293 -0.3478239778650784
Ni 5.135701222698637 5.368635787678242 4.342926470698723 1.2756132384833128 -1.702179564655617 -0.09908028853362937
Ni 2.9327510768085134 9.040544574970921 11.768332933080679 0.7230536014366193 -1.0631334165799045 -1.006901333560053
Ni 4.301767790694189 8.280796374399603 0.8459699486375243 -0.033913107807677076 0.04678122201959685 0.6292384179566711
Ni 0.17822295679767047 5.66703064266867 2.370334291006088 -1.3560527719873032 -0.03601806996582184 -0.6710658955154185
Ni 7.454556500965626 0.5336709377958272 5.823153202051047 -0.3035976610568513 0.23193638796612315 -0.427707895975915
Ni 3.096304238592828 6.15654724432093 8.347499898875075 1.901876375861744 -0.6569016881998945 1.6980295470429854
Ni 7.10021609506602 4.56993662390957 8.85528777295846 1.6051507593343777 0.640147094449375 0.3176528535983368
Ni 8.611433558181735 6.3946851822467465 8.579995893849214 0.035115869866526615 1.2914237231530081 -1.215839717969106
Ni 6.527073856778215 2.507421797142735 1.9022295690274886 0.9253282006722515 -0.36600064877410515 -0.34871280822793493
Ni 0.3637427149786623 2.322116678095774 3.5636814175326985 0.982287905886747 -0.3673725894209673 -3.033470299206892
Ni 2.6511092243574064 4.403242854882719 0.3143116011633925 0.31738083088387276 -0.2666804763155278 0.2007386222070801
Ni 4.729791674207113 3.6043392728911594 2.972733422857707 -0.8154418226620538 0.2013708564744403 -0.6849596227783752
Ni 4.378043663043209 2.9035285626730927 11.127393532824959 -1.06054894368218 -1.64285367320179 -0.4020891669665463
Ni 4.3361193438765895 2.742772213847366 6.866920081501401 -1.0061518569885382 2.6104022159958333 1.3950471509726297
Ni 2.3496016373366557 7.373978554198577 2.1305219820000802 0.1892869287267127 0.2334695367811979 1.1308051088952653
Ni 7.653093054075809 7.148774714739058 12.756479472430993 0.6283153919217696 -0.9870788995174872 -0.6596417128388767
Ni 8.332923021235759 7.793407580612848 6.424505155097241 1.2244395438229752 -0.3735591778476534 0.42080628376007534
Ni 1.4566099223927058 2.85195012834377 10.146740779690928 0.6869056907611525 -1.5040814653951775 0.8028989530000367
Ni 5.469859974956865 6.784882402788193 8.65003236453148 0.42124877061413263 0.12956817270984136 0.13130521000560613
Ni 5.188896419336247 7.8145741584190445 12.333225037727516 -0.2808827359578388 -0.23364899978185566 -1.0816762125790982
P 5.420288555906796 4.590926658705091 7.810160583152168 -2.380614498941597 -0.826501422910325 -0.6141689252180584
Ni 6.100685319048387 6.49355855996217 0.7416924964479631 -0.9416865874256168 -0.6100034809864591 0.11585493688880692
P 5.862575256334782 8.234216894793605 6.116193228775578 0.0961155494783506 -0.19016444623565962 0.7856057131372276
Ni 2.9990476231856915 2.1755209370736663 3.87354320565334 0.6390296930154801 0.8155978886239437 1.1489606967583696
P 1.558828325573552 7.953262630910391 5.377460150690772 0.798732994547805 2.6597869370765483 0.4362033350414358
P 6.162010785914451 3.719854152297057 11.91860634376727 2.3048798271124435 -2.104784752026633 -0.499018984816076
P 8.441933684458892 3.497790920080073 1.0384482889603337 0.9420182597334228 -1.226727054305571 1.369762922484544
Ni 1.2668168941796376 0.9306325431673486 5.254113265827086 0.1009026864543488 -1.216117911331157 -0.36793437546170826
Ni 7.165769302450882 1.6737578255230006 10.93115482637477 -1.8914035013548782 -0.4038760836636399 0.1854449292728032
Ni 2.2261794893999975 2.3983832587073897 1.5837859322405596 -0.8603777639427956 0.22393485781788527 -0.19440419534862002
Ni 0.8806662252776114 8.249966389693299 9.070227030107837 0.07988237544893984 -0.531442395452104 0.25086073567445183
Ni 3.158661088310732 6.714692618438759 4.649892024270553 -1.4971981080117829 -0.27101484202482357 -0.7172547353666551
Ni 2.945833843073274 0.8175716116098342 6.768515007351136 -1.802103432136464 0.5415303758157254 -0.7782281897262339
Ni 7.130739452437993 7.878854397779565 10.469006108072103 0.9897698160860889 1.31738029511777 -0.06551736497651943
Ni 5.102622637540578 0.3334470051730856 10.245214612697984 0.8551543107603272 0.20839613875233784 1.1683936086720006
Ni 3.455615724003547 8.332477017840368 9.219874177693402 -2.0088365813640823 -1.02654636148449 1.7645879516895093
Ni 0.11449743416016507 6.800055809968842 4.549746607704528 -0.44575755438877424 -1.4985384240897612 -1.018006442334279
Ni 4.603303252927152 4.947803708915975 12.268682771372204 -2.4212032189972366 2.6538667149373714 1.1173944919163143
Ni 9.18893362131199 5.1474088118276144 6.472591754510158 -0.2787708318211586 -0.8976698155250347 1.0156065746435345
Ni 4.038811622162425 8.719394255078221 3.7394671516093134 -0.43032836431789756 2.8132699687307743 0.6396513857598791
Ni 6.403614541891941 9.352877036067273 2.605807358644452 -2.0657142683877328 -0.33479979769126855 0.8705135668252169
Ni 1.3232549071712258 5.098961693003422 9.295010883036698 -1.5847436564329351 -0.271187620157262 -0.1433811673335337
Ni 9.007215112902955 2.593686287201 5.590916446550479 -0.9878129494700342 0.45341507093403205 2.42429651321058
Ni 0.9812818037562762 4.411224457312711 4.63162818522935 0.825022010151321 0.05051343536851946 -1.0688924305508687
Ni 5.2159911256061635 1.1408488101942973 5.803801300559842 0.25545812523714717 -1.3105555588864526 -1.5445969090107203
Ni 2.1912890154481683 0.11470649825175394 0.28362656756059035 -0.5170406182044773 0.3727335966225645 1.0712529603632455
Ni 0.5457594881583653 3.4944644780894594 12.652728861752234 0.7869308597065544 -1.8916690963114389 -0.45392209247743753
Ni 6.987219276496592 4.8554345473833145 2.4286343681734275 0.3712274443906832 0.15837661230110142 0.7067497220702731
Ni 1.8939812937340026 0.37849706480239337 3.0250087374923256 -1.009246950974094 -0.9672713778732568 -1.2762066490929376
Ni 0.09392831506904253 1.5467676504232257 0.08148110364271208 1.3989385156072358 -0.12698935623907162 0.16520134853241872
Ni 8.156054799751583 3.716899379802601 10.648218634903293 0.35877019246393693 -0.15897465089641652 1.8474538352468055
Ni 7.329508298983275 2.0594485534235316 4.021763142373658 0.00993937060089901 0.381106394067292 0.5193479261814152
P 1.544342506960795 0.9244200875390682 8.67910806921592 -0.45784276768808246 0.8860029207100677 -0.06543663233725504
Ni 2.2456270957864635 4.993175262659459 2.63043603780736 2.30607744696497 -0.9700155162772971 0.30321250980329073
P 3.1483008011053286 4.402620308476655 4.792603819057811 0.38478667113235665 -0.5702693956216307 0.09753068465832235
Ni 8.67527708588427 8.957541484741443 3.8508732247351842 0.5673290820463842 0.6338000691854246 0.715087295401691
P 7.944073102617885 0.04785337680407922 12.181279114308214 0.06107321316223676 -0.5163183953264721 -0.5560067150550296
P 8.040158959112125 4.352602886031196 4.56092456780148 -0.4393161696388047 0.4548983403477779 -0.4032865297087571
P 0.4903658664509812 8.31853011999704 1.3426523381757103 0.11811210835409983 -0.0014434173147459012 0.7819380344776533
Ni 9.224279390396614 0.5759186094241038 7.209516660496155 1.0688728901668432 0.7398110234006162 0.428667688786023
Ni 7.2249948366636545 8.822095828604073 8.35351072380169 -1.3094558980643707 -0.5165536512657297 -1.5918113619129939
Ni 9.164022473332002 3.1494436848060143 8.594424103690066 1.223781341413686 0.5955520814478195 -0.8981768370684403
Ni 5.133322537923227 3.50241820530724 0.3834950903519777 -0.35296412730512117 0.021624777358627275 0.21784262887721836
Ni 5.875091226617902 2.4833004468420823 8.939141986334143 -0.9594945621413152 -0.3611541193150813 0.7445002013461695
Ni 7.624799713680784 7.466960970399898 2.3472285276036873 1.1705649052917066 -0.8225241834301318 -1.3412563304044192
Ni 7.607647166433093 4.754061692306228 13.242018281300622 -2.914367544804749 -0.41457135859395705 -0.08284480051137345
Ni 4.715417356443203 0.13424144696981694 7.925945852116521 5.07512495554226 -0.6318869113231118 -1.8542212358776262
Ni 3.552054666519137 1.6143185813499372 8.875606015139677 -1.4384255179582646 1.9999827305178781 2.3262626636635937
Ni 6.726716126639469 8.78493817072568 0.28303375471421843 -0.8020430327576445 1.4587297767332554 1.38021188573201
Ni 3.4167298029680198 4.062979431150096 9.224226427493411 1.118161451989326 -0.7455646380549418 -0.6084415358159779
Ni 0.37212664963824577 7.470148036329452 11.540924164335202 -2.0896057302933495 2.6505998712606416 0.43363094632856936
Ni 7.095923312385395 5.894352998256289 6.805151398761168 -1.9777709703075295 0.3209814037509375 -0.3981412380623917
Ni 8.611814519415297 0.8259276710572058 9.456952857555168 1.1149033500633445 0.913358429904885 0.47780635529420296
Ni 7.111914392457591 1.8357871423730683 13.27679167936116 -0.7508217726888231 1.1364216837510943 0.25349328820129247
Ni 2.0076285339217064 6.6313271504505265 -0.027361379133409466 0.5628052260341017 1.2376447296593394 -0.7045758543474059
Ni 4.480977530004159 5.849826992616564 6.333089325822225 0.24618775567881476 -0.8251395095657919 1.810551305793501
Ni 1.7032126330935198 3.1816581383855067 6.769507364905878 0.6900969440049406 -0.05327505727405664 0.2714753266010099
Ni 4.933680268061972 6.94886298449309 3.016251274989103 1.238899170891731 0.3334538251863354 -3.190549018632176
Ni 6.2049571961955055 5.887300569566691 11.012968574216544 3.036344021210261 -1.3331748389478653 -0.2901438495447906
Ni 0.6068415115044471 0.6877260856058257 11.560874453715222 0.2961108657615029 0.04300735679946141 -0.8791504165646086
Ni 4.313029376427775 1.370280390172613 1.6771455929804806 -0.03997551195167309 -0.4419209542515034 0.20639813448570257
Ni 2.4303282519021674 4.5130990662096115 11.573943282373877 -0.3902389524961795 0.3645664874307399 -0.4926333930047064
Ni 1.4683360949964899 6.741582906485789 7.13099311686912 -2.66127714846883 0.10941483769041803 -0.4856536192527636
Ni 8.289707150569992 0.8360380105264429 1.8214899460296115 1.0531837615663602 -0.3160723964850944 0.7459991544891991
P 2.4566982026545756 1.8287347136834706 11.963879405094271 0.2908915263440926 0.7973024327488656 0.6286676330548657
Ni 7.518623030365855 2.4826779004360175 7.430996371604171 -1.341778007235844 -1.2136169992861743 -1.208345723584906
P 4.207280113033429 5.545076589241836 1.4776965912572282 -0.49068346836718724 -0.40444455457260026 -0.48165478250601557
Ni 3.4550117610722904 7.823484934589432 6.840645835644253 0.601683391156538 1.135289369918864 -1.5407633941972432
P 5.281181955232272 1.5541267064471536 3.7059444214033452 -1.5085263885404085 -0.12888194527609417 -0.37010747185362713
P 4.359785399044449 6.593463320529433 10.587918975846625 -2.0428515048569467 1.163189438763242 -0.19889257013727682
P 8.720602180940734 5.750442569343923 10.519296707597237 0.26734613492398474 0.7300020077299945 1.2306567283772807
Ni 0.20333945217428578 5.594527215705654 12.716578893670953 1.3880961735760933 1.2753471293061196 -0.4530556307120843
