# total energy = -340891.8528189226 ev
CRYSTAL
PRIMVEC
9.08581463283116 0.00000000000000 0.00000000000000

0.00000000000000 9.08581463283116 0.00000000000000

0.00000000000000 0.00000000000000 13.29800812337013

PRIMCOORD
 96 1
Ni 6.299549500403717 1.7870706712523114 11.423813467871494 0.9188760172890046 1.0865469104078382 0.33884465718460355
Ni 4.860238376974263 0.4770697675634113 6.026458084258535 -1.1952580371630124 -1.0099403774966929 -0.3466178733721192
Ni 2.370834249243653 1.568738550176328 4.606044546290002 0.8703140492199011 0.10827455343838771 1.4119930347983487
Ni 3.3681204999995074 4.5707915862494355 4.666829553498094 1.6039888778157925 -1.2156607691890806 -0.1316854761631603
Ni 5.116667318011612 4.621445001771642 2.5163290302523156 -0.29639445844019274 -0.30482819102984277 0.9805200153530469
Ni 7.165191385688496 6.1285999016503 2.622007955206913 0.2674572065805523 -0.609531426446047 0.0175403228766085
Ni 5.234192327837573 4.476262772779834 11.077599417085466 -0.6218102438134 0.5500618103255043 1.4025969382954295
Ni 5.569404365914033 7.703852980782576 12.518691360145834 0.13705831043929942 0.14159605040865292 0.5159862087980339
Ni 1.9664519058092462 6.454562580623333 0.4175240654454057 -0.5828588022508672 -0.1526744197100016 -0.034822506995823906
Ni 2.5481439181074825 1.686563391878923 0.2745960270170167 2.224098593998318 -1.9543826732905762 1.5465710020179557
Ni 0.28860090140014283 0.1386068250790866 4.707707541260597 1.6301282552153216 -1.043821860735486 1.034626310279147
Ni 8.693098285755983 2.256198528410707 1.3429260780690562 -0.168812977143077 1.5795124899409831 -0.04997890302128812
Ni 7.0380535841813705 0.6362305220764592 4.970875430870648 -0.7305722784111676 0.1941260019865689 -0.22655506904955175
Ni 0.6728945091000927 7.626523614054417 2.503257269012531 1.62746587789181 -0.8572587586978397 0.12502837585795887
Ni 7.584846983202334 3.785222983654737 4.026157885321679 -0.24335260022286476 0.4648575084430187 -1.0105073057437564
Ni 7.888776562150014 3.8491598598932595 12.449461996994005 -0.13986055577478493 -0.751021547404455 0.6397976815297562
Ni 7.988393431707944 8.437732385008518 7.324595640028629 0.19248512394903625 0.8755642418752468 -0.22673093250578372
Ni 7.005862543608245 0.645136437393924 0.4234643709285301 -1.2133516614399296 -0.22505945834063174 -0.4617675566637854
Ni 1.7178095077499302 6.505761145012145 9.258512152897342 0.3465188859004097 -0.10811205971859446 -0.8558310251123776
Ni 0.09309870627620359 5.082459226632041 1.636253420142679 0.33208599830453134 -0.9437241866809359 -0.3591679421229879
Ni 6.350966124339172 2.01396162953402 6.996121641943428 1.613599918542995 -0.01970030664240478 1.1857482979003644
Ni 3.4740974396678497 4.257957909147181 0.6115289183490652 -0.6495125948246749 0.46776722589064607 -0.7369267598742857
Ni 5.983308642885171 5.487350375675281 4.751471183690339 -0.459589318065544 0.6930606546189547 0.6395922503871695
Ni 5.324496237590973 3.068288623365822 9.224642053815067 1.0769386978941131 -0.9180782039780576 -0.4472832470046813
P 0.13554853993742302 5.63427708104023 12.64656511262288 -0.2614824770543561 -0.029458157360117008 0.012539784338223565
P 3.9781965966190653 5.842478519011772 12.335976540269598 0.1380882943657106 0.41093401895168585 1.7606539067424258
P 2.4225234476124116 8.49594519814767 1.3547876088249735 -0.0613938297264491 0.2784525292497914 0.1963050119157587
P 6.281477815475705 7.768162375413281 5.9699415926759745 -0.28301803713328677 0.8530907433630792 -0.47142616279947197
P 4.728766641977614 0.907585639081499 12.574676331583454 -0.46164568637394043 0.8027351737286627 0.8918251838187995
P 3.867213373192385 6.179280574615835 8.052475680977562 1.0277254693942557 1.3731403235972095 1.39484789047763
P 4.882371420958496 1.1250418876451345 3.7725782556937943 -0.21330874556260684 -0.3126191478291713 0.5260819024711392
P 0.2787845874754448 5.868963668114414 3.7001443257877624 -0.6124761108966678 -0.9550056731320261 -0.4032353647558475
Ni 1.2692701061203804 1.1001921851423124 2.535278404855564 0.732690353195435 0.058464314784479963 0.052040156425691014
Ni 1.9074304551846275 6.3999568358182275 4.944930887727392 -0.013470266572292932 1.7206382855814366 -1.186281544696015
Ni 6.127137085524905 5.752229124145034 9.324429736684536 -0.5569757638365181 -0.0933320731959425 -0.7678489033744389
Ni 8.518169100276337 2.2456953269140847 10.170808786767767 1.0515832498484599 0.6708411810991222 0.5522878714425455
Ni 2.4221055001480134 5.205299437907417 6.897756797615803 -0.6262713649085472 0.1953084523304443 0.6259096106937543
Ni 0.4914008226850571 9.174946283135203 9.483207978409515 0.36532984795932566 -0.5118138225878992 -0.7905589433774449
Ni 1.6080982983453318 1.007162531055879 11.499491942115279 -0.47152695004339434 0.8569923924103305 -0.40371050462005315
Ni 4.186988612529432 6.885884363882553 1.373577981675462 0.8436645649531729 0.33555570202068663 0.2930455965726179
Ni 5.657918370222075 7.941546972437542 8.341468180980218 -1.2655286005538011 0.2816995754321794 -0.5803398924837553
Ni 5.225397259456318 2.9081693154289905 5.033574819181974 -0.0314841866512103 0.05948067186413627 -0.8747394319811065
Ni 1.1135574181886199 7.4191762426405585 7.03190703071038 -0.9192210593332492 0.30114997084730716 -0.02378913199979774
Ni 5.097305447432631 4.613431313432524 7.076707364568119 -0.6598869960804635 0.22414491694616234 0.23540763434417522
Ni 8.310494639542513 7.070208281496723 9.718782249554824 0.20021463138281 -0.017412539049492592 -1.3052068929800296
Ni 4.560679074773881 0.2692544767057154 10.484947186824101 0.318342937686826 -0.8815083752738236 -0.3520375017257937
Ni 7.967950349210193 7.319495772381523 4.6425340856763215 0.18384596021679953 -0.32180158565938777 0.37054173117756833
Ni 7.049065591286825 6.22874374844595 7.1481582093513705 0.701818860427559 -1.7428659866313856 -0.12497978200821057
Ni 2.4922661592802955 5.370406857973701 2.5792419352030618 -1.363626213459187 -0.23030270901744207 -0.15024344167100576
Ni 1.9949813631616633 5.240397939102446 11.490462459721385 2.6028172045597238 -0.4325652240682163 0.332871213209988
Ni 0.9668578581847568 3.51534703724109 4.013871138449808 0.5058069542721869 0.34769773669985926 -1.3400936775548855
Ni 3.6749121104968716 2.5929824123858833 2.649269032863025 0.0362947206659762 0.22147868296790885 -0.07474839665648418
Ni 1.1290033027424764 3.3492038343282546 7.961344053528364 0.2336664832833524 0.2594654466243273 0.52204861294203
Ni 3.8262454358668916 2.525538411772191 7.029446592159095 -0.6933475897317543 0.06667898938478839 0.2570586369550476
Ni 4.114856331662922 7.066474011760467 5.8243277874981025 0.3493491562603532 0.16115906014224501 0.19474203830401302
Ni 0.9937155256795803 7.320640585001398 11.452044910510166 -0.6812929725600654 1.4586048211196172 0.5335383587491844
P 0.020841041170374153 5.781285558735171 7.937819971352841 0.5358184130326127 -0.04279909744339726 0.9308455309460549
P 8.60213111154821 1.400850870890351 8.00181045389658 0.051759134850162467 1.0335945265805233 -0.5840967884230263
P 1.9358599685781668 3.3189208147882523 10.345185554729252 -1.444480208792777 -1.1799774568548582 0.7200852628369147
P 4.066083679730509 6.332149402626797 3.6382154145412415 0.7936926039104203 0.6075789307053665 0.2297805179653849
P 7.1931756941743075 4.020463805409972 10.309293861933313 -1.0958766724491964 -0.1942591851303235 0.05286136677540573
P 6.367802138502876 7.720961569379584 10.450997132574726 -0.16446806991081997 0.03233470757696367 -0.05175604952636893
P 2.281666066295684 8.577535811849804 5.654791941472085 0.7471538369189326 0.8394528408646704 -0.18860044418264937
P 7.157504786669342 4.006280849063754 1.7040063384474486 -0.3046780386052237 -0.24645772151074974 -0.11849828804892497
Ni 5.323696685919949 2.8882804676122893 0.46067714114454783 0.36138963236465504 -2.304092555324458 -0.3341680776445406
Ni 1.5159772257032427 1.1763494818072684 7.085391586013163 -0.10061266601775576 -0.8811283662265856 -0.6308026771199974
Ni 7.062021962683178 0.5902881013431795 9.37827409023928 -1.2383723518539835 -0.3025285963623886 -0.43649104148518375
Ni 2.8792400822410618 1.6049000916612388 9.263205884638827 -0.23751336783326832 -0.07264497716023617 -0.2626862675544701
Ni 6.468327589505151 2.0356948976827405 2.575026117301303 0.2619804997366972 0.050016184017126764 0.13023357420798218
Ni 3.8626613801562186 6.865632083488114 10.41237969544575 0.900143730986824 -0.26851290153857627 -0.722077353566279
Ni 8.209787472251369 7.315816017531928 0.5714831911895814 0.23957050747261321 -0.7950568312477985 -1.1787163307542472
Ni 7.90007931531766 3.9518659063619617 8.191545882593264 -0.695406529143312 -0.2684555659380796 0.012377033508114168
Ni 3.155694158311763 8.236672397189523 12.576231823016172 0.29292038384866326 0.7248690573788032 -0.5715888857640027
Ni 0.16273511391509915 4.719062992152015 10.288136634420306 -0.774253521349202 -0.0389270160825007 -0.8261494388875449
Ni 8.569013317901854 2.6657688718923214 5.913704035596827 1.1940899849968403 -1.9670666965161479 0.8423245059855107
Ni 3.7892752568965133 2.7667940426889865 11.508893942901356 -0.8398415916626569 -0.8140302870265077 0.4613752063213732
Ni 1.3375772591062 3.302866180666685 12.772803418500104 -1.804648567155821 1.0263697266973097 -0.5660725839314638
Ni 3.1289364347758175 8.459956287137183 7.857965656790848 0.7420139445892059 -0.061800064025932265 0.6477678442194263
Ni 5.684230888850291 7.941792289427514 3.6671519163807247 -0.700777306536922 0.22786350344833017 -0.1384886151279228
Ni 3.1935456612831548 8.742706832617193 3.4879742040673234 0.23582620993883258 -1.215373576965965 -0.11884667252727918
Ni 3.2985049897338317 4.229782798558058 9.093470150695053 0.6980611931573397 1.1341830242285629 -0.4020174331883463
Ni 7.143021998446491 5.955842225822637 11.602591404349385 0.9807794396620205 0.5351985200604267 0.4779228262674091
Ni 0.5719529277963075 0.14624436070024646 0.26736553588292317 0.10424923432907852 -0.41637370191001843 0.014100443957124103
Ni 4.682519846460479 0.5002167884395318 1.4491501518902603 -0.3634984511775417 -0.805109330387794 0.2678999505449257
Ni 5.891905349584113 5.045552648362768 0.3337383189737333 0.03783815389369612 2.4251938282138683 -1.385885796188336
Ni 8.075408276632817 8.813821502266038 11.557152337736271 -0.25293535881529344 0.0993037173983451 0.19053468509088475
Ni -0.017989912598021112 5.031415121088767 5.741481514239882 -0.09282865119696271 0.5150675536385064 0.872061370928311
Ni 7.992164044701974 8.957668116534657 2.4708763349175373 -1.0565591057964965 0.9339439673657205 0.9191639808430686
P 8.50225075337142 1.7348454098313895 3.7172456457332146 -0.3309827379380235 1.0109860451523878 -0.5382265082534731
P 1.7783846326443777 3.2557744044063095 1.7613214731195883 -0.2589383704762637 0.21989205520707933 -0.38005327021242935
P 4.969895071492201 1.0455228396361036 8.364646093625446 -0.7778888041089441 -0.4092376050858694 -0.0044750050522181
P 8.451960770426952 1.7241514062314547 12.50140378100429 0.7557870871138984 -0.3530967962282435 -1.0717203869179672
P 6.357689627027321 7.797745787241138 1.4832328590305113 -0.9654914031546983 0.36212651053067957 -0.48529083659670613
P 2.1483408251525717 3.365294811707596 5.8871607372817465 -1.6158552902360752 -1.7091832496669597 0.8149340297876997
P 6.935847257507058 3.9776877910102324 6.218720277951942 -0.5559676342869779 1.1547364228998822 -1.309468753580177
P 2.4374877840007656 8.55565717066999 10.211566841779618 0.08387684132031362 -0.0431996753159256 -0.13156694830742502
