# total energy = -340871.81532402505 ev
CRYSTAL
PRIMVEC
9.22292249010534 0.00000000000000 0.00000000000000
0.00000000000000 9.22292249010534 0.00000000000000
0.00000000000000 0.00000000000000 13.49867933156362
PRIMCOORD
 96 1
Ni 0.6691064384910621 3.253828672341557 11.47588899764874 -1.5252244180213796 0.33604781116575677 0.7949326469651083
Ni 2.915126060186524 7.080686753130025 9.567634939164979 -1.32451896304508 -0.6730705846502731 1.2864373256820103
Ni 7.202410886536574 6.727098343784647 10.303312433492415 -0.07900640060188974 -0.2181107949369405 0.2003519282916227
Ni 8.053769655336785 0.5320307502993026 2.6249397104479035 0.9549511657450068 0.20766157457915851 -0.16996971645533954
Ni 8.409193426293612 6.568796099066507 6.224416778007721 -0.5845886404577804 0.19757205155364038 -0.2881193629155941
Ni 5.985529246455233 3.0204610600074213 4.134321731565919 -1.7845057736593588 -0.1367207245942226 -1.1034691400844736
Ni 2.5138920323248377 3.675740492830723 13.09821400749863 0.3362229032910403 0.4299002756415435 0.4633639546166278
Ni 6.055752579669164 7.321967633115534 3.6986788238047668 -0.23056007644388682 -0.4688280630549925 -0.2695431425753035
Ni 1.2740268689483663 9.249945834022636 3.855803301297872 -0.8011256631496977 -0.40219355375489446 0.1545173864560113
Ni 3.361515517443457 6.669823994000235 5.256426773699665 0.38496999078775634 1.819058314823248 0.9454347416141395
Ni 7.496308540357844 1.7631276810928371 7.727049464315393 -0.14116204819502784 0.8770493110612058 -0.41135465142887223
Ni 8.567901479609258 7.807157926047672 4.131392531325737 -1.111411534860002 0.18166489340508069 -0.07340422392376392
Ni 5.701564680350198 0.5658853325462658 11.986962500763644 1.0101918313858667 0.06698366510940076 0.05437240410329345
Ni 8.845557566607605 5.792290570660867 8.785939672172594 -2.094783160729231 -1.3907675497606693 -3.0316134485038115
Ni 8.85365529271239 3.975015110568951 2.666745374329189 -1.4253432308530096 0.9450012536211468 0.08640732105165118
Ni 8.321428094160204 8.59861381210235 11.077381265728484 -0.5191041856017253 1.6856576557411938 0.7541678063429205
Ni 1.0941245393356858 7.277669935528653 7.715278248110909 -0.38809696645251224 1.5336316682484683 -0.9753261298569331
Ni 7.748269564795905 4.6021369604789175 0.4748172718045163 0.18270079086876276 0.3161382167260233 1.170393926931481
Ni 5.158943247948247 7.709671633419453 10.814575006522068 -0.751845328857331 -1.3240559073657328 0.8889344925345659
Ni 7.177933249768809 3.476995732202012 9.532713264765027 1.1778822648887264 0.9249546193829168 -0.15531262866379705
Ni 3.78276328750034 6.234428260566655 2.798707874192369 0.526317672631029 0.13315537584046744 -0.15727797992028397
Ni 4.311817800653841 3.09835786488329 11.386878570954801 0.9895296750508249 1.2529919015393711 -0.6995596320797371
Ni 7.844270966874157 2.8490807109423733 5.29383125888254 1.631410464361855 0.9457448166553906 1.2026957243879803
Ni 0.9480703359240992 8.411702061260016 12.803848751497961 0.04989765616139148 1.7635523113361433 1.17537826751995
P 4.1715924843700725 3.09125621442693 6.600260099757251 -0.9865965605644297 -1.7966241541894479 0.8002735995620476
P 5.019538771782162 5.285131275927366 4.694705590739173 -0.23248403293947703 0.7218043024105504 -1.3855824060153041
P 1.8287487758941403 5.459426068556323 8.427037014784418 2.1122679477775557 -1.2969361683308052 1.9639538619187789
P 3.0721002040400984 2.7614076080356704 3.365315361583743 -1.4301915600842465 0.9763931376688668 1.388857734332466
P 0.5227294327860047 3.8570631525346757 0.5115752301081837 0.9856704492057347 -0.09918956041798402 0.3704468574709169
P 7.342184279609484 7.570239488485355 7.8000904004051925 -0.016682859972319657 -0.3627137504927172 1.2803713219935884
P 4.543386943067209 8.421672040666932 2.1715869465746698 0.7552350712651703 -0.44694000473264966 -0.47751273531318417
P 6.850325813586505 2.823819125747606 1.9867494310409524 0.4518891212078089 -1.0686502326330756 0.10473722970909059
Ni 7.294584775706529 5.13290693724915 4.4497180181323515 0.8769233270063027 1.2288083623146322 -0.18731232149884514
Ni 0.8486831989334704 2.4126151184790037 4.447868822136897 1.156411753719776 0.9496297535320936 0.6844024647233246
Ni 3.9420892766349165 5.121203048380161 7.350719172248855 -1.510863007093385 0.48216746047637604 -0.0480937701834333
Ni 1.69544065161332 1.383244719213585 0.5375239230419107 1.5631880417493467 -0.8135806010835988 -2.8992052352420132
Ni 5.943094579247812 0.6984906701195867 3.30346459757018 -0.4849825613276679 -0.45289622231608456 1.0614141198959526
Ni 6.231661383765475 5.512891351277778 8.507555896575537 0.7665679797794863 0.23514178227729826 -1.1809133384055663
Ni 2.984012069613219 1.1979746486066167 5.277538043692663 -0.44178957087996173 2.727532420052638 1.3377737711724573
Ni 8.684645234773685 1.7427173532228044 9.945772924074955 -0.41830897125951827 -0.6351326719539191 0.5993544859130452
Ni 3.642021487547018 9.09419833888425 12.693402407933018 -0.8582134093016253 0.5332840766465332 -0.3248208321016858
Ni 3.7215691955809236 5.778778988948441 12.120464306420548 0.4758996251897933 -0.5658470981842191 -0.5548137231881929
Ni 2.656819664951092 -0.2549806093204146 7.836739528221346 0.5617443888697551 1.4275906321262897 -0.499646591097746
Ni 3.1342165882265745 7.293348904068668 0.4077426443903268 -0.5550317527362699 -1.1118702196639754 1.9202034563057058
Ni 5.585826223756865 3.4567975315534025 0.2451821762751715 0.4770779617686106 -0.14431704888424177 -0.9735122165766459
Ni 6.061286333271522 6.766323433902699 0.934580889226083 -0.5444110397976302 0.37733972793600823 0.04141327283946416
Ni 1.0210789917845513 5.50366842860718 12.463304321685609 2.5346842563372287 -1.587146352337157 -0.6195366172878749
Ni 1.1915186027371982 6.472988378364337 3.280273558514962 0.4294950697833248 0.9883130290349044 1.4935018901071182
Ni 6.348146897095126 1.0466264875821072 5.664505132475201 -1.7296276335642407 -0.909633415644814 0.8195728141112917
Ni 4.7913821107569134 1.2140594257441393 7.946415757743295 -0.16474806304508402 0.3997250376097438 -1.2285869903324456
Ni 3.8818728145185837 0.21404651163150043 10.043678859684684 -0.08419025879567436 0.23155972135299474 -0.024922474273292562
Ni 8.67946195223281 9.096273496485136 8.666233514246372 0.10751967755023419 -1.6502787620212673 -1.5679224711105384
Ni 8.457576878623568 1.870537838514619 0.31178827921769453 -0.9701011340125679 0.4463746191474828 0.030137957035961005
Ni 2.987221646702587 0.783815616914355 2.529800651639352 -0.6018029474535378 -0.3983399843367591 -0.9735261005337168
Ni 6.729191947230873 4.779936463722702 11.93842133645602 -0.5771972330897157 0.924485135945666 -1.4720864005458196
Ni 5.731031918282757 6.707398180960251 6.5813761655892025 0.7711417151930977 0.01929972876987644 -3.110391792255295
P 5.635288758039282 1.8474620859927833 10.155569512939842 0.3126476870742616 -0.28312010992878983 -1.1559530689158029
P 0.9137785871425496 1.5040742291210867 8.226203262170817 0.2925719993703091 -0.9195581309576937 2.3099101904474995
P 8.266311908280711 0.8205246937278683 4.787711387534015 -0.4940958364828459 -0.8263253023437769 -1.6320275291205635
P 4.431946368438377 5.19616696384678 0.8436751519233359 -1.6040850370740243 0.7248119788886227 -0.1650825635663673
P 8.718004546073239 5.086746209282808 10.751522495684524 -1.1352096657208641 -1.824237287921026 1.783138718108503
P 0.2632757059703502 4.684691341303438 4.618019755609954 -1.2369662155350762 -0.2538864098746531 -0.4320857133286365
P 5.036536618264074 5.424692541778851 10.2219422759388 -0.5818866681455849 0.1535000009350905 1.273233939617859
P 7.866922464953145 4.140668024655557 7.175047397265177 1.451242981437907 -0.13521328681076067 2.003468117963317
Ni 7.138920286872179 2.473209720424831 11.774102056987582 0.3301982943635152 -0.19470681419070338 0.27850575108523007
Ni 0.41992243606911833 6.2988503754207805 1.1198371254490453 -0.013952862635666294 0.1294686710174996 0.7210142024090873
Ni 8.508173832394467 6.694237070309307 12.649801963300035 -3.5488237595169334 0.10356969176355066 -1.5548859496415544
Ni 2.0055337576441588 4.52533768340085 2.2402276262583265 0.5413853655974289 -1.0307763404054378 -0.8537049799083104
Ni 0.6250070337415988 3.491724739706956 9.008802375584919 -0.1809483269540303 1.327079781793721 -0.7011136068304183
Ni 6.379661623860558 9.162079049739852 9.193114184526411 0.1789060997130209 -0.22132955898455434 0.7079247162149807
Ni 0.44980378322958803 0.8592480568526402 6.305746354701586 0.8691897058074708 -1.576407368653098 -0.2656929155912779
Ni 2.309991657923262 4.809569714263333 4.690683474162526 1.3200969227179846 -2.174574262015945 -0.19277025928962285
Ni 2.3294335789128824 4.352786023156636 10.426339765872319 1.4148150776281763 1.4111260588123633 -0.5941253763036219
Ni 1.3293367362039412 9.16192226005445 10.056056944200893 0.9668926543775993 0.13673358011002903 0.17597169967504533
Ni 5.962084577026572 4.768011224709619 2.487496027641587 -0.21748807375127707 0.7599419898225365 -0.5807998628393094
Ni 4.583442096225616 7.501906854418896 8.324595245805288 1.3695227814492803 1.2126219823627569 -0.22725903709511183
Ni 0.7528127623571407 4.970389816870545 6.721289747086705 -0.0659228279450542 -1.3590761321946594 -0.6045815386399395
Ni 0.5997814179452468 1.9984782218011514 2.234017832424213 0.34763603022398837 -0.1489236944183177 1.3234036184937144
Ni 1.8890205755464968 2.7458854291810546 6.892236618786234 1.649787681317462 1.2383345566375124 -0.7931976665518726
Ni 3.9914411358452853 8.896606443589365 4.244389935301367 1.0167622855145326 -2.7990828785971154 0.01877830904876766
Ni 4.912368410349815 3.579554632299059 8.925407786505106 -0.7355049398260946 -0.5875248402679687 -0.23893981586714974
Ni 2.411231680078414 1.551046574282441 11.531031007711709 -0.7536574423654052 0.25124974358275437 0.6920000745649244
Ni 2.9687204638253677 2.2816127248658327 9.359714292771288 -1.1443831046900161 -0.28837621612140657 -1.1349263301524906
Ni 8.228608600403307 8.4147179569733 0.6049720788242593 -1.0187770019517164 0.45199839309216344 1.2645664937508478
Ni 6.142374269391418 0.6075775544787032 1.0232011862910557 -0.15297343900765914 -0.4242911569848822 -1.3501094099196749
Ni 4.627029628766861 2.2148203188853635 2.0339136129938553 0.4090046631394568 1.226824242005068 -0.7083206661018189
Ni 6.001143654536554 4.171315796689954 6.277574015111978 -1.0398873015677703 -0.4104406242550351 0.5131019452717034
Ni 0.6262567397634649 6.836233187745831 10.449787202177781 1.1992604734541863 1.4887402070524167 0.5407963258631783
P 7.775440294983485 6.729708430900426 2.2754721029517486 0.5810353758888831 0.002557476314531079 0.5512496599860184
P 2.3019123776638186 7.495423139781465 11.650763912113678 2.7221423593853187 -0.9311820883498674 -0.6266359473368176
P 4.591041784506189 8.558106735733084 6.31489826086762 -0.29533362127584617 1.0711768557096715 0.40067454600720676
P 1.4659651126461766 8.666051822669761 1.633205291724393 -0.6164052707477449 -0.9667712983083868 -0.3304554046796438
P 0.13975679181210235 1.2182281867912497 11.929107106850985 0.20945440481352312 -1.062830283517189 0.40104349931085126
P 6.5225154731054475 7.700623946279596 12.54845311065737 0.41978195626061904 1.188043264582128 -1.057588061281643
P 3.963468011385362 2.077435662784139 -0.3184158714487861 0.03175775202757111 -2.177657271816643 1.4902892967070915
P 1.2008245317118316 7.730054292521474 5.441830576685357 0.30091857156279145 -0.6138596215077556 0.5407173929961268
