# total energy = -340897.73212371813 ev
CRYSTAL
PRIMVEC
9.02741603164910 0.00000000000000 0.00000000000000
0.00000000000000 9.02741603164910 0.00000000000000
0.00000000000000 0.00000000000000 13.21253586752004
PRIMCOORD
 96 1
Ni 6.2571096839162905 1.8624191197806421 11.41296217758806 1.1448554163407443 0.34470985771612894 -0.044746708088071324
Ni 4.668483065038802 0.19170891512841373 5.796353077752331 -0.23746785930731357 0.3403335830253042 0.31728621428753745
Ni 2.8602374688797707 1.5789943659689294 4.725819795238818 -0.1590209307533197 0.04459321322934256 0.7961613771658869
Ni 3.346869357622738 4.206116870595934 4.777798754022499 0.6535152882261649 -0.31855685346984497 0.5328253918425598
Ni 5.071241231407434 4.670234383749449 2.393199586639171 0.5783200338402492 -0.7028025644970669 0.27369573129109637
Ni 7.452565252253533 6.190821367976699 2.5348650209816492 -0.20802744255900946 -0.659194083778497 -0.2622206407719613
Ni 5.17989521079582 4.6570001918432204 11.634761275841877 -0.5504276783053553 -0.26595079723835485 -0.48039674172919844
Ni 5.647118155065122 7.880627265766203 12.30672421028505 -0.10135982859642545 0.5138527073947989 0.42032882990302445
Ni 1.7462543302517493 6.552586038133744 0.5339978379331402 0.2827339302339647 -0.14660378803588944 -0.4015507779645729
Ni 2.5676047507131097 1.614372809407205 0.3585337579583822 -0.12047263816647637 -1.3238612748564231 0.6001129613456245
Ni 0.36580173060756715 0.06301678036877445 4.879204621076976 0.5995285495970643 -0.5505441492785614 -0.06743617926578709
Ni 8.63964337851098 2.3038146267759183 1.2958864744600191 0.21391449746740576 0.19767335301819502 0.3327729970692269
Ni 6.8347018166204885 0.4438085353012349 4.589968919564009 -0.04619835293293334 0.3982985895758624 0.6077491377346437
Ni 0.7409982930819916 7.4354041343723996 2.745749973250044 0.3895175009491227 -0.41436438478947346 0.006609792007033779
Ni 7.536935482509753 3.8397301634293464 3.834964590504859 1.1849288873228625 0.09463819360187571 -0.6919126570574406
Ni 7.481768943124373 3.839305874875736 12.48371934001922 1.0335281921189619 -0.19437385633131685 0.034721205531269235
Ni 7.8114230944475445 8.782393908260776 6.932353181346315 0.12898787472633913 -0.09599445051945403 0.07542768211169591
Ni 6.761850569223988 0.6917501276486747 0.4040554060527555 0.3802862121588418 -0.09181640788236445 -0.300879747905056
Ni 1.9090276687655405 6.483878374696969 9.404630224220817 -0.13585709104234664 0.3511640979819049 -1.8231725941019374
Ni 0.08560879173612038 4.882171029985836 1.376706221989963 0.18608693373217627 -1.134357087912582 0.29529274073558176
Ni 6.4447174439403385 1.8559825721482128 6.843895337109782 -0.3664976430151817 0.06404437997541874 0.5844986518471353
Ni 3.2922534906154484 4.407012987022417 0.4514105223436875 0.8871059239662594 0.09853032956743031 -0.22072097886627795
Ni 5.996722895824015 5.527387536202696 4.823381788545907 -0.03471786309715956 -0.712651689377005 0.11017177046110058
Ni 5.160089060016649 2.7295475669517493 9.387374318471323 -0.3819062642607681 0.7012524464011277 -0.1789750052777434
P 0.1336409642296221 5.580215974835202 12.556018109554422 0.017191167067305876 -0.44929307834585847 -1.4695826602873594
P 3.971999863163364 6.234125882693057 12.644264712255755 -0.2864849126359647 -0.3445036552425938 0.3330882143168006
P 2.2128002183184816 8.483613519774782 1.4547130266836308 1.4122478311216324 -0.049850862083856085 0.41678302153329516
P 6.247721171240657 7.515080108290802 5.750518178321568 0.7017820936523527 1.034680046335218 0.2989856162061367
P 4.588121007501796 1.1112568589856742 12.577025809407756 -0.04715763152240911 -0.47328301350255264 -0.30725042731809016
P 4.07698871164184 6.361349256863922 8.16442214363532 -0.8797811081700718 -0.9766361069176083 -0.08994104523652251
P 4.658751510553867 1.1020579220467603 3.6528563323288834 1.0982760259193085 -0.8620474383357347 0.15010280232808343
P 0.3420641401454733 5.392599187395119 3.5606196117404076 -0.2683468082743572 0.6200135569242935 0.6027270019297039
Ni 1.519539803967275 0.9538277507641664 2.8617297007502347 0.05694710680900515 0.3819371174987035 -1.4369119095272156
Ni 1.8596928401382948 6.370855125948 4.859531173313508 0.09669661879280121 -0.050216215843074806 -0.6400409078888138
Ni 5.9726196950125345 5.705056111173021 9.126374568830323 -0.11814861801899007 0.3376925458580313 0.9202361308613249
Ni 8.765133488803265 2.383174641133122 10.132521611962662 -1.169178309356825 -0.07879094215697398 -0.034364593522798886
Ni 2.3990448385213563 5.231495920847666 6.987912413329185 -0.28710840515257646 0.09823953779988887 0.37039646384895564
Ni 0.8039338267064576 8.86727870123095 8.966740062871645 -0.8742532363733072 0.8598720279509707 0.11771127337125534
Ni 1.3740178574949597 1.0440477466105882 11.34404507809929 0.5500181015717623 -0.28506232125682524 -0.12965173356258317
Ni 4.029161461492316 6.859861225107979 1.5900357985204359 0.033405829153955374 0.3544872488178669 0.052694759290554415
Ni 5.586011575929198 7.993948419244303 7.915723151082606 -0.1379859644598914 0.2542119115348719 0.10974573866727551
Ni 5.40048012159303 2.9215968156646546 4.833924907732322 -0.8182659223744102 -0.4557457759497377 -0.40169193152812754
Ni 0.7616701730588498 7.463091219349483 6.734469513650466 0.0173505754633056 -0.5674645791829841 1.2234550684225187
Ni 5.129305571339812 4.537639697038198 7.141177174534088 0.23146587608760782 0.43721866367982765 -0.46758956266220114
Ni 8.15702868990326 7.2055209850598985 9.16585326463136 -0.1293542569268224 0.06804398805311508 0.09535193183944869
Ni 4.600109415995297 0.28509572851965487 10.377944555236542 -0.3813015407972336 0.31586696534250763 -0.18198885240340273
Ni 8.188805194343864 7.019808982403046 4.741820890159549 -0.0889758531097758 -0.011661495498328303 0.17824712597278333
Ni 7.326434195422814 6.0779696401323795 7.096189046727339 -0.3433474301509636 0.26667199167509553 -0.5715503192165834
Ni 2.5051530865880802 5.010865872970285 2.6044943835955214 -1.3762739841301845 0.9023481948373103 0.134144222116298
Ni 2.2434844054189407 5.310214988666437 11.443351168184197 0.19964590336353358 -0.6275252919203064 0.6835388311714485
Ni 1.2059363983530218 3.2895542932212036 3.7785477539987338 -1.0166568702849201 -0.04614358843559795 -0.22723255473255063
Ni 3.640477036721099 2.643236442248163 2.487458448419322 0.13872952749413528 0.19109210025625153 0.09887897115610067
Ni 1.2054128082230346 3.3862830560283292 8.226124532229507 -1.0794606929850183 0.4376135851254012 -0.35836164417160865
Ni 3.576039341068532 2.8859475497453513 7.299436805030748 -0.2658777779085743 -0.5385592090025434 -0.8067062425612688
Ni 4.114317076943515 6.806680717250137 5.913125412380329 -0.39634995048992383 0.07002039505319554 0.32199698949964545
Ni 0.7436063135742901 7.282127637526653 11.338997849794534 -0.07658365009301003 0.5969584748770429 0.2534997159591957
P 0.2655324152318041 5.587176112597619 7.995618491210642 0.5501875372700912 0.2587668778954059 0.35215757224342575
P 8.562206203769074 1.6264876017251855 7.918272493370682 -0.1509800627267142 -0.3347411765391912 0.6904286163127463
P 1.7423454591089136 3.286800931330754 10.389056401633118 0.8609737456555817 0.7040634334873616 0.41990202677825106
P 4.050818232558512 5.995215317346294 3.7829603549562814 -0.24075398625775313 0.6657514252810405 0.04248876529183005
P 6.746449797469536 3.915623650029393 10.348467333659864 0.8708421538092291 0.17688649817983085 -0.16119891224124494
P 6.25515976205289 7.791066271290282 10.167706868697804 0.4626995815597515 -0.1128688576772895 -0.34587045368313335
P 2.3693717220167345 8.565058867235901 5.745114367083458 0.455778428959886 -0.3902253256494247 -0.09570211609001583
P 7.01435642311835 4.013318346352184 1.4717179702673715 -0.4215871277901578 0.277046135820568 0.8093033138644836
Ni 5.468853770636537 2.764438529924175 0.477944806293196 -1.0955902515570293 1.1263727841555249 0.07260255395807497
Ni 1.6369232946607932 1.2257064394680572 7.008430827233461 -0.7033715496266596 0.09792252078010233 -0.2357678458970714
Ni 6.811501357412433 0.8399613413575968 9.182553984294746 0.351948027335781 -0.48452490496495904 -0.28086602378729053
Ni 2.7820510186070213 1.7703214213990937 9.338012407595977 0.28458949538546474 -1.3153640360186893 -0.06902589235041015
Ni 6.41610956252776 1.9633366036276654 2.6204160372551506 0.2688954816889756 0.28527186616447 -0.24047245046159232
Ni 4.09969266296801 6.885697689798039 10.573886425743423 0.16679954625747404 -0.2951410456490659 -0.9072299484096439
Ni 8.074093818796488 7.279130535403278 0.17459925351867558 -0.5886239868694185 -0.1398996365428365 0.694344663537701
Ni 7.504617333107092 3.8879817021324805 8.254729705417274 0.6233045689707395 -0.706307492326532 -0.18419331625388924
Ni 3.1674404365257316 8.343408721346648 12.562677634362899 -0.343526378930989 0.1952914830495798 -0.3117442014233857
Ni 0.06299962827830935 4.926802574859231 10.152565183783537 -0.17573670084610382 -0.45954200976737636 0.09058253547526335
Ni 8.594930586893277 2.1809695493816714 5.637986923746467 0.27005942009008976 1.2085524402790733 0.9337786454324498
Ni 3.539794265690967 2.9287736114118936 11.864500889239432 -0.056622633590050875 -0.43087369529840636 -1.9028009445585425
Ni 1.0735312873784901 3.3146144001323172 12.47846087017926 -1.015184656614768 0.4108437732307247 0.4929491244729123
Ni 2.9950619273514847 8.394503896100575 8.04031683896269 1.192222078550166 -0.10901940202421223 -0.5434990695063221
Ni 5.7301162180841345 7.52238328786252 3.5200179053847074 -1.0900459247000325 0.826549502539441 0.32661880454237296
Ni 3.1641364022571916 8.086732201244455 3.685875009215803 0.35125100126875636 1.007811504079148 -0.31058154857385223
Ni 3.376181377485989 4.5576895880502954 9.26457708638206 0.7160581439553926 -0.6373409924591475 0.40193592921813354
Ni 7.26115695007906 6.109989884805911 11.334941831770339 -0.02381972812741704 -0.12023378268279294 0.026879083779031126
Ni 0.5353835462943995 9.002184406446972 0.2524968264783287 0.0703330411976079 0.3215730145883494 0.1517159124514742
Ni 4.441208838960204 0.2992994649079639 1.4561935229132499 0.01044639214430459 -0.026618888139108995 0.7225946595223297
Ni 6.025538407805382 5.81710439899029 0.38222530859870135 0.1922799499167656 -0.287645251492653 0.4221717966490342
Ni 7.94152621433334 8.762325962416611 11.318545336027308 -0.25496884430555444 0.575416487040209 -0.32464573997640217
Ni 0.05176771724847966 4.8536534227336 5.870738985874656 0.18208321188942192 -1.0431672578706228 -0.35070412762635084
Ni 7.943277533043986 8.874572853386633 2.440078055363494 0.10789737260462709 -0.08686677718657299 -0.1724983964144642
P 8.614086763717982 1.6474492617567436 3.5358727561656833 -1.5117194415564095 -0.04294590743390668 -0.12396599603171554
P 1.744557176037308 3.226795696951009 1.4831331378426966 -0.1576785577928123 -0.05253663644613533 0.4630780479450928
P 4.638313440652296 1.0895188411751695 8.039695752739533 0.27793213796994715 -0.44092182356302767 -0.028725650069466657
P 8.509224299063986 1.5851059266241252 12.379578165906361 -0.9896870265642954 0.4428074706215148 -0.40773170996430425
P 6.222327049936276 7.829207104035042 1.4661949971376096 0.3886371552266984 -0.31110656783938684 -0.9900063575769272
P 1.7773628059058186 3.193665080105265 5.945733341837689 0.02334407404257915 0.27796093432535357 0.5125648418213109
P 6.945784170922091 3.8589224499181887 6.015548669221867 0.36540595261289976 0.5629350667437466 0.2230722527072739
P 2.462805477971354 8.449516969413372 10.289407269738907 -0.058290251100460905 0.4578635936236889 0.3836988373848166
