# total energy = -340861.383660289 ev
CRYSTAL
PRIMVEC
9.36268590134797 0.00000000000000 0.00000000000000
0.00000000000000 9.36268590134797 0.00000000000000
0.00000000000000 0.00000000000000 13.70323721141969
PRIMCOORD
 96 1
Ni 4.876124204865497 5.745590019807076 3.1772732965371047 -1.0050881916107142 1.7660799628540036 0.8396855257007667
Ni 7.726294284582137 2.7292135421273405 7.297178988579229 3.3188033576266003 -0.11331880073051451 0.2046544123217185
Ni 9.31143443784622 6.035636662579651 9.672594424190725 -1.2149385463110753 -1.152916081861692 -0.6071171605775996
Ni 6.085624041958029 8.769568998340013 4.843778934302005 -0.03798830631831523 -1.7884974113172551 0.4563070477698464
Ni 1.5951956777915945 4.125161903838907 9.10589726945932 -1.1726233304826321 0.0033709733547619366 -1.425801658546667
Ni 7.422681110114624 8.090212518157372 12.463724343648492 -0.12075905905864366 -0.2788762470507713 1.1686705164824713
Ni 0.3961661322066175 7.377955560144495 4.720134369625324 0.9525677531144949 1.124847862870566 0.592915929376553
Ni 3.706340880850896 1.6400054919337406 2.9514986828371557 0.7998308555976741 0.18124708914137172 0.42008148977890875
Ni 9.371954838726879 6.243759804778934 12.059479149882481 -0.4638570922029624 1.072337965897308 1.690680819987398
Ni 8.522571984782982 1.0080429271684714 2.9913069502357303 -1.1183491425200998 1.2489876654759844 -1.7790807459890456
Ni 5.912610971433015 3.4231758121264777 8.777882127043902 -1.3381450384689468 1.1373799338993058 -0.5514311798692052
Ni 0.14411607713422447 3.416284875392541 2.2274063537300286 0.6870118773217135 -0.037144213150465066 -0.5072362305195458
Ni 4.4901100328499215 1.3697141161565538 10.902720258056167 0.16661648371239046 1.928515832826143 0.04790787942487233
Ni 5.27805494270674 7.947712440588742 9.422359793891037 -1.171407198687344 0.1781766777461641 -0.582574695351545
Ni 4.043556734582128 4.251324094721778 10.803002036889778 1.103854034227718 0.7040567486191422 0.6156455097635849
Ni 3.6374127881399727 8.909541150748096 4.414415527125933 -0.7578501402905142 2.1866749019342215 2.17926266863055
Ni 3.473856030252561 2.426883055611661 12.864010057598223 0.8152680160883508 -0.11163138572576257 -0.5747793676768423
Ni 3.798656962639772 0.365387238974087 0.9628904387267844 0.48343501433489 -0.2150722652209328 -1.1643304943462205
Ni 4.909389827441143 6.36823671222144 11.089125714320616 0.16391014052482095 -0.19472172658903883 -0.30525807947840977
Ni 6.100370272061222 9.029168186956662 7.171342619161496 0.8100443057955662 -0.9137826619264973 -0.16388828614795
Ni 3.5713684026492287 3.3103086350509296 7.700561878984921 0.2721422707610474 -0.4302936544252202 -0.275064586614165
Ni 2.193901982666997 7.813282998162303 2.9784398111685446 0.298488364854744 -0.8171271807842766 -0.18359707743078704
Ni 5.8032735268964535 0.9324701363596204 13.04534468324433 -0.22586087119600456 0.07659239184375842 -0.3925686290706206
Ni 7.539190371958516 7.821700052678349 10.171748227438039 1.2772518025280004 0.5103380093733211 -0.36152590083220315
P 4.73202310802852 1.680489745245617 4.961449169182592 -0.2543072994621556 -0.4327876244916675 0.07938538120786327
P 8.96499633862188 3.8418657575135713 10.468766326042259 0.29425530061000293 0.297914494629145 0.45031509185246965
P 5.692082270575491 5.87398052990554 5.166901137128897 -0.738226966742948 0.5319638151732129 -0.010603229437143029
P 6.692635049120119 5.227140657436161 13.098636154434402 -0.5346225929522986 1.1779779099263261 0.35956003535508396
P 4.993288854713974 8.810877168000513 11.414385418311038 0.755882217930866 -2.057510906641334 1.2061615714493936
P 9.334054686690228 0.2673758354253556 4.871061800664356 0.1836004198648967 -0.06505790884159762 -0.49447970218482584
P 8.018044936166635 8.191956824526512 7.968665195095366 0.414863178802763 0.19262653462290696 0.9398585330779426
P 4.838692187117837 5.929613608809141 8.720931718251082 -1.5216603548192051 -1.8630198080058624 1.2491691853591713
Ni 1.1503089375926063 8.409826522622572 8.772688645241844 -2.1647377355414976 3.333072723061421 -1.2539730345057178
Ni 4.714645963221202 7.035112732259601 6.833489166528659 -0.047693192310904964 0.2134784383712517 0.1032814710991705
Ni 3.6863140959678935 3.8110157078691143 1.2250119348925135 -0.9010508161821257 -0.7853948826780022 1.035517711745165
Ni 1.4876839569820952 1.6536001116860173 8.602632310886092 1.0471367840413321 -0.6626936122913233 0.4773666966536231
Ni 8.214876679315473 2.013773270949331 12.220300130985034 -0.11876542566738256 -0.002454889298395772 0.6032206537366709
Ni 8.87817615338575 0.5756609900969907 7.042970834434592 -0.7296453957215241 0.33543897393716426 0.6033121850092126
Ni 1.5193766483467348 8.76786498952809 0.951246066422441 -0.8824871942473254 1.8018964583319805 -0.8991703113299612
Ni 1.407267848819351 1.0520662757051138 2.9174053988385746 0.3353070763449903 -1.1878419472045996 0.6026676094466782
Ni 2.30985884604988 4.568035666595238 5.884677398408968 -1.6993873466224607 0.26245769648343187 0.47179023100711004
Ni 5.711388128653449 3.4129236711975914 13.438504457047053 -0.8450192792088544 -0.19187165873475343 -0.7587358853295771
Ni 9.396204194896573 2.881638066622564 5.442048938020068 -1.717663519223829 0.26164651343604617 -0.7364241092062542
Ni 3.7206377020366586 0.36516440705252756 6.8660619503566 2.5292538293502766 0.333884999186483 0.1974445248368406
Ni 0.29454728582692735 0.07005536007881198 12.21305153965431 0.6860927079415539 -0.37004499404680785 0.8119356092810082
Ni 2.926363616592692 7.50351853913746 11.867058168004512 -1.2032945343142438 0.9606502730123131 -0.4878436849255469
Ni 9.177304601364735 0.7856332627377847 9.965528519257791 -1.0315152754539911 -0.2550140957211931 0.3454691044796567
Ni 3.0100098513494684 6.724365191227878 5.122900259038126 0.1832980581331295 0.9479338538869094 0.919304877296307
Ni 9.03310051498418 8.18091821799212 2.747073801520896 2.210238291076458 -0.4176263433701969 -1.4570847849306647
Ni 7.042106658537115 9.2001308292959 1.0550576538117615 1.0823405856359745 -0.02987004808655501 -0.3989269671884807
Ni 6.653367944959617 4.141499790524667 5.888774509706209 0.1873696570993418 0.07763266018281469 -0.7068937038473051
Ni 8.512787978143084 4.854842820088 7.6814591911883845 0.4133230880091527 -0.26117008802025987 -0.8200980904871424
Ni 2.2747394116898323 5.44408344964002 3.429769951721194 -0.23251077241235438 -1.8391162619153874 -0.6780436123848322
Ni 1.8673595907247424 2.058966955208449 0.7811747517694416 -0.9869413454983584 0.388876267820698 0.15588289934497024
Ni 5.952299396453608 3.8177193908874547 3.112279404390855 0.28665949054061596 -1.8901038087068482 -0.23810575000162862
Ni 7.246625166711173 6.8794206304272265 6.44324867815208 0.5693034321639356 -0.31018122781164 -2.173139843562264
P 0.4952804601402098 7.829021672958155 10.706791077816504 0.1828530001759109 1.1056602341985216 0.6030224216829356
P 2.225660212832095 3.1336441170717917 2.9453605060399157 -0.7522605620178786 1.9982672904886685 -0.5256448149337206
P 2.6280497222765486 7.841464682359516 7.20799847025801 0.19681306190042877 -0.695034490515874 -0.41808682794638313
P 1.5044993406426248 4.230248689031438 13.202781053437484 1.1579937534949154 -0.2835911360279374 0.291582124653214
P 4.47722697721691 1.3021623382552616 8.662145286776845 1.7316379791260499 0.7604235574446453 -1.2037755877157204
P 7.052967374041689 8.050720709538155 2.855193160637505 -3.3667405476275114 -0.3534222978884623 1.5949573637411434
P 5.333341602236487 2.2388335117242804 1.549014230182707 -0.31359668125109214 -0.20010741638098442 -1.2440107810866834
P 0.2937701829072035 5.466422817910635 5.5083451797582885 0.13908716794387013 -1.366305560063563 1.2790168648482232
Ni 4.830162780372435 7.216608396101119 13.269543556927538 1.6402717714072268 2.8771495409935546 -2.3730500563307775
Ni 6.396390308361313 3.152350763259842 11.083781493277503 0.02431235149311942 -0.07140801942934154 0.6998766490995237
Ni 6.865657482330913 6.270134490620644 8.526181300151094 0.40166596338619853 -1.187957132626225 1.3726620984092102
Ni 6.526157133269408 0.4684348312037754 9.29171287651964 0.7076362384402844 1.8072338113844941 0.7318670859631912
Ni 5.904381170632567 0.7731911896050019 3.0707034619170535 0.6461850731133387 1.7138899111140093 -0.7678663868759357
Ni 0.3130657420308034 5.889213619669283 2.083138601086171 -0.9832782948244742 -0.6258065094569867 1.521809735912876
Ni 7.165160437741091 5.614484330832469 11.093154478011666 0.7315338709934885 -0.7668245758749827 -0.45320784001923237
Ni 0.6098170040902968 6.743586785133816 7.315733022989069 -0.24049096240435355 -0.5635703863349003 -1.356566221288612
Ni 7.181376609511712 5.313811039699814 1.6496640385841874 1.1457437324829687 0.4967463867318155 -0.4331547780230992
Ni 7.364697997080293 1.4403649430509613 4.842312737708887 -0.30540488946891914 1.0193899529453672 2.140063372723269
Ni 3.1749241986749515 9.256587824548124 9.548429294184688 -0.15770426882442515 -0.8963402980803337 0.2635882105434492
Ni 2.2591130891233377 2.216924826999537 4.9175980940642985 1.6400048908990854 0.13798287913609786 0.5553464557632113
Ni 4.213058797939715 4.139739605598064 4.819674699761897 0.9345767158537129 -0.9258056545293024 -0.08218402699892298
Ni 2.190475239671588 6.5878197818152024 9.319228873757908 2.9786500089329024 -1.1523383549813508 0.33596887829870525
Ni 5.921842579611903 1.8833791460939886 6.768782708835849 -3.7206891503330892 -0.2673682464111718 -0.571499668484306
Ni 7.493116595236096 2.749174788209884 1.0996530624495502 -0.04039485887727882 -1.3307986254062047 0.8560212867463128
Ni 1.619838266764041 6.589327174225752 0.4056964100618809 0.6789231867763081 -1.7614185528225925 -1.585529128448708
Ni 1.2942321433997668 2.423774643932766 11.727120657533813 -0.2724999112107823 0.37672060629477055 -0.7125033367245986
Ni 1.7665328275620238 5.062965962287283 11.169069943120057 0.755356427334383 -0.1705081054573128 1.2759338550475252
Ni 1.6916594293809242 0.3229330765741398 6.207525274542511 -2.1068454912104038 -0.8997423817833471 -0.39513381869463565
Ni 7.967149376267616 5.764296665995126 4.237849317347482 -0.9802688185741893 -0.4863316191563948 -1.224659116032949
Ni 4.7411798147211694 8.187172492093032 2.719681391734921 1.0940416761229868 -1.4928861108999902 -1.568731597275395
Ni 4.969282928374555 5.648367890669582 0.937672980847458 0.42739087895612843 -1.49003835703855 0.29609106826716103
Ni 8.723766739505209 4.2524663423869145 13.344376695559784 -0.2991658505377428 -0.21755646509536725 0.23018546671328746
P 7.941926300776823 3.31989602528945 3.67093307576883 0.11517899386770486 0.2957164585365617 0.3218272966910006
P 9.118609924211139 1.147546945287564 0.7754756849352743 -0.23261567342133485 0.2680801848765319 -0.3755047316097984
P 7.680220507859716 2.371811737854849 9.329012880397803 0.7614905652565789 -0.14264943137383174 1.6663730964799688
P 3.50460309035344 7.403880837068775 1.1288534068596054 -1.1802906172199028 0.15579805294064783 0.9885338867964587
P 3.0913622280901927 2.795145575388726 9.842500955574 -1.371995925580121 -1.395503521783758 -0.1473190689353592
P 2.5120834962078855 0.3904024628405696 12.69096515394156 -0.20794593858879673 0.36289244216242666 0.3352407418834291
P 1.4058540832666007 2.917469065101877 6.968794956344087 0.7326628423916091 0.23635508585910908 0.6954358397193507
P 8.64888397863833 7.1164557463145455 0.7004768267647253 -0.3835741388814942 0.5700909610622376 -1.4566538680408332
