# total energy = -340872.12676375563 ev
CRYSTAL
PRIMVEC
9.24767601396054 0.00000000000000 0.00000000000000
0.00000000000000 9.24767601396054 0.00000000000000
0.00000000000000 0.00000000000000 13.53490861584806
PRIMCOORD
 96 1
Ni 5.496208263548144 8.282551535552745 4.199449198377139 -0.4315362685830697 -0.14299884429345047 -0.1583640138956111
Ni 3.6384056426359286 1.1922011413251863 7.726227068870697 -1.26444282368879 -1.4009452616246194 1.0622415008932546
Ni 0.14992517273165462 3.778905583995647 10.305303103614637 -0.2157008999438672 2.006213027698306 -1.4851836000494099
Ni 6.548529057805133 0.7687685529635201 5.398669325780917 2.115684686768589 -1.2848195875729294 0.25013285636949184
Ni 9.04280297892683 6.460102779961283 2.887279805931611 -0.8392610365688385 0.14949602198201997 1.0004596916997675
Ni 4.991562584617068 8.404223208590974 6.714207646590649 -0.26853475591544723 -0.3483901347811936 0.5926297655947019
Ni 6.481945790656448 7.597400468916783 8.818019718568067 -0.050974691275654155 0.5894341414755396 0.2998842167610061
Ni 8.12271470369193 8.277243369532837 1.8433734720605361 -1.374522805767033 0.47865687621995634 0.23075470895319616
Ni 5.225991171036397 2.1763480681627168 6.447692398778848 0.16424309838420745 2.232880453956006 0.23959364740106473
Ni 4.874570235631233 6.082890076211996 7.692145683766564 0.0811571283963054 -0.029191533962291658 0.6511169631973174
Ni 2.2481377768953896 2.902586559235014 1.3598383878859903 0.19758799239324037 -0.05920067872987224 0.37189953075704335
Ni 2.8903888746004154 1.0456902105701003 2.878333604176106 -0.5852463286464373 -0.28311753882562857 -0.11683786962736654
Ni 2.769928647117252 0.7693659528326596 10.466923812174478 -0.16996354580775244 -0.39910103087249976 -0.33402718119130215
Ni 3.4942806122870036 6.721608561687744 0.2882297158106651 -1.727055244851374 -0.19731005614150535 -0.0915533840289649
Ni 1.1986467714922187 7.256716085339344 6.126224685914599 0.5931167325334495 1.0455619833550445 0.3112883448328897
Ni 3.9873112101710317 7.85837913311165 9.291146543412633 0.12702972255870382 -0.048655556224174265 -0.45525572368719663
Ni 6.760032655438131 0.708130616710653 11.49054166968479 -0.31333597139053776 -0.1310694398457162 -0.7284778577759842
Ni 1.016245610208793 3.958643414593125 12.6287326841412 -0.28769693066619484 0.39122059968315853 0.8480171854949137
Ni 8.73092510606719 0.14148296931776091 6.894235854214302 -0.015917699671520975 -0.2833939324154668 0.03330607035129748
Ni 8.699205577411636 3.8854758021375146 3.311951582876322 0.9144141248629091 0.2972030703844172 -0.4358991735374558
Ni 6.613198056023294 0.7256013261963885 0.7560354278889333 -1.2657682273684328 -0.3126744265471389 -0.06758967412451584
Ni 9.024529571164914 8.897928886822482 12.042224727786014 0.7853262342235959 -1.4765148686308183 0.33350987523525144
Ni 4.457851460040392 3.6637627702083857 2.813839387034211 -0.7340867193223293 -0.8215710754882432 1.2361475762885228
Ni 6.406457011526627 3.2207898424737795 13.164755727716095 -0.05036585404706164 0.16055845044376865 -0.3484009334144709
P 4.983748298403091 0.3255755305402832 10.020407174999404 0.8296204281552808 1.1411082905934864 0.35311710794321766
P 5.012915468484612 6.082085528400617 10.281157421597246 0.42662494732438144 0.25906718274464413 0.5599880683002807
P 2.337572051422464 8.197898309513986 2.2562553868819335 1.3344346794968955 -0.5795289665466857 0.5662348205409409
P 1.2597831574811014 2.5925397262219634 3.2383215866210677 -0.2435631735717741 -1.0344409337412186 0.7661440048681902
P 4.597112212817065 4.1858958044419845 5.154256023592082 1.1937161465971893 0.8215811027905721 0.15944490566461572
P 6.2923221944225896 6.576281333459746 3.1612264861712838 0.9306365002590424 -0.7559986889040722 -1.1899021721677379
P 1.119875067384927 6.116653341261975 12.092371175624967 1.0833165763959989 -0.9117494335465524 1.6818686210124068
P 4.734181266383429 1.8788595791479874 1.1015165810038756 0.3963352952019045 2.547861931369767 0.6638421240734697
Ni 0.05988887449744443 6.450411215520753 10.417521802252953 -1.933735686464186 -0.2628809000637795 -0.651060141817453
Ni 6.37144531021761 4.4666275045576285 7.204090335566701 -0.583944064895246 -1.581999775139211 0.9711347174834049
Ni 6.723291638718448 3.2126981259800154 4.481462626385395 -1.3989989365315263 0.7033851764734144 0.3148758050738319
Ni 2.8688880279169853 7.278984489130182 11.311326332780908 -0.4662613307690809 2.5935319226030558 0.917562954904536
Ni 0.9433184373289968 -0.03914911154822829 0.9432046909142845 0.21331234510703262 -1.4096980681165852 -0.047825089903078925
Ni 1.5011290055430995 1.65785861827031 13.138538566276301 1.0147604245931556 -0.254354093539691 -1.2532523542896092
Ni 3.526536506150144 6.18845229767064 5.58907804970657 -0.0539725975617135 -1.493693180182318 1.3588910127670468
Ni 6.8579470488506695 7.405575925796619 11.264698625657243 1.4970214732246023 0.05760788032145563 -1.378479990642568
Ni 5.587510568625779 6.144923486772188 12.642930641093058 -0.27368210444434155 -1.743026680578966 0.3823284393998512
Ni 8.105837695004936 5.012749010316739 11.892366138321508 -1.0385922369054308 -0.179906001732445 1.2710675280941595
Ni 2.219442238289505 2.8858945040678785 9.074872069734914 -0.6591146366908133 0.03640939186696955 0.4520025068572216
Ni 8.617372892550703 1.4337596859350201 1.967461562835703 0.36225403724747934 1.3366867087558656 0.8486566188511255
Ni 0.8293019904776678 5.209317611221247 1.2909163834787076 0.544282741749882 -1.531927026852536 -1.2156525416589645
Ni 1.3278368051126535 3.7630365719918766 5.072518589793876 -0.653645643156442 1.0175732114516025 -0.9615025937102796
Ni 8.371236748324398 1.659541695301013 12.94015742087719 -0.16094514435922602 1.888334632621567 1.6734721694185952
Ni 0.36671381719457846 1.7052991961137483 10.981101070751409 -0.2371269310281271 -1.840984682582694 -1.048230788436459
Ni 9.032843231882506 1.514260705452979 4.7207055529266135 -0.2243531763022265 0.6161957258401001 -1.1568364999620206
Ni 1.8642482510792482 5.379178923858337 3.414884690050193 0.7758764016646057 0.06820545333164384 0.6524274544786247
Ni 8.8572945985098 6.99339775911828 8.136930231228174 -0.4896218598718922 0.2590856946874054 -0.4728487541786115
Ni 5.210177645088584 3.898163613599736 10.994365937195585 0.2653645857175817 1.4266953740055301 0.36620993657143386
Ni 5.11343770652714 1.492131016802034 3.591109328537979 0.23716524046523024 -0.24245785632273728 -0.490623047442897
Ni 5.405507057410047 7.434696857498176 1.2474597044529991 1.5227240201970291 1.6975628918192118 0.36693807298671
Ni 1.4232543260071167 5.1433724337160704 7.395135299600666 -1.5547427391954707 -0.5340389525346867 -0.6843888378765698
Ni 4.016108473212838 3.7920280362295338 13.331208346982212 -0.26594848324550974 -0.8204678151217354 0.3226127687067734
P 8.498947153785972 8.48310588481018 9.964764833317885 -0.9273722276854738 0.01847183355194238 -0.565537280253284
P 7.087076716926083 7.863428364203759 6.766669712498215 0.8021811009974056 0.01900276635474792 -0.8038078379675513
P 3.9215509861857116 0.5419027159711627 5.457491943236382 0.18354154160250327 0.6522006831797993 -0.22374819572837598
P 2.2093345284292947 2.800732655849512 11.322479030028314 1.7451691808432654 0.16097265516305181 -0.45819603726244307
P 4.328948104375736 3.228835320587579 8.457368677754417 1.0019817847712487 0.29552825378515557 0.22218162257220445
P 2.859742076360034 6.745874463493043 7.832989638673217 -1.3557059301708458 0.300567873091592 -1.9281363379995373
P 7.793044302222002 2.44169163542622 6.198351934821011 -0.7541829758515721 -1.8884896701421927 1.6509932715897888
P 3.060462883785341 4.855288831186093 1.6325532776834124 0.16894101808050904 1.521515858821541 -0.6345924831797328
Ni 8.039467124404087 8.042000987626134 4.6565904905004265 0.04229541833410135 -0.13751725235358897 0.029323688664781754
Ni 6.74223087915185 3.1457541994676084 2.0979915847075055 -0.6516430109041165 -0.6350120872156547 -0.37623312513539076
Ni 6.577760961618606 0.7499042187056586 8.312206982926691 -1.5125931024106143 -2.6001908226804704 -1.563574735664804
Ni 3.6699679607996036 0.18134877575543687 0.6291943039706882 -0.6455361266754301 -1.2041286001797649 0.2719982889840154
Ni 4.454771983934765 1.7571786584337652 11.686324218129904 0.5000831644145324 0.3290564674495881 1.243010621956943
Ni 4.045756522445989 6.424138568025 3.335678345171236 0.6279754920838475 -0.9348037442628546 -1.896356731595095
Ni 8.40848638722369 1.975266601373688 8.514512842017176 1.0718098613079798 1.2417680077990938 0.5181459354535142
Ni 1.6649330904048578 0.5047048640574305 5.882988612879657 1.071374316432458 0.20916129905313652 -0.021780586210201198
Ni 5.283659678527953 5.131174749081471 1.327384593756602 -0.6333953775478383 0.09011382336896094 -0.06097139747704983
Ni 3.0523249289116134 8.116185844440961 4.454365086191079 -1.4137686386415327 1.3373510818127419 -0.5160461155016919
Ni 8.97208600060933 6.906349384997367 0.10390226361792389 1.2104918233936315 0.7750780741330264 -1.316246695733959
Ni 2.146219139777937 5.738885776953116 9.556647321168017 -0.02789209842457777 -0.5785604319858294 0.34832071499583883
Ni 6.214059112494906 2.516237151604769 9.513673370829137 -0.49215259671354594 0.4881090227717916 -0.5269295951834151
Ni 0.7597428211944762 2.6599275411820287 6.879766940355854 -1.1247501609504371 -1.1945350429540589 1.2727534004370145
Ni 1.4340371162148065 8.283023167028382 9.76971377604381 -0.6953566497419831 0.5523850591420423 -1.7575762962583665
Ni 7.025820111149293 5.425010406079015 9.583621867271626 0.36916233433153844 -0.9668728568832574 -0.10077567395818127
Ni 3.3621498177008347 5.256388282024971 11.613303643722578 -0.2322778304659419 -2.592169495037891 0.33771697133806355
Ni 0.693449006304368 9.046317095804122 3.411256826758189 0.3256795805575552 -0.8112504102885255 -0.0007191375542116647
Ni 4.873331047048187 8.377349462155687 12.234582861810967 -0.41223602559256106 1.0727601410363912 0.10153517783202513
Ni 3.3042593659854504 2.5538474498677832 4.789746852354204 -0.9880060393174469 -1.2311622072587893 -1.6046632781749977
Ni 6.311834790767551 6.182154630319494 5.3633968400089005 -0.3563944931429088 -0.2522650722211462 0.28043253579429767
Ni 8.234537601797749 4.466775467373514 5.9808049809266715 1.5498221619654018 1.4411745414583117 -0.021152722818215182
Ni 2.9348609484501407 3.403033793265326 6.790274405470025 1.5670909763481786 1.44703357134225 0.9975782563869143
Ni 7.432052022164215 5.524885306802044 1.0113092007637972 0.49590126512270083 -0.3077721041495151 0.5966370869818821
P 8.466700507598825 3.5965414134161926 0.8097533281963337 0.22209574772661753 -0.25511436874448323 -0.42130044978767445
P 6.9218207469334425 0.4502591716493911 3.126103812750353 1.2705597352198055 0.04972462091863695 0.21787245367388927
P 1.3706442972836625 0.8278593530227796 8.15494470406229 0.1379247722046528 -0.0315237816398941 0.21985888797629877
P 7.454782809754696 2.8790142331291815 11.165771611723487 0.6991009472757638 0.7164445807605339 0.9297808371269666
P 8.502433527635286 4.288138110219188 8.276393508109091 0.36043163932675987 0.6374687762862634 -0.006847876159768851
P 2.2243897449456917 8.826805010761296 12.663571453909151 -0.28254238304844886 0.4580769951860756 -0.9115913107021333
P 7.10882725086132 8.014951535346981 13.337461625488594 -0.46167448272934686 0.01173348638684431 -0.18757945911730273
P 0.29501288615143745 5.793650514182909 4.9179224159182215 -0.22948047022646284 0.369659328572615 -0.6713857407486824
