# total energy = -340858.852309604 ev
CRYSTAL
PRIMVEC
9.43945776018274 0.00000000000000 0.00000000000000

0.00000000000000 9.43945776018274 0.00000000000000

0.00000000000000 0.00000000000000 13.81560058703650

PRIMCOORD
 96 1
Ni 7.2518067803350865 3.2775402018728523 5.426657417945682 0.27223200226137634 0.40150038434261176 1.177304023787753
Ni 7.752994789615851 4.853306642051308 7.244513855276789 0.2971868724345011 -0.11466065947038964 -0.17292725642176668
Ni 3.8154854596353815 5.331122553940996 11.314548452350154 -0.5004518606078607 -0.36870982017515214 -0.876665959579858
Ni 7.8074887792114405 2.087554960513411 1.294038272038483 -0.4137262369848423 -0.6768740175567632 1.1506841072073795
Ni 8.444217962336493 8.390639600142734 10.335961755212288 0.9971437399526569 -0.991349501868383 1.4219023234922608
Ni 7.069162712314114 7.599008915326424 8.40506592342334 0.6111501929963926 -3.4227222051994537 -0.021801669256123743
Ni 8.890543843169386 0.7239393893392734 2.9092616456154428 -0.3878200586420418 0.6609066955942295 0.3800908083185841
Ni 4.115716852858547 5.9168503468382685 2.796457293655599 -0.21243842714251157 0.013032664814242069 -0.7954995752121718
Ni 9.281799927483885 3.7174566908929245 10.57872950543145 0.007596067179703047 -0.4073301036505114 0.8941052381022279
Ni 6.134448726910596 7.286468469196166 1.8840194845982838 -1.9101599560267748 1.0595469847802268 1.951062864888724
Ni 8.151047283510955 1.4470027969992691 10.450506743181387 -0.777110788292339 -0.49241407790504876 1.6096597029483246
Ni 8.063581267991685 5.060870878534493 12.39937719041948 -1.553167424288551 -0.21044916462662466 1.424239713376186
Ni 5.543283806348841 2.6691765892890693 1.115692933077243 -0.2540676726475238 0.12083722059474673 0.13464687278432938
Ni 3.7898950896728585 7.772270162343063 10.677303874831905 0.410018706226268 -0.07482630108227113 -0.6283724704119501
Ni 3.690138900161999 1.1844725980329518 7.431550102989226 0.10944234849424378 -1.168274566595633 -0.11288197030341204
Ni 5.905107661396227 4.287052450494015 3.3123321552508926 -0.9580246624640082 -2.338729942892669 -1.616912527855996
Ni 1.3951140977429104 9.083089902370986 2.240572346437602 1.3863210839535414 0.7051602660959662 -0.4040863999022331
Ni 6.242417244664685 1.8730149647523562 8.014278036213282 -0.2813941283766186 0.5162808572203174 -0.1621453353149143
Ni 0.00033038102127934356 9.245722319960182 0.1408612522326609 -0.4335854378026146 0.8797757088534331 0.7234485228821927
Ni 1.4011364717879453 8.091673094258182 11.418027563997944 0.9158727116863065 0.5795238243403632 0.2474797350173609
Ni 4.012958915782921 7.714566757112188 4.475273350154182 0.22138020971683162 0.22200807310881768 0.9112827783227788
Ni 7.383411700297276 7.806743062049125 13.973374676215428 0.21371986495809642 -1.2931962416723985 -1.928585252611498
Ni 1.8763187749651498 6.458920647637915 9.754878175528429 0.05064404740911278 -0.10031878892642078 -0.9155235558770038
Ni 1.5725664640009211 7.231077731114245 0.40119111359725773 -1.53876127616555 1.7300055857289494 -0.6867974473180624
P 7.1935558865546625 3.823792182456119 9.113723774609781 0.4980193399069682 -1.3470094308381124 -1.0216872336199758
P 0.4162546002760456 2.1445598458707242 0.35492172353997326 1.5940011704754613 -0.9768104277119434 -0.15899162017728102
P 4.218087772166389 3.2350343236208277 7.387132734542655 -0.15993547214778908 0.5337916124105709 0.23142011045133692
P 0.9046596958706244 5.15451029942281 3.2125967325470843 -1.0879144801793263 -1.9921506360679693 -0.4861714394294466
P 6.012915708368551 3.790404820391404 13.092795981012967 1.0560389716269685 0.5629895741307659 -0.028146380527228947
P 5.606141155511673 6.634305772648491 10.069528340465999 -0.09620450964773108 0.0632023436900976 -0.6897701567931411
P 2.8146291937717383 9.52167542784819 12.767120529422417 -0.13579281346331454 -2.1892267218217976 -0.38547161301452326
P 2.5913293812179052 5.629135674592715 13.105976295870464 -0.9982215463978679 3.61751849378017 -1.870073115308218
Ni 6.456891164221484 7.325887644763666 5.5855367071331425 0.3125193890265134 -0.4607956796688193 0.43412588368711685
Ni 2.002061791664068 2.330479405731237 10.561570459131977 -0.11720502315879815 0.46686322601913793 2.2736280681870134
Ni 6.152742396031721 4.1767240683022155 10.852748468426311 0.50406143233599 2.2189335048576107 0.0436061667257249
Ni 5.460556398620493 4.927047686000857 6.675241869076552 -0.24579643377766697 0.20868513074766643 -0.1277501456644961
Ni 3.4098058838776004 1.255598912185519 1.5049610675894167 -1.0655052592461909 -0.03521100068349419 -1.074981317057426
Ni 5.843968293544046 5.459008327549355 0.7428022577627738 0.22101434173698067 -2.2310770821986803 -1.0898422933296588
Ni 4.771759166541814 8.695609601156821 12.55868503098883 0.4394002447121787 0.1432963209292113 -0.7680232241687741
Ni 1.3388549295479135 4.05572909885197 12.852224792612425 -1.8942013758149896 -1.5343441209344608 -0.6671732453292316
Ni 1.3596122971420073 2.534371693149346 2.3998801870069513 1.6681579562945335 -0.5164968298858653 -1.0992499597968035
Ni 0.24339358626804258 8.165801155975515 4.309071873589396 -1.2061983382246 1.1679745188567112 -0.7029177499186926
Ni 0.9289936740065108 5.278629729388584 5.359223819665242 2.28774959519006 -1.8087672173098852 -0.7867369985281935
Ni 2.1460040829066025 2.4522200923438 5.7473035264465855 -1.0681074727557283 0.05411837911095841 -0.39324457209172275
Ni 3.8436433621061323 6.830221718267142 0.5789597016899217 1.4236069648881935 0.8437262714290438 -0.1474432532180493
Ni 4.442879019044855 3.058053930250358 5.331605854177839 1.0939920538319738 -0.26199901167945844 -1.1146017596625255
Ni 4.143053522504975 3.1881674158879147 9.546856125344327 0.3024625190111436 2.6545385441934153 -0.712047994354735
Ni 3.2725089708916557 6.147144797585473 6.554425305377797 -1.549494089202022 1.6031936356080068 -3.83634456961658
Ni 3.8231880571600656 1.1729092622881747 10.034173795406009 1.1881723339608246 -4.577525733891846 0.3103046407633817
Ni 1.812111583343947 6.993175077419865 3.1938763999356214 1.1848388987122176 0.232116108077097 -0.6578799929527638
Ni 9.242097568183858 3.033511340098179 3.909192844619504 -0.6507230701930083 0.25927209966659864 1.501245538608279
Ni 2.7829503735599244 4.252485156210445 4.044033610698681 0.27676742823788464 -0.28329828737786694 -0.9272161617235837
Ni 8.000487932385083 9.376336096858532 6.0530702176948425 2.271979991060629 -0.4798586098375413 -1.0147586248209426
Ni 8.235162291528676 2.6693276206130827 12.932299712712789 -0.652021734399774 0.2069758613660435 -2.288035244751279
Ni 2.519863246586308 8.59955367908429 8.84669567402519 -0.06658540122971758 0.5421932062107049 -1.018932296582658
Ni 0.4606351548373874 5.867236556899863 11.455564511689929 0.8030290508199976 0.6484432730198961 0.2638864585101584
P 0.9539610397574783 0.8955175810389375 4.478202413894267 0.802929549127656 0.06119791166555912 -0.21504809685121673
P 4.0656499689481 8.314066718867933 2.344825493620961 -0.6407705869659869 -0.3311987106035716 -0.37815888140319387
P 1.0873783356078282 0.5644899569036615 9.83974739622044 -0.5388826537802331 -0.8191930621743698 -1.350229737547623
P 9.25989094604419 7.661715233165244 8.420525867327664 0.5470104250936901 -0.5533808473964082 0.1469470303079211
P 8.620650867157414 6.13945163951854 5.663843616796773 -3.338588767783644 2.0103651021934668 0.057170278563404765
P 6.055025129395042 0.14718002525107216 6.360674771367188 -2.1541825857334707 -0.0779087966623368 1.2106365765016118
P 7.904205463326531 5.88071610256806 1.5126834879753777 -0.49357570231331765 -0.4485472013187694 -1.725883593140776
P 5.979264041486813 0.8562664278194013 10.906020992188946 -0.5415162347483384 -0.316777392971919 -1.0960119124754801
Ni 7.341481628968051 8.441348367180238 3.459716072789383 -0.47023162827073856 0.4494550578450195 2.026201040784459
Ni 3.771053932002185 4.14378036075179 13.636716415531778 2.4577419373532186 -2.183289016181124 1.332548518217776
Ni 2.6445679229326333 2.0641167869180794 13.02967243914156 -0.009194264904758359 1.0402349147151762 0.4773522984759198
Ni 0.6921293606647231 7.6324151563066405 6.368756835093457 0.8731828861272639 0.7649571836489406 1.2526602292315652
Ni 0.5999171857883331 5.723048839755807 7.617190254900313 0.46042338393106513 -1.1735982928013917 1.5393536583339102
Ni 8.952164623366858 7.680792377279688 1.9764459351656176 0.7693910510505781 -0.5305767050176992 0.05382835867436536
Ni 5.569053526008628 0.7096716489488811 4.283858137991131 0.7011532018191021 0.00916881098346163 0.4712040194863369
Ni 7.2669759889406835 9.397886378903696 12.293632608911487 0.5269578773181892 0.1802289322895025 0.37033527159371704
Ni 8.086122693100688 0.15442764091216588 8.41469511427497 0.5718061439811313 1.2672450690242756 -0.7764315028371274
Ni 7.952110711412035 5.15799345933287 3.4493543800162874 1.9007088379162038 0.5938189008067967 1.810542821153069
Ni 0.8057058602685857 0.8555660200542892 11.952650132632177 -1.283433762968996 1.0313926338331978 0.8141812107820752
Ni 8.373403150289704 5.5732257663345 9.48457552705007 -0.07205825141883074 1.5278369159435623 0.6792494597674754
Ni 3.299779564333828 0.5065014800487111 3.5940593794450897 -1.0670620622103495 0.23794582738499664 1.7476477242907449
Ni 1.8590728856543681 2.9540499847516206 8.312666847283484 -0.656558960148495 -1.7205534391771142 -2.4679708141700787
Ni 5.413009849929519 8.915312980307585 8.650265277959118 -1.2865023745919908 4.031359916186638 1.2366723384437412
Ni 5.148006513032483 0.11358216327851307 0.7520434869008445 0.9790156628933783 -0.6183757642105544 0.5097517978525479
Ni 4.796112967538978 7.059666617816771 7.817087763798268 -0.009552419575125485 -1.429394518104248 0.7450362763552976
Ni 1.8764320484581596 5.126191926170295 1.2658747058930815 1.3182914940781296 -1.1608854732204137 1.5224879929268231
Ni 9.23254483694001 4.06260102409458 1.1106031774579908 -0.7625313478162674 0.9325326888404909 0.7581041652828493
Ni 4.915078453572795 2.55816856613921 11.647394116048241 -1.4577861818730635 -1.1119548089579818 2.118424711407571
Ni 3.0211928477333347 4.951477002660027 8.24223527722138 1.3554238801540528 -0.3136573592856985 0.6076709761985405
Ni 5.813375010973579 6.48307622002231 12.236532385030891 0.05208463651038127 0.03535755356368749 0.05808379151660965
Ni 8.873656653253136 2.438759425591104 8.631600638148386 0.29751057432250694 0.2442054351414633 -2.095691531476113
Ni 1.2128664869474735 0.55918120586459 7.109176573719918 -0.6676488994140696 0.4522948412866598 -0.026322697054928856
P 9.516200542352705 2.967369059638054 6.590704917297369 0.035292761764023094 0.44574135643885815 -0.46772891645354286
P 3.6960480007140233 3.216665138837696 2.1092279555093363 -0.7667379296984473 1.6651006575254486 0.6583726163184661
P 9.069346051885764 7.565791463501223 12.595849120099654 -0.36904406358611924 -0.35542827257489756 -0.6329053252852971
P 7.121513945000265 9.406957697802252 1.519467626260905 0.9997608658605296 0.8551373414794627 0.42949764088648607
P 2.757142896069132 8.622482121961076 6.261479285646728 0.6840162850284993 -0.6553780524665164 0.48202939223661506
P 5.158531508424668 5.632345090228 4.613499105782809 -0.6568250693256882 1.644942437410019 2.4308502551686972
P 7.0323582665435955 2.355796031418986 3.5860046901462996 0.07542613944979913 -0.7558336240811175 -1.438386180079897
P 1.9190228818299426 4.270089744915758 9.9105102912496 -0.5693491978002065 2.513426889620349 1.4294968480100672
