# total energy = -381176.4948477483 ev
CRYSTAL
PRIMVEC
9.12109431640675 0.00000000000000 0.00000000000000

0.00000000000000 9.12109431640675 0.00000000000000

0.00000000000000 0.00000000000000 13.34964350641197

PRIMCOORD
 96 1
Ni 4.84901992433311 1.31749644576046 1.4695952514046746 0.1262013131201375 -0.20998096674095448 -0.7526022616280136
Ni 4.7083179258402525 5.879685322083399 1.0619699050125304 0.971830715109165 0.6418288530271721 -0.1880887946535535
Ni 6.692721413205944 7.429486914973031 7.026424851988509 -0.9296903342956893 -0.3695027483900926 -0.5372047518571781
Ni 6.4120562248470865 9.201177365462543 12.924203688554618 0.0716810705850701 -0.09356450092172272 0.7391636196246044
Ni 0.28585053038810576 1.0708894229903707 2.815025960135719 -0.32134084397288526 -1.5395657743447164 -0.3083824840400044
Ni 0.7057400999861035 9.335895926187261 11.82847843827939 -0.20070211254218984 -0.4384633347202062 -0.3234895148847719
Ni 8.915367879998152 7.608588719874221 6.40346324204013 -0.23419098832825472 0.672884436781396 -1.0389092539252174
Ni 5.660313886471333 3.6537552613940423 2.0264891279235733 0.9424388922106092 0.057249725651088504 0.2769543474377101
Ni 1.3064781640166918 2.9956227123695274 2.579164498394051 2.430933558911123 1.0573492057979597 -0.37218877986268806
Ni 7.319486519418522 8.213308141505102 10.969695499403642 1.4225237591263438 0.5168117900231228 0.04335317017465437
Ni 6.035865817363654 1.933106453816888 11.420926972749932 -0.28637332675876487 -2.605079518231339 -0.008140626829263399
Ni 3.572340374933051 7.7631730236766945 4.408212037391439 -1.4750331418789693 0.6020893683457049 -1.0206410517436488
Ni 6.950437928661389 0.10726862785396443 5.245956260480617 0.8869061492506274 -0.09581267352595112 -0.32196047983475523
Ni 0.3380323100703073 4.862783655418663 0.9521045016515702 -0.6814097006435879 -0.5638457514834742 0.44603703330240596
Ni 3.562890921384587 0.4733665446507415 8.189004986119118 0.8066525065051978 -1.3568765534401792 0.25734531495753094
Ni 7.108962545140442 5.7759146338393155 1.9320000650954319 0.8126447195328907 -0.34972582287348153 0.3365424914139881
Ni 3.601847114536603 5.1718154466112285 10.059676638309956 1.333429892381465 0.21626679974966623 -1.3251131449856532
Ni 3.3941689216360533 3.99841404637068 1.2307238285906201 -0.45110159230950697 -0.510833718062817 1.5702498336921344
Ni 8.03896754775478 3.3898728862872827 11.819293496461531 0.6467309183144797 0.7216343524915894 -0.6654166676494411
Ni 0.7452052501921775 1.5212343259844308 7.908288719632971 -0.407259398313576 -0.6180896004287032 -0.5716660188588413
Ni 0.898957710207373 2.552474352666721 10.703276548011333 0.21696408292700697 1.0917842475473776 0.35060873969906714
Ni 8.584609642519446 5.300003303918283 9.835589597017815 0.4776006670413 -1.474746463876486 -0.22408938111787857
Ni 6.45897513319969 4.821264434808039 13.259519736784451 0.6401884892102716 0.26634803267677354 -1.3936852376280966
Ni 5.9226912810419 8.771418771984779 9.008272608770918 -2.1000924887572863 0.2934299764952301 1.2731755755760976
P 2.805256356182283 1.8649627593568765 1.0775040404742953 -0.6022894001716531 0.5958413305534641 -0.37444697976924546
Ni 0.5038811651588354 2.2109988295514857 0.6062344353706501 -0.9240346786718087 -0.09980533962511198 -1.4183102352656285
P -0.054853348161298984 9.145994745802112 9.58117218131959 0.28356748187885356 1.2703962130587474 0.6480120990197485
Ni 2.1121261688706494 3.256230614673296 8.705021767056168 0.5409053406372168 0.8475381889759661 1.0305837647786573
P 4.423876604499673 0.5373528443931956 10.460086287113112 0.17419378183901613 -0.33140465596679053 -0.5690617484667747
P 1.6392065578336865 4.776078534345597 10.226868118458649 -2.0395815758564226 -0.4781722232740539 1.0043225170892833
P 8.839991157870251 1.058539461499425 5.840843142608367 0.7971149993284078 -1.178935388743589 0.775029223172962
Ni 5.795059810478529 1.632657612227705 6.957887126260839 -0.22433903523483942 1.7278348033298758 0.13857808951793552
Ni 1.2806107409824803 8.345755549784293 8.036271352321453 0.9095274861945691 -1.0386518864987726 0.30998993773644035
Ni 1.0406712380424363 3.4484485529747673 6.401260497800791 -0.040553238832014026 -0.9402657958186904 0.008586713227746502
Ni 8.827185141671368 5.283165764101232 5.544106586341796 -1.09553574417001 0.5666024882930049 0.9452984731465914
Ni 6.8885695469825965 4.421149397346208 4.072656104385231 0.048754286585567644 2.525779497648431 -0.8044945796219307
Ni 3.107456447849946 1.0207598894938879 12.123212002268701 -0.7399066684382161 -0.490827193033903 1.8615666204991035
Ni 5.24039695359086 -0.026812368389057765 3.289619291950812 0.15018919139430262 1.075354641236445 0.9827836145762429
Ni 2.4280443861530707 8.900527859801867 6.064462271770163 -0.03831535064043078 0.6448018196125669 0.2376900026204487
Ni 2.4537841138690593 5.787160942937052 13.462580831821843 -0.5520616143643525 0.4324487530950101 -0.3074586866741544
Ni 7.652935479674058 7.9177846907616445 3.1054069379924747 -0.26527691109978185 0.4287368514610616 0.15741733371162567
Ni 2.619952207253144 7.80344265438757 12.171523701699346 -0.7614082899554178 -1.0717985484540702 -1.9729216126350277
Ni 8.161637143095792 7.39282923754902 8.857220904736128 0.00933284736515167 -0.3467101759756093 0.22365203647014387
Ni 4.960060124621718 8.683473182106123 6.45493996114386 -1.7839074779537276 -0.24650348714702064 -0.9216263263406321
Ni 4.854903030065503 6.342763272523072 5.4346935892511095 0.7166762371553657 -1.9095302928625757 1.1628387402920426
Ni 5.447974814455663 6.4926137284571555 8.931192066254164 1.0709665394710781 -0.8941358342298471 0.49008234444807847
Ni 0.8006879538504302 8.544723097763239 4.224173896331534 0.35820532109940245 -0.5295582910555138 1.278818632794488
Ni 2.180461406307995 4.255099878186187 4.762819199767025 1.7137628986178421 1.1806266604030828 -1.3480329870066203
Ni 0.19102854762316987 4.7719010732208895 3.399914298846649 0.1861308995962343 2.6516717641685816 -0.3235190825711267
Ni 8.792935433105267 3.640046256873443 8.016380982289471 -0.5763176586982397 -0.41085662874653106 2.106819265958159
Ni 0.8018499812462548 5.845098133033424 7.781533786218255 0.9410016455434504 -0.4481198839733637 0.4464491811391601
Ni 2.8448601470195696 0.547970710103395 2.9522738002706586 -0.44726319240002327 -0.5924297337687539 -0.18169060443669355
Ni 3.520924767160184 7.682141223170371 9.655516395588718 -1.1390794330889156 0.5374312660456874 -0.09215450794807355
Ni 6.174442600917524 2.3803501847969732 4.45536353364509 1.5301766198203326 -3.507752186287604 -1.2816962114525992
Ni 7.728713529944942 6.836542825901093 13.190969241524959 -0.043926526179621124 0.3475658391076853 -0.3645279208833206
Ni 3.7127048929420354 6.743735692835825 7.422562180287709 -1.3973084362029808 -0.25150762522983133 0.01024378921519526
P 6.060264744238307 7.992003033931383 1.3595410413946285 0.3051508644765841 -0.397209984497374 0.45778903163201157
Ni 2.9935613450896503 2.1222597044810194 6.890605375198829 0.7807843804891844 1.067239468328478 -1.585862343418411
P 2.083650112907036 6.195494086235915 3.5384564222427155 0.08397608590233925 0.3691499930363642 -0.810175946277424
Ni 1.2397573602454446 7.010171974307035 10.062574409924189 0.21356071367241283 -0.056019195678097065 0.5728924350667747
P 6.882832378756744 5.963681478191317 10.81220977554927 -0.8039019403432541 1.1894715123882222 1.4246734584794947
P 6.668933599639927 3.387291616640357 8.479600309688603 -0.3128122376765839 0.09268055565487264 -0.8363109528015791
P 0.7529116626469043 7.339552926567769 -0.29177559315362894 -0.48810465189641744 -0.7207470647906298 0.5171797148855029
Ni 8.594031732785433 9.065400757815409 0.6908772770544226 -0.7886912940410868 -0.37064380397307134 0.5687437030057237
Ni 4.495075865502866 5.213261698468582 12.126615994608747 -0.698903486552977 -0.2414024184750294 0.5289846779402309
Ni 7.163506688209759 3.682012411097846 6.261409497392945 -0.31104074759845785 -0.49684254599004757 0.6596064887255673
Ni 7.7331007762352995 2.1287539235220483 9.762634525389062 0.7981326419596448 -1.221792078897799 -0.17725596570410762
Ni 1.7946026390162888 9.046930542143944 0.9637922717065909 0.5901501937059578 1.4827083990360401 -1.6870187977547784
Ni 8.6897576159815 2.7598971549308255 4.606695255270553 -0.2682388219415832 -0.18060251357883736 -0.6206756159883247
Ni 3.6917719818477073 2.7080163713558627 10.883243032638774 -1.0787672664624197 2.4423176323783484 0.7218130441612989
Ni 4.327256854076048 8.47619631734856 -0.08914592586994659 0.7166898640021205 -0.4214457171162871 1.7241756093107337
Ni 7.582101062437214 0.3903226307729979 7.863353649259896 2.2910722318053898 1.0096246460284872 -1.5315400758267623
Ni 7.044421682873136 2.6697625024540708 0.3089798009558608 0.8355977287846383 -1.58986375126832 2.4588390270721394
Ni 5.393020222149203 6.853343881341509 3.184717588031043 1.1058633513482632 -0.24125972224957803 -0.1610706141934968
Ni 2.0713548779810425 0.7389417948333649 9.909306280008824 0.24722133914965166 -0.6271905342887069 0.029861306335806637
Ni 4.705052574131421 2.3906843844788352 9.049950536419905 1.4209312178282432 -0.3969004236767551 -1.560957352646615
Ni 7.428848438381919 5.487642452952062 7.81765787963398 -0.8600049539844091 -0.9054849406940793 -0.5058051544999741
Ni 4.137620185421503 5.024801650960517 3.3475300308741236 -1.1852443616807524 -0.5418589627997378 0.2422287710310667
Ni 4.996188778584521 4.440358421644532 7.607761436634022 -0.13431134382178161 0.7404034055689764 0.4937333109371045
Ni 6.023023316788136 3.9495341027739457 10.621110083391661 -0.4928174839910544 2.0613912155323466 -1.1925033572360106
Ni 4.013801332216489 2.501925248838935 3.459185905018446 -0.2900214650343134 0.8828337789534667 -0.6438206866462202
Ni 2.220749279207188 3.3655742914483757 12.709113694540669 -0.21491748481062342 0.39046752356721787 -0.5927570352011856
Ni 1.7786498453326374 6.506714940026581 5.656177470270341 0.8986458062850587 0.42157375805371905 0.22905598109453454
Ni 1.955726767330585 1.9677666116201333 4.548824649161541 -0.5135238633004704 -1.2127628788159952 1.5436299171117607
Ni 4.8912688324764355 2.9514218900762312 13.122044781404957 -1.7627940930138803 0.3716881860771857 -0.7319804716126038
Ni 7.129977546082199 1.291939139927646 2.5089320733716862 0.056995186438121195 0.4289425397139645 -0.23974559959789676
Ni 3.182641627000512 7.4608725999732854 1.7784929625131065 -0.029386166471601007 -0.8313448670455554 1.860131173604158
Ni 0.655476486405487 7.4169727737872275 2.030333669111486 -0.07155817185396064 -2.2200969290380925 0.684315304326157
P 2.8674439761566317 4.525731862970421 7.0367435458103005 -0.08696910709239215 1.1208192013271472 -0.8291951676924041
Ni 0.3183590220793021 5.303688225958417 12.035478021774528 1.0362687309785765 0.42722221458874815 -0.2084766142812861
P 6.9132785910586465 6.604876155363034 5.007144124778595 1.4431206094410887 0.2600629709990102 -0.9237397731392093
Ni 5.1512200160007735 7.343246969702062 11.168778885278403 0.006329798872769745 0.12380607341508355 1.0747424615737424
P 8.144270579817533 3.359052709124871 2.366117629471662 -0.9782890691399991 -0.4908536753964644 -1.1848126734599724
P 8.073344951639104 1.2448378096918677 12.351437283980664 0.14931810164325895 1.2522848481700175 -0.762606681138893
P 4.30712659926769 1.339897853014347 5.259265761077063 -0.3453012114432247 -0.6648055164280035 0.0022309462130477705
Ni 4.866194944634035 3.691042294315007 5.436375519013983 -2.7231427756253748 1.7171855511461458 0.8910114296682525
