# total energy = -340866.0663216215 ev
CRYSTAL
PRIMVEC
9.29335345288987 0.00000000000000 0.00000000000000

0.00000000000000 9.29335345288987 0.00000000000000

0.00000000000000 0.00000000000000 13.60176216486818

PRIMCOORD
 96 1
Ni 2.0276052823542883 4.441498096752772 6.135918069025539 -1.116323884559955 0.8825170190439963 -0.7582944269167844
Ni 6.099776217220702 5.988200214965912 10.228824334246019 0.4429182851677662 0.5060116140838253 -0.5271486531727567
Ni 3.520210789779062 3.5842605821778637 7.599045988448316 0.7231775286089932 -0.043860963049008335 1.015566979654851
Ni 8.021957697344577 4.723774416300247 9.728796377914287 1.2443326832024764 1.871742018370209 -0.7121418396201219
Ni 5.192819261361176 3.9809102033869834 11.259062271107618 0.37078984263263237 -0.20488066939991165 0.24564730979431243
Ni 5.366595678666051 2.3234220179675003 3.4223805867026047 1.094701678304489 0.28631213450352627 -0.6119184386209848
Ni 2.968761779134823 5.0804997908254945 11.058355573998153 -1.0759403385365858 -0.3449374003459027 1.190264440603163
Ni 7.905855831929861 3.5824948450107463 11.789286191667756 0.9448102206562631 1.5853545505440567 0.5100790992849796
Ni 3.3569079818812466 2.844760563235634 10.051797101882944 -0.004962743321914034 -0.12202095649020277 -0.32950923871629056
Ni 7.745387496852944 3.294159258974005 2.5851237821766553 0.9899654770366628 -1.6037577356415929 -0.8807123617350897
Ni 1.9923277124259873 7.885791481699301 1.3140039809769137 -0.13027188364508532 1.1703054809827327 0.2651838371653433
Ni 7.439357365730985 5.806998408205635 0.7419534642691716 -0.24255915778729192 0.7924777576667126 0.5282472855535741
Ni 3.8006841987453757 8.95708280769638 7.86876884607294 -0.8615285897177871 -0.9696277939205752 1.8823743012730743
Ni 1.9159177598573647 1.6285765626463158 11.653989833911124 0.49839009298282555 0.8412222740602674 0.15538667643484205
Ni 6.425145816999351 4.246681527098668 4.094266812174509 -0.15154390564998418 1.7130185642526499 0.6631720945896385
Ni 1.3743475839954713 3.460603220358587 12.863009588278702 1.4654161876144955 0.6948552846255323 -0.5889924259524307
Ni 8.818147172704784 0.5635554622632057 1.3069902870820536 -0.6944490503260492 -0.11200882366983936 0.9926767053202388
Ni 9.600220044081562 5.495959159541169 2.6006158024797315 0.014026396186079069 0.0955103117941839 -0.2628865564907344
Ni 8.91140597518911 0.7896172157571248 6.714700691016755 -1.134239074277479 1.2853196671377993 1.0666877095900662
Ni 8.70581840881559 0.8197918052724571 4.217103570878752 -0.6466938944289572 0.7620842329765198 -1.1276668203765998
Ni 5.650637735380643 1.783273725192812 10.141732601151686 -0.15993778614063422 -0.26991543831305775 0.09490173167590753
Ni 3.9632435383623 2.32926753732601 12.922667341808136 -1.2409912775340692 0.2021187903840584 0.007363639453922803
Ni 4.415086386074101 8.948505042405595 1.831219065292153 -1.2379077535127392 -0.15441428521924375 0.010225534382750132
Ni 4.8943632133507995 1.598772777936078 7.306282119463516 -1.5574344270950211 1.9614370090341962 -1.041452074951729
P 0.5347367730251494 2.4640025765305693 3.198100369076771 -1.159242795410668 1.8639901423389316 -0.5100055657345668
P 4.132363985558091 5.221833111022966 9.313942935847537 0.31469274252874835 -0.8074947999008352 -1.1335199367232671
P 1.8167762646004846 6.894804023392015 11.62429756944302 0.2904726936391191 0.31906233235135373 -0.4173036699234555
P 3.6451971011504325 0.433762628455872 10.529259866554268 0.37514400583627006 0.8853205499310622 -0.2729064026205816
P 0.30520209332411585 5.377255155143332 4.7705320658208645 -1.4081896018918585 -0.7907517761145414 0.6906399609926042
P 6.512466166590056 2.1734272922976428 12.292021301877282 0.04687635283656443 0.11031240980402293 -0.6337255071937473
P 1.7176068892830714 4.50300151028952 1.0955590600207277 0.6410976312881023 0.4617619002368305 1.4913187664128702
P 9.106966013124104 7.340699124856685 1.3192881817833497 -0.7407080812935889 1.047358927354467 0.18636358443233064
Ni 6.020057830802113 8.953681440311302 3.789681797523533 0.9545703853668206 -1.0972681534800843 0.5092098093061489
Ni 0.3050849970698754 6.1432876983598765 13.127033761530292 0.40131937868005724 -0.07192506827507612 -0.5473225570174702
Ni 0.28906883162877056 2.9845233066897223 7.038109393204551 0.3642456137562114 0.29707065857161097 1.7588831879952485
Ni 8.827078085428992 3.340793306892924 4.98886825454097 -1.622092786505355 0.5815686226845339 -1.488860534680365
Ni 6.337500200035755 6.394189656453731 5.3737710769120035 -0.3661595429494726 0.970342817709729 -0.5881974408549612
Ni 1.2894435063176635 4.31276656391641 8.660364616792588 0.0981454354241858 0.6592717310939677 1.0985778734304434
Ni 3.481968640080706 6.7556732279766845 -0.33714520801261866 -0.5698806448236443 -0.8513195103952692 0.03914093186551969
Ni 3.344696515367604 2.3362840192269227 2.234606367796852 0.43957559394777845 0.986934660630139 -1.4712374222819629
Ni 4.985661118244273 6.260123738701974 1.454586398210685 1.3337715919915998 -0.5345796555295051 -0.17865824536827296
Ni 6.694736709004116 1.4877264968314232 5.305381288423498 -0.2299016169242815 0.8959749443211149 0.8338280384787253
Ni 8.012757277368546 5.292927265383215 6.325758047874426 1.333546106244355 -0.9075076275510627 1.0716262845422642
Ni 1.3109390329889385 1.8783540249653221 5.215310106193495 2.6107662842034713 -0.910397290394032 0.38465605909176337
Ni 1.9297183898214127 7.062233080248778 6.9311856437174395 -0.07910924472834117 -0.05917188237446584 1.484343620646618
Ni 6.562836142620454 8.545517354101873 10.79283517083127 1.2763948538443437 -0.4141332426152738 0.23971114681553557
Ni 6.09691386433927 3.7804525681516163 0.020871013315326297 -0.29577199436484547 0.6798295006406614 1.292878967542296
Ni 0.44390167713652967 8.298825285148569 5.709040886186075 -0.5438063163340957 -0.5601299931947837 -0.09779345140140577
Ni 5.601132041226781 6.074145148236968 12.584432023428661 -0.43216670307821703 -0.11631439302372872 0.27419298264248904
Ni 8.221365183633186 2.4967988210713954 9.65229999715801 0.49282494019022216 -2.399290735194861 -0.0599162167396581
Ni 3.8945098957938815 0.7738352428245008 4.064192590877097 -0.3496792859062623 0.5544203444045162 -0.43991009446906176
Ni 2.7426451948551884 8.67062447906889 12.59553107552702 2.5316542112616527 2.802478277431909 -1.1302952591383824
Ni 5.820241436959013 3.6510705005694755 6.427186637430398 0.4922253589330104 0.36456905853390115 -1.0838138277473914
Ni 6.056013815536726 5.9012237194551185 7.666646771223727 -1.0595624113991944 0.43406109188745245 0.8507438403974574
Ni 0.15392674354042257 8.707881533295064 8.546912286463897 1.5496360140965248 0.6400478498673493 0.9946417994664096
Ni 9.017536072286369 8.016985753216115 3.4678780574871104 0.1015125521242058 -1.4917833647541145 -1.3621257176542605
P 2.033209174521508 0.745760021867336 7.109723046026073 -1.2177677882297544 -0.1582323734137533 0.17043225791405486
P 2.6393123971647823 0.901917170250433 0.6345696937832584 0.18369555068186427 -0.11090890573744125 -0.6507693500499115
P 9.512955454611923 6.505709898587455 8.14079087935622 -2.170410360446243 -1.1429358307205284 -0.1339084519564081
P 3.596267594914261 2.4798756243276032 5.369241496410672 0.5322810893033155 1.4318224108194502 0.6924376763229753
P 0.8882475765708919 3.9018051783001297 10.862992555157593 -0.309167441835145 -0.8630110878005846 -1.5617168565204589
P 2.771380243911644 8.395327468008283 3.2973394445455186 -0.05857924309578944 -1.7631391350581247 0.5306942044321699
P 6.431195790135106 6.419337471054886 3.0752905610977113 0.716502944802295 -0.04318913379296433 0.30107900840005564
P 5.315045446739736 8.133199138872966 -0.19649123195681137 -0.9391671634378729 -0.6080540705695722 0.09965852963460256
Ni 1.8612356677977957 6.6491713967389785 4.637017243932317 1.7134525664662748 0.6110478630905734 -2.032789492635254
Ni 4.568445305714993 7.014911324170035 3.9999383447010506 -2.0490661183080903 0.866976500206236 -0.8234958033147817
Ni -0.1836664041114332 7.0393063771367865 10.654695976235578 -0.6147044860065543 0.7814927194101186 0.013745888831182778
Ni 5.395367901136551 8.852198019969613 6.240978501133667 0.6563926097739599 -1.2923876297281742 -0.9079634841415588
Ni 2.9019983275107673 8.827003738600903 5.584489503759025 -0.33655688959169133 -1.5729343225028332 0.545480361602409
Ni 2.898671306953778 6.029035210293877 2.2432975120004737 -0.7636104398130591 -1.3149745138897546 0.8611544942078202
Ni 4.05467155020493 4.651918206952085 4.792241339622896 1.2163801638536085 0.4033508072877892 0.9375404264677273
Ni 1.9042731879079018 6.762959217129421 9.252040837445161 1.4573884322140127 -0.08596149176348422 1.835708264675103
Ni 7.656338583509166 7.723641049636868 7.665327115025144 0.8455291289657374 -1.224825209297168 -2.7314968040170244
Ni 6.677962205916502 8.216653453403037 1.3984378149670578 1.209081573309666 -0.2363064920093608 2.131975196398496
Ni 1.5081997546164725 9.116082792918537 10.508327517105768 0.7127208520520435 -3.043519198802462 -1.0466547021985908
Ni 6.544249435598167 0.5886809728159336 8.21815711800114 2.43561785176067 0.1736566783886235 0.6395559978325954
Ni 0.6523506670561295 8.63006828434626 13.15305329269079 -0.444783363400963 0.6370460869265481 -0.6389317339850351
Ni 5.747362958724626 1.2314158069940828 0.5648816238092459 1.467536319281292 0.9791856128123395 2.9693639556452864
Ni 7.769736083052141 8.431766707125478 12.994960338771323 -1.3123105939043462 -0.3352042322185388 -1.5265811891595904
Ni 5.211935689533599 0.5649011398516193 12.1986723538639 -1.5540503411141366 -2.587160214748757 -3.0437305434823196
Ni 8.991226588496321 4.066576336052705 0.6379143717119189 -1.272506317423215 -1.0262511988415743 0.22828105060172296
Ni 2.1960008479762103 3.92245500980189 3.741913031140904 -1.7040631548315748 -0.21338407888523253 -0.967517946666424
Ni 4.049922646560736 7.243007392747543 10.387802015419746 0.013553313204402466 1.4059475999352173 0.16397750342764664
Ni 3.5743538673349846 4.4893216939211165 -0.017455705899981026 0.6999301280452784 -0.2490617347925001 0.6648479396301648
Ni 1.63178276960766 0.8584103357880143 2.5885651109818317 -0.387622597919255 -1.7175802154814033 -0.09713653454369724
Ni 9.065582709938981 1.750403133823897 12.749720820971808 -0.948075007450464 -1.1362458202948624 0.0034031121442780103
Ni 5.907701186852386 3.7932773959969945 8.736112882591216 -1.5615430499467557 -0.33598919001367944 1.905461264999525
Ni 1.5034787310328117 1.722495193229933 8.89035652948637 -0.18597843317877003 0.3655090538496673 0.19608004038914617
P 7.5906996276599585 6.192319431484671 12.015212262200414 0.9730900414375628 -0.6103294968673102 -0.7574387637847084
P 7.596024719221844 3.192266931077827 7.707398126370092 0.4697513462002103 -0.15628656254129214 -1.1142860281943197
P 6.952599388877816 1.0005317323632312 2.4928900365846083 0.6073768419968895 1.0179357369973436 -0.5174072575152766
P 4.913442468109177 3.9644052075511924 1.979559574037027 0.5211512979387412 0.3159541257396752 -0.28289231018869987
P 3.6808371118656678 6.591654831858511 5.972383856625298 2.077200414650461 -0.6724861729017128 0.024644023800925303
P 7.5460636507459355 8.71417313362211 5.6257845200857926 -0.4537395441529863 -0.3497721027303847 -0.39852638931595236
P 6.064359246989734 7.945566331482977 8.874360809422988 -3.115218524219977 -1.1053619862318125 0.34556912039263066
P 8.807905897135504 0.24796154104292908 10.905729899949291 -1.4356569540741921 0.5983957215442016 0.39993355407612413
