# total energy = -381166.6027080659 ev
CRYSTAL
PRIMVEC
9.23363501198302 0.00000000000000 0.00000000000000

0.00000000000000 9.23363501198302 0.00000000000000

0.00000000000000 0.00000000000000 13.51435819016230

PRIMCOORD
 96 1
Ni 3.550240246107735 8.19644830810474 4.5295124619701275 0.8613856363820198 2.8920930496772645 -2.851952472902637
Ni 8.31701187775136 7.496566490803308 0.6778291272970659 -2.9078647106892244 2.3281416258538616 -0.28821192262940043
Ni 3.0495371651812144 3.1572752160839297 3.682054076400555 0.12187748893380301 0.08180401795168492 0.5482826069378944
Ni 1.1212218070804703 1.6625344138786182 4.621964230453453 -0.27349492813419995 0.530226520767132 0.9632391167854119
Ni 6.780996727968474 3.631182288806844 7.095051114950232 1.2846645500523037 -0.4905621122979744 -0.38853842486530504
Ni 4.056197265238202 8.323198413070592 6.980692547892456 -0.1779229098641452 0.6438294283969687 -1.5348639979936727
Ni 6.5849666610620075 2.484928097770489 1.0703564830311227 -0.9425857022011186 0.6376006738784373 -0.4469662299848947
Ni 0.17359141096725744 4.888147761153069 7.922346012196505 1.7729818321801591 -0.5351877214271492 0.3310215615957589
Ni 3.201578195877487 7.331108988735622 1.6960109568635167 0.10023599940462738 0.48214843431298254 0.29613529124153515
Ni 3.6223364666638203 4.352772381534424 5.902652757340237 0.6469520331863503 -0.6563879817882695 -0.6061815361372077
Ni 1.7094597459567464 9.114317775878517 0.40366034921823607 -1.227006533219203 -0.17527081695327879 -0.8087068179310652
Ni 7.832172181419531 4.817214978582392 4.561852344510552 -1.475072222647021 0.5816323860429338 -0.3545360997779313
Ni 8.400936384492429 1.1164480178863752 0.41890138682708267 0.2923477991746449 -0.8908389086461302 -1.046739034382281
Ni 0.17699585211979696 1.8740031181787544 2.4479907884607415 -0.5002613418636094 -0.7023963301975839 0.3145204786169422
Ni 8.398249396764223 5.269829289445377 0.2307513038630553 0.5573640004138724 1.2039208550443332 0.01822629320003958
Ni 3.848357379416363 0.22104490695622173 0.8872415011261674 0.7304306106269807 0.29212514164087755 -0.29376627678872635
Ni 1.0302058688092959 6.778642151093243 0.20693591297444683 2.339322325061029 -0.08424785150648716 0.9155965752067844
Ni 7.698358345827985 6.886324800187129 12.027224846852715 -0.8450840710085188 0.2982788199470992 -0.5375374526062484
Ni 4.618617961200183 3.307801930672211 7.703981629424125 -0.432396559700836 1.3421076226611208 0.017739326261292033
Ni 5.999655784418862 0.19380753100894452 5.026422365718826 -0.8641238612487891 0.5751460069876417 -0.4098456709835135
Ni 8.615775365496326 2.487587384594279 8.306127269043431 0.08157287577748533 -0.5848285243827283 0.0817327983941173
Ni 6.062933883736338 0.13110284041284836 1.049270554590821 1.4078527873777302 -0.7845091376389391 0.22690371063822215
Ni 5.302183945801488 7.195808537940499 5.153497494629809 1.840652496054256 -1.4360279642603657 0.41711829338552675
Ni 4.784361705946819 1.173705787311104 2.9594547473888078 0.6923859971494333 -0.6315318419765381 1.5394960974490455
P 3.443342455972259 1.376088594963291 5.013448185454564 0.30678737163874265 -0.19439956736292974 -0.688566366293027
Ni 9.078232731061256 7.241921310155803 7.395123932110522 1.0452616785058064 3.028040129330256 1.850256594802923
P 2.415223388628854 7.047100849408768 8.18165971860133 1.0926501950920988 1.3739080550011693 -3.791069242718549
Ni 0.9898733519818137 2.98934309988855 12.73620087107342 -1.2751671520848298 0.03827524143111473 0.9844756575666852
P 5.635342723194433 5.349247782401689 5.983306710633435 0.6679124374881013 -2.0473671333391126 0.7871306344221863
P 2.2589441195571656 5.314640119153199 2.237194292774397 -0.36168788033136423 0.06379806829256754 -0.36322797112497446
P 1.902285741585938 2.004677517936659 1.0074828169180983 -0.2619748433097424 0.11148611839714993 0.5218218416432046
Ni 1.9044648793998769 8.884889651882993 5.769495433183315 -1.0975152364938838 0.0737099280896408 0.2981965446459381
Ni 5.484585167736031 2.7144670253836707 5.368173040297661 -0.9571867399437451 -0.4535413120992512 -1.1877560723590124
Ni 1.84043885566321 6.983748881012853 3.6219828184507956 -1.8735155653308637 0.7818164212981245 -0.4703331868456094
Ni 1.3337893139223809 3.691053176881339 6.175629473165764 -0.49803733762909713 -0.5514743744023147 0.972480689988338
Ni 8.905665330193854 6.13408827354233 2.5057508676188536 0.4004493173702781 0.5319224204123162 0.4995604591418429
Ni 7.504959864840894 -0.088284629095907 3.1649954581442454 -0.15838201161774015 -1.280568525606059 -0.1237867901413739
Ni 2.772897466428613 6.40016469407821 5.685003981265231 0.3299332136275866 0.16647147349409394 1.8215569128753852
Ni 7.936503021079265 4.0558833216548384 2.1723787932619176 -2.2864645578300493 -0.5512614870605603 1.1024265577525723
Ni 5.067769659011359 8.269966508420769 12.53813478769249 0.3681770876001337 0.4423122761526511 -0.32386155351220997
Ni 3.9537131525394336 2.6993792661125844 1.4976336999896636 -0.0675423658263482 -0.04885610227075456 -0.8397806565177344
Ni 6.3358985958366185 6.020219089129211 2.789566023978286 0.9642169073176491 0.3878015466992805 0.629995864947986
Ni 3.7955409883327555 0.8125681730960551 10.473506049058534 -2.496771797562171 0.26279528232850874 2.538237520906125
Ni 2.5922875696462064 3.49012004989351 11.144804226458147 -0.09720441166715518 1.0058492381464548 0.9808827980091042
Ni 6.850452128970378 4.160011021348867 11.433700652050675 0.6938620674743277 -0.8088939942412069 -0.568998242218691
Ni 8.301757913053788 0.809378875634468 5.822526044594395 0.19274763358180355 0.13678757327641602 -0.5303771874123834
Ni 8.467797134114177 9.119165434151052 10.506467355221323 -1.4073840752714277 0.5635940404839842 -0.7657969059414167
Ni 0.6786010591667494 7.591488256596923 11.271772245205392 1.5905967727796024 -0.6799878805953966 3.3025922950843762
Ni 1.8381212133271987 6.070477763371881 9.752811618907023 -0.84193935473195 -2.0866494758785032 1.7812512712778032
Ni 2.8275698181079907 4.333612589314409 0.07494572025685464 -1.8898994060055259 -0.45508783065076464 -0.20102684287146022
Ni 1.1596429615033534 0.8156208127625306 11.50943492471986 0.2710061002740752 0.2224222778281008 0.7191504097274711
Ni 7.480324527181617 5.744945968327722 7.395002971494579 -2.93710843804569 0.4173376084851845 -0.23299645379952133
Ni 4.241091568570048 8.24631916968561 9.139124859145165 -2.1410141666723126 -2.339773296555519 -0.435073849422683
Ni 7.186639538579306 2.0657395449009766 3.353223103640633 -0.20605154977956125 1.5240417105671882 1.7748718501140204
Ni 3.855651950912176 6.527625788924035 11.011187990651424 -0.5424621436013755 0.43571508255110764 -3.1875865935697427
Ni 0.5107760531351062 6.428465784755003 5.585173615209369 1.4105169644734545 -1.3806170915902287 -0.5910644779901111
P 0.1327565844063928 8.509800938841332 4.512578899101556 0.790622963846161 0.6380102506120302 -1.0728730124651715
Ni 7.827573831286728 7.1508222691713845 4.911037018470752 -2.892861809522489 0.7827777567701293 -0.4115294864438397
P 7.145771470933145 9.243607130415697 12.266212552961674 0.9346587340445581 -1.322633315986593 0.7084795602771863
Ni 3.967609772920697 5.806506611571502 3.5436271168605185 -0.02425064501724856 -0.04059977579923331 2.13118792461051
P 7.7723936296930844 4.649190526038964 9.502836810743798 0.05114284142240224 -0.587869110981265 -1.120267185478419
P 8.006641711056727 3.446287985474999 13.12448260152422 -0.5214174071159342 -3.5655297594177044 -0.1218522921228224
P 5.561482878390626 7.989180907640801 3.082936145633752 -0.5482725796355654 1.3685812434716171 -0.4401800603009968
Ni 4.356512003630379 5.096107684227371 1.4987694370706572 1.1208665096253148 -0.206516919451754 -1.0051753520078817
Ni 0.7579761540394794 3.8742392577742915 1.5765175654907768 2.3636606446960777 1.3054061534750294 -0.7491932359464646
Ni 8.647936115521537 2.356488237635353 11.198997352491155 -2.0720420103779738 -0.7433090092515456 -0.23358266532029448
Ni 0.76283673940074 0.33815879063975796 7.5889333098464276 -0.9066717619133288 0.771574174744826 1.0752659381773804
Ni 4.746365298724958 1.3330136885987753 8.556426177788303 -0.8508682817904636 -2.1457946187800916 0.0871313437018693
Ni 5.5238465829261525 3.875448863933724 3.0622047887699555 0.24532617900946782 -1.5119809227479124 0.5119876291616021
Ni 3.085576041824452 1.8903281845136874 12.730741022813326 1.0742274696105372 -0.8882606063959929 0.1330049663055322
Ni 5.797817761220159 9.098832970310823 10.180243960930284 4.367361190385176 2.355730076995091 1.5595617578506689
Ni 6.7234342485951855 7.948654484482416 6.931649019990101 -0.16822085208503287 0.8701117034011079 1.1907907454202782
Ni 6.4167483021876786 2.3929241605751983 9.631574917283132 0.6226209126401535 0.8180093262789137 0.5264469991200417
Ni 5.642877369195172 1.4357840439764942 12.294159995425442 -0.8190413670878539 0.6525200141924311 -0.2973331682043783
Ni 6.354781379012488 1.2351002251283953 7.081306849543248 1.1653136841950964 -0.039730742930718675 0.7487414931210267
Ni 6.138732791849159 6.332971533603488 0.5140659972160658 0.13680402833664826 0.6584710895695434 -0.7628295957829766
Ni 4.929920725010104 3.556694556836309 12.960120208544385 0.6818884400522193 1.1996263414340371 -0.4595281258103054
Ni 8.673374779408833 6.673074004369662 9.707863208040608 -1.1174068332114884 -0.7791532726436645 -0.7787717209345298
Ni 0.997888146992403 4.725312611369954 4.1134328739393995 0.5201118009306334 -0.945809865565371 -1.2507056766083557
Ni 2.555399198600925 3.882374090037344 8.82333547218358 0.5537865674752592 0.3539570873460097 -1.4519842304793058
Ni 6.0640603871825265 6.904838237970807 10.024802182535394 1.2766630199040656 0.42390960527574734 0.5987798443564979
Ni 1.5916385658471606 1.7937905326292267 9.469280858499578 0.019973100687817213 -0.0811851534207634 -0.8940245054629635
Ni 2.3282425487673883 0.7887361616647979 2.795579890326669 0.6194615410755654 -0.6991523693389894 -0.13299468189288707
Ni 4.425210246578288 6.00372781736779 7.808825859179008 -0.8805280136384255 0.6469242652722084 -1.3952353557240358
Ni 0.6181936969100942 3.862844952425136 10.084684150971654 -1.3577820959735842 1.0812311546218798 -0.2610878127190987
Ni 0.22050196922969792 8.586043061424784 2.1732172073021956 1.777741715462648 0.3791412999211212 1.5353054564064654
Ni 1.1919976178594656 5.3151664363370745 12.070118773975056 -0.05710522965342424 -0.29844542743195057 -0.9575749765210992
Ni 3.006111380694115 1.4908072737784552 7.169163961347691 -1.1460437802218906 0.4714248772478913 -0.897092602865326
P 7.860630243888005 0.028022234905687414 8.435324287232563 -0.26510464718797566 0.34214672497464305 -1.203002714105438
Ni 5.445480724337591 4.960040841743448 9.38655949437358 0.7775717870891576 -3.34917579927087 1.1593464108680678
P 8.574085504352535 3.053950842617921 5.2124607164029895 0.9318225501473435 -2.2262868598988885 0.5234341804356469
Ni 1.666809586793253 8.552894312475457 9.508593982044609 0.7604258714374903 0.7447886791208657 -0.3685604390814814
P 4.255274431630261 2.9618176345353624 10.176284578325975 2.2794107363070615 -0.2973102853862428 -1.6784691084125547
P 2.592758485021253 8.537548011429836 11.924096226444567 1.4877480183424765 -0.8430251315969609 0.24339939430040017
P 5.649045437244795 5.723487001041306 12.009155546903148 -0.9536722990325834 1.3621897381229766 0.1536668655302579
Ni 3.7801946872871337 6.432925630365735 13.097413277730388 -0.9989440263861892 -0.2616346863615042 2.6915670577016226
