# total energy = -340859.19486310304 ev
CRYSTAL
PRIMVEC
9.39045159413864 0.00000000000000 0.00000000000000
0.00000000000000 9.39045159413864 0.00000000000000
0.00000000000000 0.00000000000000 13.74387510941473
PRIMCOORD
 96 1
Ni 6.365636965576509 5.866562628655303 9.895576312883804 -0.9302788598093075 -0.8880222651329416 0.15518330217478435
Ni 2.7161412042593973 3.6710938002453437 1.8427925726605086 -1.5421152802394476 -0.36668276244279435 -0.22445859153183922
Ni 4.51958684521852 1.8415614844415995 9.583452722835037 0.03629754887945361 2.570699498089573 0.23497054680675664
Ni 1.6951361709598909 8.853270917975207 13.285283349610769 -0.4251095391211195 0.2019084741454652 -1.1898309526101702
Ni 4.528667412020086 2.1475681342478223 1.017506150993133 1.3901078046894833 0.09290527007116903 0.07319030814074491
Ni 3.4629074858805984 5.906734981061815 2.359355686842558 0.11955758255137473 0.9728396159896535 1.11702219617856
Ni 1.2837968243458486 9.380732590409476 9.63999544970398 0.22350265537647315 0.7998362549143129 0.5673897600809905
Ni 7.773303238401625 3.0122972702240047 8.339302385600057 0.0003710101861735546 0.7836606735957149 -1.308496362364579
Ni 7.863817802414335 6.066560469130736 7.992682032157049 2.053652452127192 1.1000930245233893 0.22845794249921947
Ni 1.4852407943843025 1.6802241336477026 12.111830906149258 -0.5220871794894493 -0.498005198839581 0.1631688914834222
Ni 4.779796262045182 3.0172742096292064 3.160651382486521 -1.8762422202334075 -2.127721563328465 -2.06134982077145
Ni 6.653613948103512 2.5550386147581987 5.257224668734445 0.7271820217826961 -0.32092046860601503 1.8879014017388904
Ni 4.171839637570561 0.3507361884265926 2.789594256563974 -0.7217595652155441 -1.512180440353228 1.2592494524133087
Ni 8.00740719948025 4.689901467845195 5.682103168620976 -0.7777661624881508 -0.6536497569215001 1.2586637551131679
Ni 0.44099533215284703 4.132484254462638 4.54443961470872 1.7380690794633744 -0.12701686704289739 -0.9221253774642378
Ni 0.13776449987148728 6.876862547007772 9.52282890565383 0.5914856246879296 0.8514658061651466 0.4400296507660615
Ni 2.8570355416851365 1.8269499415840647 3.695261066760865 -1.113168883870741 0.2619424474099102 -0.0921658208019832
Ni 7.897416838625299 6.256322717244529 4.070028360153215 -0.2605034009705384 0.6964599101084908 -0.3938233274133282
Ni 6.641819540758355 9.189524212732662 12.810569722510266 -0.13396038824026607 1.142569191409729 0.12915216821834533
Ni 5.847950753370191 9.207234604653815 5.902046328524047 0.9232283807204295 -0.10211161916078543 0.21312465457625876
Ni 2.7979977717973985 6.5915524527658205 0.11681534115627255 0.6043779072695655 -0.13540534821690875 -0.7805295841659009
Ni 6.077040213236783 5.857688651791312 2.3111422906385477 0.08444402667769328 -0.16685739607860295 0.09262167739247919
Ni 4.832889876001802 7.565285952167622 12.826842436274935 -1.7317853033371917 0.2961720580167415 0.2324650067760835
Ni 5.694529553366077 9.381953349131505 1.2840231342320096 1.1790045514186274 -0.6960158805925368 -1.8250546416159987
P 8.807107457379036 2.5372249278682606 5.864099513172314 0.20724299898450113 0.5508130866692321 0.6823453250839796
P 2.7116995206015475 3.787779553168047 3.9783024278701813 -0.24073290321183058 3.258259791715588 1.9633002874951804
P 5.063021676007974 2.1078840853301224 7.344823500285103 1.3068680827325363 1.1753913801460723 1.196634862905881
P 4.343525266146593 6.118151610814088 7.0799921031277995 -0.24549407204589976 -1.4728662161346375 -1.0694092222862874
P 4.660105564575942 4.2331686776750335 9.813058657545565 0.5305515082067186 -0.35572883453445187 0.22767298470407885
P 5.99614147177299 1.0972367202644593 3.9526561652106618 -1.0498845219897983 -2.3804070109164814 -0.6248348895723369
P 0.9645496376314483 5.6951493231788 6.1313902696319245 -0.38302983634225 -0.5105439547365401 0.6867755929411914
P 6.5733725382592745 7.568093697228292 11.590086140714776 0.013496748934854174 -2.0003568260278453 -1.3266856316790956
Ni 8.599184075662112 8.433104546755713 3.2380709615925274 0.4656740908070432 -0.8585525378085987 -1.431312046841935
Ni 7.913850129114171 1.9628016064426472 10.284679069853473 -0.9995757464329172 -0.005461537335203498 1.477405498765888
Ni 0.7648306935717406 5.936737474268643 1.0904455455892863 -0.015623308359553742 -0.545442566385938 0.7324239869079257
Ni 8.320090460450809 8.580036944629649 6.814612303590752 -0.9388917982892993 -0.3559946866013289 0.5759417634160597
Ni 4.087935951560231 0.7810977730653829 12.86927037518169 -0.1644143338547491 -1.1774806585749333 0.2835248015663762
Ni 0.3808372813763532 3.7999495785815207 11.687379671815439 -1.1219101203984807 0.49966818836430077 0.9790308324020299
Ni 4.455731773604615 4.597452470780652 0.8002017080199899 0.8700970481130885 0.4933368468296342 -1.011470183877658
Ni 8.399148673379848 5.867144836661194 11.387227029603936 -1.0751155286424452 1.3237360621324685 0.6252876608390392
Ni 1.6654341722077173 2.3616892140919776 5.865089266782329 0.22666768336801607 -0.3831689330232756 -1.096707395880608
Ni 6.348968913794938 0.5347730781340618 8.554407584783203 1.6865583131785922 1.1986711766096194 -0.21944236926417043
Ni 9.331751994300928 7.175131464606664 13.040078935568202 -0.015290093389851087 0.48603954183727255 0.19476029313645812
Ni 6.077012041881659 8.101142688428778 3.438717682280978 -0.1061431089176817 0.0069910866058524755 0.6759905865105454
Ni 3.585377757055385 8.152254917075027 6.0500811654284945 0.7536381590916955 -0.2548536588839288 0.429431563535241
Ni 5.689937622480901 1.9559465766958604 11.544855151973202 0.7980146283245417 0.29380972843215203 1.0029958278580597
Ni 6.335484225142355 4.802389688854455 7.288583145961157 -3.3374767656663873 -0.8957918817760314 -0.4882481194528172
Ni 1.3144942109790625 6.10142721632227 3.4128657687290542 -0.08761985330251361 -0.2767129208508654 0.27712558290825173
Ni 3.7866620894148038 6.0397319486011884 4.93860006896828 -0.5049957712248012 -1.0113151463570325 -0.060671092627811646
Ni 5.054241603661063 9.112541289631075 10.693339320595246 -0.2289323110324767 -0.5000343134544679 -0.12154684506726164
Ni 3.92666433392829 6.341860341852037 10.29861543923321 -0.5005899288476218 -0.5642802679177314 0.683463754959139
Ni 4.1259766714290445 1.3886693890199795 5.67733375819852 -0.8526235739186736 -0.024283812248029148 -1.0293167251407755
Ni 0.7613233598588298 7.61150575547404 5.1512731411590735 -0.2727919885299044 0.4374660038039434 0.19914248136455381
Ni 9.108165339135182 2.42795763179482 13.72519690172686 -1.2391645087379757 -2.044024442119125 -0.3438009727486144
Ni 9.292725277002782 3.806081543546797 1.809202926901253 0.1886058434992881 -0.6240244778558995 3.3600621071660712
Ni 8.433827611537223 4.615228595863758 13.52951209572088 -0.47222423322073515 1.789628696708221 0.015783745196817977
P 2.109687052058044 0.21921915607638923 5.952183828283013 -1.4694672177554176 0.6989127425243576 0.7961711473578998
P 3.335075266780586 7.723317863960329 3.8115204931760287 -0.4258101647325699 1.1255991392142937 -1.3902440731570316
P 8.361314543448609 7.297967963398059 1.2440630060340965 -0.003126975664755905 0.35133636189371104 1.4515869950408873
P 2.682138378624993 7.8159828414141534 9.522429811456243 0.26646527498092826 -0.47736643954330693 -1.5973690585064297
P 0.41754737423815286 1.3543378975757976 2.537132901441523 -1.4250179863031072 0.6915344477824154 -1.5184963552689268
P 1.2285058446895734 3.830412203922037 0.19295969692034168 1.175204203835931 0.9742526942870964 -0.7462691203211341
P 2.540295605576753 5.346782345718118 12.059110093125444 0.7451447769087037 -0.08841149596587354 -0.28862946978279325
P 6.261008552646784 4.56190022061444 13.52171895984847 -0.17465349508425407 -0.5888443304103407 2.6754387846811922
Ni 8.600479957997807 0.11332491025643601 0.5793232591268099 0.755358484216912 -1.203554987064482 0.7469093250082942
Ni 1.5277231979109651 0.11643690595244308 3.7652030291718486 0.6889875129908457 -2.7408715603637055 0.23244829460553515
Ni 8.717362910406376 0.8051091580825526 12.11381041336929 0.11483318049251193 -1.0616249503551782 -1.122930591243195
Ni 7.247165619658173 8.027390080714719 9.636339746854084 0.281824788156134 -0.3987706441162745 -0.5198120103020274
Ni 1.1536733350291017 7.986569787140359 7.52167951157152 1.0482852958234783 0.06205691723174473 0.23596633506112266
Ni 1.804356514774792 5.271818369733735 8.745035632544466 0.3685722661560233 0.4819085503880346 0.5279276974306263
Ni 2.6106113079657116 2.2153859764824726 8.05103805525079 0.8626025395082564 0.5866650633708348 0.40040843683001365
Ni 6.779239411052162 3.4251109177561916 1.8561927472477209 0.3944383352895078 -0.1255953041050224 -2.3770311524657126
Ni 2.9870839073882203 4.324096421562892 6.760392774474351 -0.3653247057530031 0.6245464117976405 -0.2030248471380955
Ni 2.235312515006694 1.3819364351453955 1.0339215996237603 -0.9730645875162661 -0.5017849775969875 0.5338283791857773
Ni 4.959538898186617 7.608237878279681 8.36668024755452 1.2241376963118402 -1.3581945009206546 1.1086080039729358
Ni 4.727078266156878 4.671139345332757 11.957707300357393 -2.2151982061848945 0.5359467110803608 0.3381838836721531
Ni 9.015293771743782 0.5270813591400987 4.939603908255858 -0.6676568698338695 1.277201151795723 1.1757168818062913
Ni 6.844052308740275 4.104866935989625 11.702717096589996 2.571858294284364 -1.7577040800854824 -3.1978185557103957
Ni 4.301869222370229 0.21243549376258264 8.06801223575804 -4.295213721686648 -0.062114252832241416 -1.6743481442656456
Ni 0.4942129000720119 1.302173938338262 7.7942890198785 -0.9060840077306589 -0.9457049645563905 -2.36065733909338
Ni 0.47794018630734497 3.8468548848626174 7.4368931231006465 -0.11085439835042199 0.4615963211932437 -0.3165249106414807
Ni 2.3931378368618264 3.529401274424431 10.74553896354927 3.333274297549266 0.5348017988426402 -0.9740642324253741
Ni 1.9419360227476332 8.077046789346237 1.7728909891918694 -1.8325674050532763 -0.8818323342721458 2.476159263518142
Ni 4.780829211733055 3.9861058932394693 5.1661579461613085 -1.287150292588635 0.17313628710877924 2.5775373469470124
Ni 6.755387663714026 6.568170228013082 13.663831238860729 1.212088992677422 1.1794436958385752 0.029371254073265546
Ni 3.1091597795912738 3.0305898701510467 13.053232141275496 0.025277800730182272 1.1709469712214737 0.16580195823089508
Ni 0.7037711594312857 2.5272710490578576 9.702722728067762 -0.5490593372029189 0.3098107318460987 -0.6211983212610142
Ni 7.498557402331091 1.0569610728891596 2.3926852170895043 0.1726665465612123 0.8872859011875494 0.6774108638968398
P 8.408736324573642 0.3347329806259431 9.01734276830645 0.8567792479582599 -0.08085630932643494 -0.6051677501607127
P 6.79976693848569 1.7632732885526103 0.06411800426172679 -0.05186814962420099 -0.30767491645001854 0.32980902934489653
P 8.915482660540224 4.663805402548866 9.81242574110045 0.4099919667533906 -1.0220263621269494 -2.4397984655009206
P 3.5065449149673364 8.841880300053491 0.8254131927654328 2.423013789843414 0.27255287593590477 -1.8347209610611692
P 3.10704692795699 1.0608299389928257 10.979391260522123 0.34616638765699737 -0.16567854527915338 -0.8999668390893275
P 0.46672141365188435 8.343604151527458 11.330396015867562 -0.5886543258867216 0.10856071722023883 0.8784271652453388
P 6.306946642401964 4.100124757877121 3.7667562098843397 3.8688764808060148 3.941551796983554 0.8573839714217942
P 6.464696840643432 7.095791538126386 5.775492149901484 1.3635295399803227 -0.12948615451899637 -0.22743361499976314
