# total energy = -381171.51269071404 ev
CRYSTAL
PRIMVEC
9.21504309611892 0.00000000000000 0.00000000000000

0.00000000000000 9.21504309611892 0.00000000000000

0.00000000000000 0.00000000000000 13.48714704199751

PRIMCOORD
 96 1
Ni 1.9159549265381581 6.238519755968022 0.33152500247503824 0.8944865327010465 0.11463983353478321 -1.9139898712958263
Ni 8.90989628071324 4.444581216731908 10.139448439768216 0.564599598930363 -0.21771895881516054 -0.02273369415208988
Ni 3.656519935432649 4.538252131083186 4.231821534310204 -1.1819194110725775 0.2042684897372095 0.4881324198105594
Ni 8.975857560096067 7.161424764734301 0.6803282109912616 0.4097191727079783 -0.5702138597933469 0.9384225719623646
Ni 5.452992611554803 0.7458342672389248 1.9984719525735695 1.353433074976269 0.5590904961866758 -0.03672306645264643
Ni 4.564072682191133 8.442463213279042 5.521422601016796 2.2110085935835793 0.40939289971681103 -0.3684658224851461
Ni 7.73319976657081 7.547608796080428 7.736012197762154 0.04667040747334543 0.32060833668223493 0.2017948313857363
Ni 1.0135718190271965 7.965529436283002 7.765899347443955 0.8641783686358084 -0.8715836599609441 1.9608775369863003
Ni 1.3677612203066585 4.201893838438227 12.369305520123724 0.16606523919461078 -0.25914688694264404 -0.1464001566655156
Ni 0.25460427218832643 1.3317672614816618 11.917310414599289 0.037726053795864065 0.13641476331802957 -1.034082264850219
Ni 1.9389648894634057 4.950735895784801 8.690011526872311 0.7800125353201663 0.699993377183046 2.0323464915605642
Ni 7.976283391723036 2.3297103672044046 2.3470060818277116 -0.6499692227461195 -1.9594338625612384 -0.9581799570949497
Ni 5.528076783727378 8.911379902671975 12.781540478658346 -0.5725764464882527 0.09691002035518793 -0.10235304574763018
Ni 0.017874419337646285 7.15007183148484 3.556655590531888 0.9172279401626204 -1.2528057536704942 -0.76741515827113
Ni 7.858128107530995 9.105789669525779 3.3011141484478874 1.587258195324673 -0.08402622241398432 -1.3596245484989617
Ni 3.4585992371112764 4.214076125577665 10.636355822947866 -1.128998908924462 -0.9166756672035761 -0.3613592933473519
Ni 6.49521399995909 5.833159219676986 1.3805176046388252 -0.12771337888928974 1.3123386189288044 -1.147204119078579
Ni 4.6451742775876514 4.59335808955054 1.8717190330554356 -0.8312993585196005 -0.6966383446678841 -1.3500299628319912
Ni 1.4487614502277344 8.63196136209554 13.252281746609228 -0.05347483198968855 -0.0837274602266429 -0.3908804427349204
Ni 7.769811133291679 6.420526074645061 9.776981165162463 -0.7983792107528122 -1.721211127365771 -0.9740184667891032
Ni 1.8018911215366704 7.73910660927609 2.3012174535620877 1.0511551611721057 0.5361038054835154 -1.1438873960005203
Ni 1.304776399884525 9.03973623971073 4.278190710298812 1.2328563071317604 -1.2066076578478768 1.1991902823378833
Ni 3.5790398520223636 0.4416079088046369 3.419706225688649 -0.09419313564465713 -1.4158535461950197 0.6926019698149813
Ni 4.350716786472969 8.962772198720875 10.366707071195359 0.2874485621008146 0.8560932776348288 1.3954510712792678
P 0.3993394270498038 5.131369173021767 4.697856679687627 -0.7277345518520564 -0.2007363082142349 -0.14503104423213087
Ni 2.112806679845783 2.767968607797857 4.830610435351906 -1.7472407186603134 0.02981656914080026 -0.2514502896293347
P 3.7688973875245173 3.514073797307508 6.441461731341044 -0.5985404746521821 0.4811683297879003 0.2846895112984387
Ni 0.012690036020968553 7.449837187495374 5.800713973996768 0.8063804837907339 -0.7672544643235495 -0.019652998344237123
P 8.85771149094725 0.3018313687008991 0.8352552036562326 0.4404448839266092 0.5009917922717307 0.5119619181299893
P 5.840945931199547 8.553025301856184 3.6535877086794195 -1.439495868204308 -0.06076390945193405 0.3267589296646631
P 2.6684737861302965 8.37417974300428 6.080828250336462 -3.618178495961672 0.2393247100103943 0.6934872006334121
Ni 2.163222181313156 6.45095414736399 4.463544854178391 -0.025200924745659825 0.8229106202352731 0.6541166692555895
Ni 3.3240135308544714 8.997190385154916 8.380697543075176 -0.8564509180845638 2.0491067417380386 -2.509990867355606
Ni 7.008722283503112 8.149019376918778 1.076074692688821 -1.3471976355895183 1.2383265862177126 0.6515339961300779
Ni 9.090833654376528 2.8579350747739056 0.28786044167207736 -0.5886257866416313 0.9444674926048637 0.2229598954991257
Ni 5.860297521965674 4.850632881264591 3.7095322360799714 2.3336568992451356 -1.2369240494432312 -0.33811266411458546
Ni 8.703599108103099 8.702705248910569 10.049219344060342 -0.5439132742256052 -0.02052254543338401 -0.8091392774827936
Ni 2.9657234353412343 1.469863899206035 6.471793967610465 0.8204436467520194 -0.6378845236674434 1.2813779088812318
Ni 1.7872023426408576 1.7241898770890582 0.12348618669594734 1.456187469927376 1.407944832870904 0.2590751531644441
Ni 9.106554518113201 1.5334661275240404 4.420318007928473 -0.035318987016268205 1.0230586600462057 0.31407567777003975
Ni 4.579378868982817 2.104190614433245 9.228675035403654 -0.4709589933550663 -0.5689424492800911 -0.252690589794339
Ni 1.5910509326181022 1.0241599036892346 8.953321250392428 -0.06595805205836383 0.7902838353391874 0.2613392666082725
Ni 4.3930967702507875 4.685112274911648 8.393105598773552 -0.1932507984704672 -0.7953849040111785 -0.16096288497103892
Ni 0.07808366874132382 6.614760755677647 11.864359854741553 -1.0946672255221277 0.025591475315859154 0.09483256900086894
Ni 7.039592678296697 1.3606840671121891 0.08375184182715474 0.3085465204216944 0.12026746413420579 -0.1230383420111236
Ni 3.3247691643986728 6.351947722987195 6.704190907138178 -0.23897992507646584 1.1085396126288456 0.06300693984983988
Ni 3.541073873947866 0.34658514761269626 0.8287659702193246 -0.6681093839902559 -2.2941071619769717 0.016374584703281476
Ni 7.472791860161291 5.612799891110128 5.8013341464056065 0.038537236843249764 -0.21717414205528401 0.05227978324032287
Ni 8.759110528472219 5.1471268969313275 1.990432748866727 -0.3896555691888838 -0.5241484328938522 -0.02472989864651225
Ni 5.54351198112417 9.040823614810924 8.355611430912019 2.7970481075552733 -2.0847975102714287 1.835168847231865
Ni 6.874717124969292 0.8509650093410394 10.825769193366721 -1.3312223432071848 1.1200905506912389 0.14702853427813387
Ni 6.421383073664704 7.715258077417644 10.72093333264771 -2.0522265183139434 1.0131010346128617 0.9993762288276016
Ni 5.485567789344452 6.606292130956661 7.54214796146709 1.1020727739575795 0.8362551598629792 0.19148213660581861
Ni 9.081139428907022 5.380811177997149 7.756229081086825 -1.4182693547253638 0.7353064506620433 0.02942627568091706
Ni 6.941553833458206 3.6595608996958977 0.7642468451007339 -1.2821325276590692 0.322705842641212 -0.6325116893913042
Ni 1.9641864627619252 5.2675490817559725 2.33381566895979 -0.07643221211681031 0.2352461690656465 2.422646379201667
P 7.963677212595386 0.4539136775232495 8.062171280569043 0.1769176085280824 -0.051521050697427406 0.5501253165735881
Ni 3.5455431699105193 7.656908423736159 12.109111402716954 0.23419561631394506 -0.8457078206354467 1.1587211185792432
P 1.2179061874310573 2.8976426960173542 10.300767907916264 2.205123595557712 0.26018252729601 1.2048595648085185
Ni 4.583184681833489 2.300388099672111 0.22395503843206951 0.4946954177400577 1.034914016722895 -1.1271945087258717
P 4.8386348949895925 1.950115091761984 11.430263127667141 1.6693437490725185 -0.520049323123814 0.4451605442347237
P 5.575313095283172 2.7860669526857973 2.9013959831216605 0.22661703263573876 0.9409520232524375 -1.1578253462378512
P 4.862124040162382 5.992561037330544 10.651339483226781 -1.7849474891824681 0.6697317500850272 -0.7191496383965228
Ni 6.920442169436685 2.7201886086919664 8.525185734778304 -0.6978207950117595 -0.05359644516921737 -0.4919229972012431
Ni 2.0977953744372013 6.160505200050863 11.009045344999747 1.2014564526642406 -0.5685177030378468 -0.437145387239731
Ni 4.2841749593671565 4.911793123128776 12.783280278818655 -0.35815672724965414 0.552310754260681 0.8199883043821555
Ni 7.549663750718925 1.3740366647408169 6.21696761288049 1.1884662110521595 0.035228484184990944 1.3428270173256487
Ni 5.759475734074151 3.7214306998881734 10.649101149228168 -0.8674403272165319 -0.6490783355007338 -1.7037795621528853
Ni 8.08010928370492 8.692808292490177 12.397399422394532 -0.24999504524004687 -0.6114391849917211 -0.04865349934164524
Ni 7.629290939199929 3.132911964517353 11.62849713745806 1.20396687779092 -0.47135879989664625 1.5002934591076549
Ni 0.8186561463005064 3.2328951834756774 2.923743384439249 0.5282280022798644 0.7534237290880443 -0.11056797745825474
Ni 5.303340309630086 1.222191182529271 6.875275556588543 -0.5913185029824461 1.8151972892059447 -1.8553417226353146
Ni 2.8341418331747907 1.501084465642054 11.409223340982749 -1.665569883852383 -0.005120609056016988 -0.3323896455878792
Ni 0.8740357915515519 0.6621662823050899 6.564841945039939 -1.5658313929094647 0.924565354364298 -0.40038941066662015
Ni 3.317074603308331 6.983528355334259 8.936098334610573 0.8845127093177864 -2.2307528660900418 1.9662406010704265
Ni 8.80239358648579 3.5004631784686646 6.184315950232099 0.3160767673604685 -0.2502824945734787 0.3472979301582793
Ni 8.718103586134474 1.90644500193309 9.625277594616534 -1.4506709109845208 -1.0245154470973905 1.0042343282508512
Ni 7.045379725440091 7.981112074371345 5.5748182474621535 -1.3066104581957756 1.1153934023258856 -0.4156082844989036
Ni 6.520076186571954 5.434544095024429 11.785635740496303 2.2661860100866713 0.7544593694414103 1.8253994265499274
Ni 0.7391340093122338 3.0886336818358093 8.126895901151483 0.5338654030712999 -0.11936423559364605 -1.1796426992232587
Ni 4.014201838093236 6.654726398131311 2.958944849547157 0.9521142105168442 1.2283337366710587 -0.6152662720472952
Ni 1.8093921667193502 4.791942270983894 6.413233289439198 -0.6150431002928957 -1.6228587181371017 -1.4244361456577082
Ni 1.5597197856634197 1.0479807904180152 2.3655780799372605 -1.5002469221404355 -0.7097298877445196 -0.6180273797322001
Ni 7.112594250701107 6.852766892014571 3.4212847625925713 -1.8663563285782632 -1.0366489971361308 -0.24357191532252245
Ni 3.3072697973201604 2.5819906054921518 2.3419894122976737 0.10344190793643476 -0.1303713853374271 0.5937607938753516
Ni 6.573809103599233 1.5021534106558019 4.278985968528867 -0.9288349282739294 -0.058624494511428066 -0.22402098977378837
Ni 7.939736530304721 3.632247511585992 4.127350589302782 -0.4012587006454509 1.5250338992771284 -0.15832647578945636
Ni 5.998771976462148 3.3968768776105516 6.150381553567212 0.005361007201597218 -0.4409814731563695 -1.7301832489573947
P 4.4722447764842475 7.216539938244876 0.7360755364668635 0.2046292155107379 0.19273092141125517 -0.47298759374932087
Ni 1.7350175528748675 8.571814774985771 10.583688164917044 1.0013451796285142 -0.595859071165277 0.5011319173940209
P 2.7685860156937285 4.0370275001540445 0.901164878797018 -0.5714644443709964 -0.5463761339438009 -2.9601182686773018
Ni 5.083976205731199 6.119802354139442 5.251948935085507 0.17862919190255044 1.1036704574620022 0.6926564772020006
P 8.279743980065579 5.222699466394666 13.194273971031278 0.2546068329804454 -0.9530511205088169 0.9200430410139123
P 0.5459139045383854 6.743900371390271 9.59160029765754 1.9654867536235376 -0.3829143938103083 -0.623737799853416
P 6.514325999601446 4.626053062902073 7.646147096261547 1.52678044965459 2.3116803949740445 1.3209456438715252
Ni 4.343335536852174 2.330982043169036 4.657934347937107 0.8406409476355006 -0.96516255906037 -0.020554684222900084
