# total energy = -381169.88924240944 ev
CRYSTAL
PRIMVEC
9.25284412333336 0.00000000000000 0.00000000000000

0.00000000000000 9.25284412333336 0.00000000000000

0.00000000000000 0.00000000000000 13.54247266631293

PRIMCOORD
 96 1
Ni 0.3486499354177938 5.6731314334855085 2.476972442800091 -1.477955971952719 -0.9234381827383904 -2.788882541025345
Ni 7.067997657062084 7.510357620025592 0.8043959877056687 -0.3698583319572985 0.5339741607350222 -0.6991425991469765
Ni 2.8420202682439046 7.873263412097876 10.840017568325505 -0.24148623643808728 -0.1392522327668247 -0.5327189481716825
Ni 0.3594267227517881 5.348042014585745 11.52056794106545 -0.8170415630490058 -0.14152791617487886 0.783994659896366
Ni 8.285468356669107 8.713162561991693 12.416930720519009 -0.9095503690127045 0.7848960886647127 1.773008828763353
Ni 6.322366481203413 2.6332761090141363 3.0159357976085674 -0.8315384711136002 -0.10122973077646437 0.2848018685065869
Ni 6.995779210129976 8.09226897525432 9.42166022456043 -0.28251307247241025 -0.24402674347175393 -0.07123601262785151
Ni 1.5556251341465213 3.5873831116283887 1.6283608150547344 -1.5040439272890227 1.066631145320518 -0.20636753835808327
Ni 1.4261685946171028 3.4134574041353942 12.605468519158087 0.22571020455075322 0.5178975668881339 1.4560018362791312
Ni 4.463784730855602 1.738118975125631 7.867959681952907 -0.47963903762756754 -2.595359462730098 2.136009000148237
Ni 8.29499878592472 1.1234155409824391 3.967660192908916 -2.049168705324226 -0.04949090764127606 -0.6033165558845868
Ni 0.6159618209186906 7.996150432431677 0.9669878866596318 -0.5694093616141807 0.15033934381892172 2.1777277200432623
Ni 8.724210457653056 3.135816568947078 2.6880862553622507 0.0005322183543861801 0.38798460924436406 0.8256259622839072
Ni 2.495353217281915 5.479561938313224 5.865921839198257 -1.4966090682775322 -1.132767374827959 1.837712182479009
Ni 6.906267197878701 0.9700589055624845 8.023346391332746 -1.3779917381522397 0.5982214007498665 -0.22604727617519782
Ni 0.9726774603967941 6.835399666161467 4.162942389494031 0.5500317284185172 0.17695951750961136 1.1154399392931047
Ni 4.333032793174935 6.654895186628917 12.296212566804154 -0.7435008135473776 0.029243213135833505 1.5112124200130037
Ni 9.074125256837105 7.695062890705762 10.720925139290468 -0.8799639136048394 -2.0323187236464224 -2.2868869900794486
Ni 7.1638478674105395 4.821832779860705 10.480844373497604 -0.8838943590074971 -0.20549182062134932 -0.8482580978611262
Ni 4.821425654727454 1.5801359177369316 0.4727407507478622 1.332152311220622 -0.6953800467807508 1.3056619782395773
Ni 2.526757369605755 5.197054107213788 3.022571937280535 0.09413271472036691 0.8504358222387354 -0.8061493416165343
Ni 6.377763257857163 7.475465145537318 4.933955966842023 -0.17009107252455222 -2.219903582080364 -0.32884383721814975
Ni 2.8643936448847542 5.009313903722121 10.792185916875045 -0.6757327048634685 0.186900173662091 0.8907651179854014
Ni 7.810704934236509 5.404095743159058 4.050933012493142 -0.3382193648957788 0.5472436241504188 -0.06597913510428637
P 3.778972498198051 1.341754899375384 3.264453306503635 1.5886748731665414 1.138502220429207 -0.8417565492971825
Ni 2.1094911194007184 7.890732781451857 5.945605480619131 0.3777097096809172 0.7053081045277402 0.4561391547334145
P 0.9017997505512292 2.0942424325917353 4.349381643128086 0.4427773887145277 2.258837283031084 1.0018388314354811
Ni 6.682977567979198 1.6140938549875188 12.503751080468868 -0.45280700503638793 -0.5363223492522248 0.5788720496889773
P 5.864554268864296 6.031910457161672 8.50373831873252 1.4661870043422491 -0.23936841876413617 -1.2221463769134242
P 0.4358311562812157 6.24128380977919 6.477648633446758 -0.4330434492562155 0.05462694331626076 0.0015802000029263108
P 5.283697737844441 8.471829886414085 13.212456006741805 1.0595225593001947 0.2515631610581151 0.2705201617765921
Ni 6.778457664570156 7.07225396527333 11.462849625867781 -0.04694500129097077 0.7100011391280353 0.7441788134510087
Ni 0.810649984923018 4.272472929604065 4.730263860402125 -1.4375459435667888 0.06813294822249556 -0.4882103242363463
Ni 5.493940857792082 9.158409412263698 11.073869319579652 -0.7260453370750916 -0.12535362040786152 0.2874968988402468
Ni 8.164626214845491 7.9067494543076515 3.0853404546992844 -0.24386244997974774 0.12721175666252285 -0.22078191401120043
Ni 6.358841192004997 3.564547092790664 7.893690915658672 1.2482461593242695 0.13235550564699142 0.19733628139375048
Ni 5.263073148707777 4.12796201298835 12.010845606928035 -0.892589829898966 -0.04140298842681901 0.17485455535146663
Ni 4.064496756421108 8.999001416908627 1.783895569937574 1.3737969833446018 -0.011790821987340983 0.6547579023840143
Ni 4.18450614229035 6.872050180997864 7.178174045678954 0.6591673443056195 -2.4419103696376006 -1.1787279007184732
Ni 3.0247731888532643 3.4744891627470764 4.354514195660212 0.9366955619689287 1.0961484380533446 -0.6998468243028528
Ni 0.0958899975773872 0.7389959614710976 6.065348384582973 -0.06583721020978339 2.3220473400306654 2.191165076495091
Ni 3.088164422669006 8.572833930835724 13.423678077578032 -0.7722313487128507 0.15462151613404337 -1.7106482642482603
Ni -0.24015848968193937 1.5783686245448711 8.490656647973697 2.58911785269576 0.32763310473950025 -0.762682528682151
Ni 4.156571806443068 3.6087664339679275 7.016138242645635 -2.929519569954839 3.539694543522155 0.3007103122067272
Ni 2.3112401286137443 7.5481369818223625 8.274884028489012 -0.346049659573475 0.4812194947408099 1.3594484279324135
Ni 1.380126443184154 2.753072679472816 6.5692906503724435 0.5683978896305308 1.2580351203902334 -0.31998921504099725
Ni 6.7077566840437965 8.076289313774275 7.166744007562974 1.0334392319495815 -1.6941335544226885 0.302675149242582
Ni 5.534061189105038 2.279567643815717 10.379668226178728 0.48199905321931186 0.24286177662937528 -0.9508158034203948
Ni 5.9932983394105275 0.12294623853500088 3.837666063146729 -0.6593475786372257 1.6162586963220809 -1.0447687980297877
Ni 3.8181027752096948 3.4235800154030085 1.6949350271849728 1.0453269845261028 0.020928265512234923 -0.14815339191119647
Ni 8.280101707185361 3.0439728400235553 11.707656744343915 0.6274404455159839 0.5682042855624859 -0.7469064967948169
Ni 0.3782266510639797 3.994748818820311 9.559102893692296 0.0022065207330155545 0.08353128505543679 0.5247814384921606
Ni 7.258883827492496 5.271789327696892 1.7384881635987368 1.090624937131954 0.9426859752244088 0.9507199012724789
Ni 1.0385021921680961 0.06584138689038933 10.004744840400432 0.7041626780693873 0.5610856722398337 -0.8330266256233524
Ni 4.539093627662831 4.434175630255635 9.280927244124394 0.33422644168630183 -0.4272726082107093 0.06981342124871202
Ni 8.52846654415546 8.063983031337415 5.625353448529887 0.17385079667730058 -2.337796889555438 -0.8618422643034642
P 7.691990946518516 2.8051384323090707 9.597076565211754 -0.9074394933172887 1.015395229963677 -0.6284524317202661
Ni 5.198303241145349 5.648629902739035 0.6238054567245005 -0.4380326749406908 -0.39344846057241273 0.3486891540788511
P 7.027026064106879 0.7691222960471703 5.782906248675493 -0.11058597518038375 -0.4025712488092873 0.2349990860518469
Ni 3.041150722622621 1.5767863882315605 5.296610081559208 -0.24035777926059892 -3.507933191950159 1.1275349227844258
P 1.2086434864906568 6.274816116208653 9.68296238792393 0.288934916838354 -0.2505907698425168 0.3305446219593404
P 4.860481908987599 4.32155001384851 5.242616036046381 1.1658674998160372 0.9562639710191594 -2.002411394564029
P 9.262004252987834 0.5798868329752056 2.0974855543918256 0.08299315316377966 -0.5626162499517471 -0.9488671643344562
Ni 3.3944890740635403 0.7531121001821319 9.88549048659649 0.12433469222504395 0.5865545059348994 -0.19752602880705336
Ni 7.413332298497075 5.590919915100913 6.424182925322762 -0.24177162888899006 0.4261768040433692 0.2223369172031461
Ni 8.415285757112086 3.6508021039759435 0.44292716229687656 3.855354535060179 -0.3149876480613478 -0.32595108905138703
Ni 4.939806540063699 8.881397770463131 6.094112700531447 -1.8121808709771239 1.6790542914920632 -1.506982441092056
Ni 8.289382309654663 6.0296250047091124 8.770538521963672 0.24483458408502995 0.2828753409078354 -0.3542540497611383
Ni 3.8437424057604788 6.286761537731952 4.468474072163122 2.6838468062392296 1.307844844823509 -0.2636072367068428
Ni 7.187701699081388 5.359941171889356 12.788820098770202 0.008923013521242697 -0.5545663830640771 0.23900949276282063
Ni 2.2641986700355465 4.809378451920844 8.218438904617143 0.005747444006738488 0.11038902867822924 0.0703968045560078
Ni 2.4628849879052637 1.7477789441963705 0.7986323912170064 -0.5702115458005018 -1.8517203238326432 -0.8676478152416476
Ni 6.40737235845713 3.4350257833536832 0.7189006350076574 -3.868857711752937 -1.2881918464792719 0.051330789063492234
Ni 7.26240916103268 1.0141302012367481 1.4010637784459057 -0.3576090822763003 -0.2053439821895754 -0.10584228984781126
Ni 5.68469748840737 6.978263576556309 2.7674858344742437 0.3046096472611335 1.9657883440243564 -0.39310110453532293
Ni 1.0863393953249179 9.265242748365953 4.1799518925043175 1.2237625723606085 -1.359521190151878 -1.8100897927760506
Ni 9.191987982912847 8.176886233062664 7.939978267455965 0.17375900829444269 0.09878923965577179 0.18151216987730032
Ni 8.917807711357153 3.965176729596094 7.388935324887096 -0.7205670875693396 0.49423416183292307 -0.6373805874478312
Ni 5.197109624277412 4.883928615525198 2.860387163459822 -0.15599165700869264 -1.7177761335422932 2.052244258925756
Ni 1.4584887784907543 2.214992045975976 10.720559651954938 0.3273896212701265 -0.14056760914413854 -0.3420811618440302
Ni 4.682725524104484 8.63256103845222 8.32367797570897 0.029719895661935912 1.1043248032165496 2.8019977382510644
Ni 4.822841339849891 6.691517942933501 10.196087176036963 -3.7795216470902645e-05 0.3594337941898648 -1.6979040772087146
Ni 2.6746085628829026 6.211637697803472 0.821210255708875 -0.15260859946907263 -0.1868418096203298 -1.0637571662068324
Ni 3.889358926372303 2.02242185794894 12.112211437547627 -1.4434502248663656 0.09194701992295777 -1.2026905821816578
Ni 5.3147502820986565 2.1538122418612944 5.799495672571018 1.801321302554801 -0.44771005012945475 -1.90565152663346
Ni 9.113810704484997 1.479363194413731 -0.20007794559791517 1.0100920725832088 -0.29302657040922436 0.6657951340347824
Ni 1.2070705030212836 7.395372528414407 12.505416592377616 0.40931448107039187 -0.6951033960805965 -0.838142349583363
Ni 7.654544687103495 3.257500719569005 5.119568941512461 -0.2525064988079909 -0.16587497756067562 0.5700256550419409
P -0.22041754714130507 5.727491891618261 0.2187816443331569 1.1965217343667844 1.4047134704178001 0.3868543522946628
Ni 2.057767721790151 0.8197816166049265 7.452449621527206 0.7687261637730696 -1.6761515160229714 1.557494333798679
P 3.29342025973434 4.451663505297491 13.149903080586801 0.7800624147214953 -0.313400506079886 -0.48318176067350327
Ni 7.7805869272199795 0.8366810107723578 10.402297906596646 -0.005861343876783454 -0.8030241657239913 0.8140742528905658
P 1.6686671285308332 0.6345618878018323 12.356192277060144 0.18687600529237494 -0.04802203640523342 -0.47683499251986905
P 2.3966993952203994 2.641548151494252 8.773450391950801 0.2600881678099908 -0.2742613739865793 -0.39841557476970096
P 2.4637732609232623 7.530963703474381 2.4727337149923274 -0.7331958320769437 -0.6206401347646988 0.12337978451094236
Ni 3.515867880835531 8.563756890933046 3.959846166203706 0.17608868486888382 0.03342356976576824 2.0018331534630556
