# total energy = -340860.1419602165 ev
CRYSTAL
PRIMVEC
9.28497074756718 0.00000000000000 0.00000000000000

0.00000000000000 9.28497074756718 0.00000000000000

0.00000000000000 0.00000000000000 13.58949322829267

PRIMCOORD
 96 1
Ni 2.6754921952506807 7.512163482368334 7.417457708552559 -0.7169348901333911 -1.1058607802451021 1.2305531129198806
Ni 4.340872415539027 6.46873703212183 8.606157740667417 -1.5301033433802358 -0.2794642583437574 1.8920149096866319
Ni 1.27645136279021 2.5896619250369497 7.0538164690690355 0.45538942105158353 0.40143739231516024 1.0184509860708653
Ni 8.291878191527605 3.8801985885534935 10.45586505856903 -0.7693221454858558 1.1997926918085724 0.25832773347545834
Ni 0.208611010282781 5.988564766424825 0.5030012234398108 -0.5010223883993501 0.028697367934692512 -0.5837208931408463
Ni 4.670293895083917 3.8410624365683272 0.29685537290840863 1.4975616619987886 1.121288941874714 -4.1215868680946945
Ni 0.7977145535812021 2.4564225938418995 10.455158472290009 1.2547585065214906 -0.7396325888412228 0.4121277821494709
Ni 7.522423375118894 8.759209342587482 6.293784041043373 -0.620922441891808 -1.9466739917924087 2.7443384358663834
Ni 4.469599250917994 0.3916929933097578 5.13513017448581 3.1706183411465205 -0.552002736101959 -1.3631554444703555
Ni 5.019993750888738 6.440882119676871 4.131627241749582 -0.42261479772372373 -0.30463047319673986 1.052691138200658
Ni 3.729949190825389 2.420053363159599 6.744764358498061 0.8271763374901625 -0.16694301381387378 1.9442666679024967
Ni 3.861870056164711 4.7767739403901786 11.456989181782456 0.7882750324392745 2.4182528781196613 -1.0515336275574472
Ni 4.275199816964631 4.633358281181903 2.17656150301616 1.3184110503751294 2.759877669152563 3.711577674950124
Ni 0.18583961935902768 8.466305653257933 1.490658424983183 1.104031440345847 -0.07859682386829689 0.9817795987917608
Ni 0.6768056636284535 6.543629606715507 8.848689534828585 2.043613836944268 -1.3446859249112584 -1.176604169507251
Ni 4.823783747626453 7.390353950246531 6.401072807307618 0.3506395929370026 2.30240951119508 -0.6499856778063515
Ni 7.432758411958573 8.865967937018192 11.565215730099016 0.3711793647615672 0.21206073208811863 0.9971936193539858
Ni 2.895156034791621 4.696068974066319 7.6770441371066935 -0.37195172415121747 0.9129763639751179 -0.8211964657576438
Ni 6.539070686045349 0.8904676980345869 3.57633306267977 -0.9070162897369412 1.5834655610514599 -0.7639865922055552
Ni 2.793476319396709 7.671716420853055 3.550513415837457 0.43347436614604706 1.7435421867628036 -1.1170193679650828
Ni 3.0569837911260134 9.0439144026874 13.513568434933203 1.390387283603115 -0.12310236247983959 0.06932465453775158
Ni 6.70475170526796 2.083454601174724 11.908527525983127 3.2185907552607405 0.6471173551196211 -0.22715593585834426
Ni 5.938212369695155 5.523137034382018 7.392113452215972 0.4016672489377792 1.1060279019505854 -2.125570578423733
Ni 0.674234655209784 5.845548360961595 11.170400201104178 0.7280631388360687 -0.47989974748812186 1.4382260003529488
P 0.49890655131040196 4.1778840378527615 12.502279125671528 -0.6771383269617435 -0.565903148233135 1.0309516896410373
P 0.883162282997356 4.100790925175932 8.746985678509555 -0.9243087582688017 0.292941724004902 -0.26558338659660713
P 0.33419859702920107 2.196721960146739 5.233912050489366 1.6815158656586782 -1.7563902463700654 0.09002923407495461
P 8.121693961459725 1.6339505940796184 10.394562895757245 -0.4757744124658387 -0.47312103400339167 -0.2866044689329645
P 6.101330736972831 8.196809375352963 7.983283830017809 -0.6089812103695319 0.39209888852305375 -0.023141985334102083
P 2.841033939911067 3.181318835309492 2.4303178983955664 -1.2226048046070814 -1.5846598384698773 2.4935823440905955
P 7.300438292874206 2.927839132060372 0.39755552388234 -0.6692992905332988 0.5381133797143766 -1.0493705584678572
P 4.878240101456346 8.727900420999351 11.988813740123229 -0.003165799322491322 1.419557220298852 -0.7893831779017889
Ni 6.1522959417762895 0.7019038682384424 9.856364204951985 -0.3599256462246188 0.30948368752398314 0.5336219196019261
Ni 8.003839826905107 3.580303316200258 6.483316293295521 0.697687868978321 0.22191114251963717 -0.3742829433875554
Ni 8.067191182775757 5.580703853434932 8.233303024644183 -0.2150216144886555 -0.9930906529292058 -0.02739073330812702
Ni 8.117580719388686 8.599554269423798 8.718815077056886 -2.1380244879163692 -5.381622049634093 1.3152768756215218
Ni 2.1704640626819587 0.29372726624083983 2.2380131538580637 1.4968594937254414 -0.669173563588712 1.6858846841503352
Ni 0.7748530984405434 2.118161822081142 3.0123555789037826 0.4082197053443163 -1.1618774048200378 0.1679169476913689
Ni 8.819598792768153 1.1065456818467798 8.335278930608094 1.477596017510139 5.547576474282453 -1.0870616452607278
Ni 4.980059091413483 2.9188605652822806 3.776914430201751 -0.6169536870520471 -0.6453651483152046 0.5503037511329812
Ni 4.882919726747099 2.9521843255372655 10.90931889224883 0.3220525253279292 -0.4669213329505829 -2.2384376363288094
Ni 0.543852309534505 8.011091389111611 6.661392748556139 -0.7256229048256922 -0.6063039206476849 0.12215413963395737
Ni 9.212557327599994 3.3715586023377413 1.3109868117365506 -0.08434863875040957 1.5496828081740601 -1.2865401698084615
Ni 7.3798433632839675 3.3702401364820136 3.1751991110453344 -0.9682764220990032 -0.6829623898426883 -0.9021761880358204
Ni 3.3435551303597433 0.9780231158257426 10.771100031205702 -0.19392417038840795 0.14159116531264646 0.5266825121696156
Ni 1.347035710925734 -0.07840786454423136 4.776584526985552 -1.6581869611247506 0.20829946527347354 -1.1481140324873582
Ni 2.1972604884540083 5.598438147691555 3.2163473162061083 -0.7968308924290858 -1.846457789882123 -0.44764011612346777
Ni 0.9458785468642609 8.105723811657949 12.921216080346618 -1.5770977098519032 0.0022216902416671413 -0.92273755712694
Ni 2.6457802886427255 7.96435084602897 11.256095839241091 2.4849439516893073 0.35133096257707236 -0.38927581725196186
Ni 2.8910706476330272 0.2380211553392494 6.520184126910586 -1.776406541590992 0.5059388518643609 1.171975412485988
Ni 4.948778024737795 6.7225045694662136 12.537720787769413 0.8266880849998344 -0.7577033303000048 0.36655729260852354
Ni 2.593459478100279 6.405339251397105 5.3545321778497685 -1.245503563582126 0.15161049722186148 1.029385116484866
Ni 5.686264686630508 2.232933346325185 1.6123658224260204 0.1911617771519224 0.7298809087710978 0.3766365312213965
Ni -0.07286287997352167 3.9264841680661986 4.33844532416799 0.23532150238827215 2.612980004025339 -0.8581936118072833
Ni 1.3177323430336378 1.257742146598013 0.48921675576788254 0.9988848910134798 1.0122150324634824 0.5573665715170337
Ni 7.976913411541647 1.120454568127629 1.429927287876522 -0.10519925694717365 0.015887103543901673 -0.43831138252337415
P 4.386842306044024 1.7065033560279197 8.915102145576936 0.18538502256914524 1.507957917631448 -0.13060689838700085
P 5.856773890676913 5.222619668984179 9.628984554663791 0.405285819526973 -1.6715322720834052 0.7411279424398268
P 3.267474079501748 2.4602758567301186 0.437888508605558 -1.1621324582536372 -3.8501783901758784 1.343273617944764
P 5.724750890658626 5.747248374943337 0.8599517129540537 0.860158448843138 0.4067096964576931 -1.1660014542907404
P 7.737611858727011 8.496843922268422 0.19956559171482158 -0.33792368803223094 0.5562260301546872 -1.5892371734279145
P 1.502995365705055 0.7092464231589334 11.914737314464189 0.5262359115505002 -0.21771304527788957 -0.7182104144117051
P 5.623897537666247 2.1856449899644605 5.86681558661332 0.8322835768097409 1.1198257270656264 -1.8721580228617045
P 2.2150969173895967 7.184961110848225 1.0976311813673116 -0.5003631575487963 0.7809013656830229 1.6827636220228503
Ni 2.8481555125261617 3.2616802577131963 9.499341292665386 0.7103873188228603 -0.23479545468147306 0.26840722919864746
Ni 7.51467042448838 6.3970106325760625 11.982807292503015 -0.5873338073030853 -0.2751021247203198 2.024520824868558
Ni 7.286668681155582 5.7564033561669135 3.7376408606485234 0.7321146831976231 0.11852039953611203 -0.37758449695696256
Ni 0.9129735387930318 8.441431216444585 9.978139382681773 0.2107921497883402 2.410231293366765 0.7691817632532495
Ni 7.007980282143776 8.151693702162945 4.3013462947796315 0.16552273642757945 -1.9185672062538637 -1.64443695852851
Ni 0.09476426913191083 6.673916317191392 4.413907995969708 0.720029984118947 0.7654652336336107 -0.014413604322168724
Ni 6.516601056673083 3.585066506228346 8.102871468623585 -0.7895302450026144 -1.7026626749396223 2.5887864374982703
Ni 9.039680455995766 1.7370044851551487 12.738464642280654 -2.4881254347410824 0.9529814436131457 -1.8921079836210706
Ni 6.474048035428002 1.2657550764113459 7.569333833167448 -0.9931323048004186 -0.5269329376175247 0.8557163539113842
Ni 5.3765180602425735 0.0992424105559786 1.06079027416761 0.5093977569472389 -1.1956002509937795 -0.060994794515817526
Ni 7.721326019917526 1.4556977243735159 5.632233584463942 0.17570096251216194 1.238525846712712 -1.7843183402389013
Ni 6.350669343238467 4.3819212715120806 12.371630301333859 0.3126597712591196 0.4133236022297849 0.2935590458739267
Ni 2.148050143134582 4.7229489645757035 1.0115353609882718 -0.2924665841406963 -0.337538022558038 -0.662501293774859
Ni 0.538152265951185 5.099259546736274 6.178558481726477 0.6256381021999226 0.9692061330021243 1.9213812786638913
Ni 2.5118910094906264 3.3682531527276063 12.36684668436998 -1.6038312691920056 -1.1236175900078909 -1.1511700457048626
Ni 2.6602926980265487 6.3036316810897475 12.859016989354108 -0.4035608664160663 -0.9020203791842465 -0.423900863524999
Ni 6.073810083477213 4.493424486029248 5.1094860135919005 0.25013851279644667 -1.3669480787435684 1.095049548562211
Ni 4.889883454858339 1.5231437523735747 12.752543443527419 -2.829741484023236 -1.18044951139527 1.5912140946486273
Ni 4.194829109590112 8.870861116637691 8.865364413915218 -0.6139411254779684 -0.360145989765541 -0.21077466628684344
Ni 2.7918514495040863 1.7973660804233733 4.514198679730698 -0.8289802234681207 -0.05193885496113635 -1.297215904354753
Ni 6.147282057536197 7.352749818445838 9.993767845557558 0.5770869327640964 0.08532720061359499 0.8111971884530867
Ni 2.730812051366368 3.8714521460457765 5.321985569651997 -0.5963882041958696 2.0619110925915587 -0.7298384855689366
Ni 4.965853086066555 7.29167328042486 2.1155443888083973 -0.5290402137685147 -0.2874071673399179 -0.8776524918628433
Ni 7.516341719235078 7.302787390490399 1.8852436867018088 -0.9236330723580157 -1.6683142793667398 0.36578596166013777
P 4.3067872876772135 5.387418615979367 5.9211187384247665 -0.41866429771640806 -1.5980689127869316 0.5190692185987319
P 0.008118778480623819 5.353110648817994 2.58727661603458 -0.6926009413737169 -0.06524302826921022 -0.1821156077892541
P 7.9422433305184885 6.642393841274514 6.1760710380451425 0.7583880150718552 -1.3755684734227278 -0.5590030786791921
P 4.296880223817624 9.192278951340064 3.046642190632282 0.3680022525851662 0.6287259970966269 -0.5742780025603915
P 8.68399179401528 0.28227518323763595 3.2798648730543465 0.18574163457761558 -1.011751976784135 1.4288077923628426
P 1.427564262804108 9.466956242959796 8.105046008788454 0.38477227295465344 -0.4246657667154815 -0.2269060246310673
P 2.6168390346124135 6.075797067231619 10.210099309073 1.045927080003947 -0.03677140319207861 -1.1921614005155596
P 8.537781358591696 7.1437451254005015 10.447778777486258 -1.2425455093950666 1.640472317453807 -2.1956899609486378
