# total energy = -381171.8830283966 ev
CRYSTAL
PRIMVEC
9.16863981262271 0.00000000000000 0.00000000000000

0.00000000000000 9.16863981262271 0.00000000000000

0.00000000000000 0.00000000000000 13.41923114608579

PRIMCOORD
 96 1
Ni 5.789950110026359 8.78104459904687 10.887827459104372 1.309100571607481 -0.2567303070813514 -0.5332295692595139
Ni 7.12552751384954 3.939507745390297 10.722851541156075 -1.7662753666942612 -1.7432274837358623 -0.5213965811803278
Ni 2.6175732773998925 6.977096406190387 8.599526621401335 -0.11142903990696938 0.3304931998961147 -1.5435350434051094
Ni 6.052704985762722 0.13024236027671862 0.09415459452550325 -1.0721109374881665 0.0719939738397986 0.544134903318108
Ni 3.191594301380162 4.988638508563206 5.708809482652094 0.5661018945075025 -1.1655376272804443 -0.46633203610601626
Ni 4.378960644896332 2.9408320063355124 1.6832815598537934 -0.14223008444822605 1.325762091423562 -0.033396830292890874
Ni 8.648942838644556 4.750492261708006 9.229491934071692 0.7424870275708826 -0.3041599613182246 -0.7097831095799582
Ni 8.254902211436736 3.3962566761511552 12.957864245082165 0.39416117036872117 0.12619257136938913 0.30848404261487516
Ni 6.473224644344911 7.424562696770242 8.362878530268631 0.6543920344041634 0.9917356815632081 -0.6452556193205339
Ni 2.3932166646122295 6.678501317973966 0.3721376638940306 -0.908923276951667 -0.1970344338826155 1.477574163133268
Ni -0.062349500365342946 7.095848627229446 10.075695029099657 0.6327955391803103 -0.3483471973584001 0.6767382633098473
Ni 8.933519076801625 9.258125595769112 4.092006978472167 0.46755459565920765 -1.274347998617644 0.44317976635926903
Ni 3.673479665290827 1.2505015963014514 0.22063781253647027 -0.1374329201698988 2.042623190896224 2.430148344005666
Ni 8.619300626583154 7.883654822454911 1.0148721410363701 -0.10588239905712732 -1.298896891601602 0.6762032167419838
Ni 1.9635100290781318 5.086596254824888 12.276770930141716 -0.6187439461832505 -2.443936398928694 -0.7307031475620771
Ni 8.062883390774209 5.804042309203091 2.543884003487521 -0.5700649929203085 0.673152345730802 0.7902285566212196
Ni 0.20107285233918407 3.7377334921161616 4.173434584268183 -2.5460716722385635 1.190692272169201 -2.242852220456737
Ni 1.3964846771680293 8.068430417776112 6.393606011156292 -1.1334811130655316 0.6436453374106205 -0.056514133036644605
Ni 5.143111749766578 2.182585505414397 10.6283797116979 -0.4965062456965514 0.8651738997798584 0.6301002517363342
Ni 2.1544194443402773 8.26085265858423 10.61353843465992 -0.6262664798125408 1.9928499761278387 -0.6108452601614642
Ni 0.6987099392073154 7.074256480800557 12.253797986578137 0.32660929146067624 1.4029484080975771 -0.22373559732288564
Ni 4.67165112916362 8.84281372452094 4.477836171989238 0.21401477049069595 0.28901744924983125 0.19795180349056232
Ni 3.1469338575350982 1.116071001422305 2.9127787195293657 4.037109674186222 -1.5091563088149234 -1.6435064762944405
Ni 1.722008060102773 9.05553533356412 13.150175545350246 -0.30443892601122413 -0.8854614463843008 -0.7485509743767753
P 1.6087936974259418 2.115425219812859 1.8801680113184842 -0.4238944357670958 0.7538469326683921 -0.5139241840626827
Ni 1.734349049102045 5.612436077325829 10.123669019322385 -0.07060686368428484 -0.6594859039873029 -0.8620250697382316
P 0.5682530327622588 0.8520068439406985 6.539955837609773 0.5916758863218649 0.3314486218308485 0.5142373444277273
Ni 6.211863401838777 4.366390439905245 3.202956079662404 -0.2540039092891238 -0.7159743259923347 -0.29936691080495537
P 7.543012352700108 5.322982122862956 4.854823129406088 0.7777121693217638 0.02743161384839147 -1.363956343105096
P -0.06734274153102178 3.972524016851203 7.310985255962379 1.8659097279591477 0.2293776261000114 -0.32427035891485445
P 7.874972120684992 8.667344298467395 9.749460159726324 -1.716395965365315 2.047471520127461 -0.6909153261411778
Ni 6.932931068887641 6.345789721535932 10.493906024212295 -0.22047878094848478 -0.17108043302101505 0.5806255420449742
Ni -0.04321271564076553 0.5874118222220504 11.417417255231392 1.2610350835588218 0.2627970821007216 -0.7261612938276656
Ni 1.2291111599453575 2.0964553043303225 13.1978267994565 0.34733701092633085 0.9717078163780555 -1.089151437910221
Ni 5.007709279082141 4.603381438161702 11.467135120719842 0.2970297780313465 1.6700369184848014 -1.939748725427485
Ni 0.22787828728589477 5.560899153726342 0.5514267452351678 -0.5202218441459363 0.3074617719979479 -0.511597335701719
Ni 7.086340747888998 7.636917560226518 3.8883027265469563 -0.9072003807232892 -1.5056750351345423 -0.9387390747615187
Ni 7.754441183549455 8.293337148944127 12.382152523946274 -0.8467244348254191 0.16454186057154888 -1.410575585625532
Ni 6.7553161811507145 2.6080103862214075 1.289067645356161 -0.6156781627737332 -1.0071895542244331 0.07159236752600573
Ni 1.5551938299001273 3.1739813445691647 5.699429047403092 1.6434691952986018 -0.81197931803475 2.510291686425477
Ni 7.260957490452995 5.0795639081960315 7.1121788913502515 0.4298498820195823 2.328722438057996 1.1385166186069102
Ni 2.101149647842676 4.125557781625983 0.8551645234439298 -0.07779078302723376 -1.631864521180138 1.244117996088509
Ni 3.511937402899906 8.289908077706588 1.2482717831330836 1.5473880986026125 0.7583653893640359 0.4711667384904982
Ni 2.5309388011338267 3.8212139563348644 3.3190989058506526 0.750909704416939 -1.9778087655240002 0.7816824668234216
Ni 4.690795248799935 6.734264984462505 9.872622496447885 -0.28088556417131627 -0.5534921761632918 -0.5675681946403838
Ni 3.308686998638488 3.0851739007007013 12.234339382601053 -1.9694897041353434 -0.3098477557316212 -0.4269195957466647
Ni 1.1504258942754058 2.2072124715749064 8.459725037401999 -1.8263656471179384 0.7289707382520026 -1.7868760736637486
Ni 7.312897834198075 0.226073898998334 2.3448089977329887 0.6792486884365269 0.6777193962761942 0.16129944237485125
Ni 1.2973991882266205 5.506978383811989 2.663126746749064 -0.6109527322736058 2.328178649739384 0.3368443389251231
Ni 3.2428194912307817 6.734173298065779 11.64838904154281 1.4101408120809584 -0.6386964780457774 0.6911652373684549
Ni 1.847233340750664 1.8785809197911632 10.582029487561183 0.1509965177869464 -0.8607096933609176 1.3213485357368986
Ni 3.1787490371988985 3.680420325522958 9.972058227424787 0.4994789551716301 2.1913411970616385 -0.20714632550563677
Ni 4.106505348386394 8.830197676331492 8.05806068630644 0.08863801015438283 -1.479383705538181 -1.8100196016597472
Ni 8.869861211555007 5.095984941849595 11.506856418373294 1.0948086361959983 2.0541147364755914 0.4037835239498336
Ni 0.7432301028653887 8.945988426756314 8.776593224485842 -0.09354444631706471 0.5215914707999534 -0.8645447508362917
Ni 7.629298420658616 0.27796289836124766 7.38505869587703 1.376092721357314 0.060270771865599426 0.0193452372958312
P 5.22740822291614 3.1133399617748205 12.932797184217373 2.3145055231276657 -1.577984997552863 1.5558771099102302
Ni 3.7423728237904794 5.399155181262625 2.018386171246367 0.7063586572794416 1.0606314760936573 3.261293950556222
P 1.201220158061415 7.554216430379983 3.707465061965123 -0.01375308792003438 -0.6725756472917255 0.8453131563001894
Ni 4.456747383878372 3.547970156813086 7.225786588669036 -0.11951644490079416 1.36679124145073 0.6391795883297832
P 5.473934606432064 4.377686203981845 9.281209479872729 -0.6619325657555827 0.5691764196677681 -0.788577394171042
P 5.683410517031154 7.766708823431347 6.067169431710161 0.18165409477180328 0.14434995900470624 0.994882454722306
P 7.646507957324021 6.289778501776233 12.903704173672358 -0.14034469450005504 0.2399183777303352 -0.2976496710035325
Ni 6.936910258505534 0.40524745547959684 5.108821954255154 -0.7742185543462085 0.7568767206336513 0.6374461505784441
Ni 7.039617360117606 1.7183772787924372 12.0533146777699 -1.079857928423437 -0.26957656691640025 -0.3530489737094436
Ni 8.381411101638786 2.460431962051803 5.95483709216983 0.2194205148872995 -1.6915215707211384 -1.2608972724293768
Ni 4.102361123254394 5.015832693832033 0.03786464811975844 0.7834763254990508 0.4301614997227302 -1.40986776092523
Ni 3.007258800763245 0.8366722940883337 6.130495392200633 -0.3037971786621671 0.37445083642398735 -0.14171406404375592
Ni 2.1627537378026394 4.443397844515117 7.757993114558606 -0.7604197007899033 0.5543876913943678 0.8332611102316617
Ni 8.463149524319702 1.0216615187139044 0.42403949935248586 0.41471585459162125 -0.16177561068032137 0.2259459747106431
Ni 5.373464652900099 5.854323129167436 4.934976294287618 -0.4023434490691974 0.5110126668428425 -0.09761424551106414
Ni 7.923520067751223 1.8670834456417669 9.627989437024347 1.4863825054535176 -0.7792915979937417 0.9072649154126374
Ni 1.2415896785397182 8.924203738894299 1.9917228502145812 0.1671463880739315 0.41429676477633165 0.8778900617949462
Ni 3.363946389945036 7.187608373072476 5.898436205224048 1.0081066667220637 1.4796832390564711 -0.06051271267307643
Ni 6.312489222245175 3.6463863350583976 5.741283887508351 -1.2048775625306474 -0.4676859790307494 -2.9797260156059004
Ni 5.414879398301074 1.8421080711737001 3.609719111279876 1.0744634968807432 0.4550181537550938 0.35436846385181553
Ni 3.9486763850628614 9.015670088267806 12.180797277505176 -0.3495450743212432 -2.0863543132355877 -2.151755721459533
Ni 1.468366812200938 1.4766002506269011 3.9891880194560896 -2.15656882657746 1.7805982110748366 2.3641046742120317
Ni 6.588181048559529 4.889397152747364 0.5492207705299487 -1.0070142049888333 -0.317551295023466 0.9458841704467323
Ni 7.116303862338938 2.879438795088018 7.779369797955191 -0.9790498585654235 0.17445397747893826 1.9262943996947923
Ni 7.882765464406672 7.1971712642509615 5.9834340793085605 0.3614243422573324 0.30902680249222264 0.8305092585181373
Ni 3.3420333411276064 7.264615777682348 3.4324379620270307 -0.6592619609019549 -0.30840125309308175 -0.008435018141230636
Ni 0.14676975015048407 6.612404594574445 7.896023317373202 0.3731994805153895 -0.489971272791511 -0.9242326536152277
Ni 3.3750771185075306 1.9958386525635956 8.555981084140454 0.8432398187109285 -1.1091888161770702 -1.2554897282605604
Ni 8.81710485887907 3.7377334921161616 1.7213653384617258 0.7385848643029989 -1.889179497120366 1.6170449396688023
Ni 5.940361643854786 0.906065143450141 8.889582955490694 -0.06681731473486559 -0.3524223958690382 -0.4864447476954913
Ni 5.494903285363221 6.8840713880725435 12.469095983369305 0.2697226055759613 0.20350872875304954 0.5400064829720314
Ni 5.528772240313676 1.6444688743918916 6.686024186825306 -0.8081126359904921 -2.1968842383670553 -0.8351318448918132
P 0.05932843359323282 3.0942508539765408 11.042779303298651 0.5793160792049312 -2.0432412840961973 -0.6336596869528184
Ni 5.878665867498096 7.1554172791821005 1.6641594449526917 -0.014750161725981049 -0.3966649106271814 0.018088224960278527
P 3.906821544957603 0.4636984502561652 9.93665902651298 -0.5310829552301564 -0.2646480192665313 1.8546884053220316
Ni 4.796152087277378 6.033771744838877 7.451618435580015 -0.3563384430939927 -0.5365858873262564 0.4291070903162868
P 7.833374002490565 2.177992016938442 3.2863962018665482 -0.1806109982192696 0.495863727016546 0.45895914068071275
P 4.199502860585219 3.4065805644224634 4.683566693282085 1.181482580645475 -0.2443800130461146 0.034444297720798746
P 5.2947977245094915 0.05533182355996179 2.12693461319383 -2.4574789134998194 0.1771862888084368 0.7641028060684454
Ni 1.0531649646288375 5.8584765229391085 5.582547228857235 -0.8574636756197943 -0.2531608445625382 -0.6088161455465773
