# total energy = -340861.24785766006 ev
CRYSTAL
PRIMVEC
9.38555824670648 0.00000000000000 0.00000000000000

0.00000000000000 9.38555824670648 0.00000000000000

0.00000000000000 0.00000000000000 13.73671320082206

PRIMCOORD
 96 1
Ni 7.474189436842303 8.669590468816757 10.844846614074527 0.3190479341736505 -1.2699375282547742 1.4321803083795013
Ni 3.6232666660697688 2.28208914092895 8.402760920437855 -0.09448881250820501 1.2593528107603926 0.7222619587732593
Ni 2.397775533844776 4.494002461654132 13.873805643520939 0.22228652358118492 0.028819495334853593 -1.3285543094567185
Ni 2.308575186751476 8.974339550268718 13.941390111048731 1.4471035053482368 -1.1072977698019446 -3.011628520741452
Ni 0.4997772309111294 7.782016981451524 1.071064908431399 -0.3890832416251815 0.33833506453803663 -0.7239910256492241
Ni 5.54383348274716 7.495203702113967 7.9533512887140345 -0.7037299614073429 -0.3602827724537215 0.46684317141447984
Ni 5.20631941689887 9.057232802112997 3.28981936267892 1.5759039466541183 -0.27791414024781813 -1.5485445808045588
Ni 5.108108933735539 8.063959155976221 10.834612601188317 -1.205672804738433 1.1432014256770893 -1.7844975461292427
Ni 0.27639061672738185 1.7399699018237218 5.5166228718156685 1.9444096212382642 0.30513672340919706 0.04164570056524441
Ni 1.422916353301125 4.695904594090061 6.699038045179191 1.1481418004015 0.3601691296939926 -1.050153716490785
Ni 7.528269024379298 0.37973406178310726 8.957299130426273 -0.9802719038979828 0.9194735416636874 -0.9774802000854584
Ni 0.5950490957374526 9.019531013994964 4.400226654837771 -0.14564399522578142 0.6418252534827463 -1.1354174108562962
Ni 7.726689114646495 2.6822142669055444 10.066332376834444 1.3450857314528384 0.46039021670028457 -0.2432662111566456
Ni 6.206632231840356 2.465351554370003 8.320574401141569 -0.5661715714031733 -0.03690432922551709 -0.8760193271347946
Ni 4.465141869554817 4.205903360814914 6.292980307733987 -0.2950906520271047 0.32307068217979845 -1.3551927379798532
Ni 5.003300403012594 4.875788206504853 3.7014671387109064 -2.2503369588695565 -1.6441698209100521 -1.9754055553991463
Ni -0.13272775131411163 0.48394003965636995 0.20103959961839118 0.7966408879054667 1.8183695162863396 0.6918751189512858
Ni 2.4011637204294436 8.591324297266775 10.471840120557042 0.7300210338933879 -0.27079861224895946 -1.179721117869678
Ni 6.403287837127173 5.564847748018824 4.982498251360911 3.8989087655020467 1.2909835502917961 2.214411191507225
Ni 4.398635802687906 4.839719505549513 8.426828307859083 -0.47599938399245123 0.889332756414249 1.5423047705424342
Ni 6.399702553815973 6.07176175754209 11.459606321021012 -0.8274869267520457 -0.503209625858656 -0.5240635864895298
Ni 6.426047816262406 5.822143446168627 1.800717928608379 -0.3521675995457548 -1.9362592242169878 -0.7382339087214834
Ni 4.452724775783306 8.692566315795334 5.286464577241788 0.8752683079013829 -3.914923395762748 2.234417973646455
Ni 7.173175807636041 0.7101761093722645 12.803469054421866 -1.147665889206346 0.7742578922245762 0.3675674790405928
P 0.7828419182212181 7.234313335094559 3.0756916018629696 0.4063425429262615 -0.200616494806919 0.6311124950509325
P 5.978337909165964 4.135727540611147 9.715674774993998 0.8548221242318891 0.5452111671014223 0.6008351842236297
P 2.729179601170577 4.186916376159006 9.841297658594554 0.588409042645135 0.5800897241461623 -0.6429033170382734
P 6.820447751611169 2.6135870638388137 5.907611156683747 0.8095694230416767 0.6879012219052023 1.715519990518265
P 5.38908439574439 5.248047609573198 13.40700457207028 0.011174014338948499 -0.6933313917818381 -0.4026380974914808
P 4.977781069705914 0.3840692512109687 12.856561281214521 -0.040089154711401925 0.11447451160151252 -1.36814672703736
P 2.2720747501094474 2.7354585397443794 6.577577656731821 -0.4445491359029699 -0.35784510954650633 0.46464256421873523
P 1.88672249306434 4.028244125742411 2.498515424998599 0.19576585158283702 1.3691494572702614 0.11166583850812382
Ni 1.7667656710736555 7.107129633131039 8.421100301563728 -1.7404707469263314 -0.9739896704336968 -0.5469358631020129
Ni 1.2595419381229824 2.97370155432943 10.725983209638173 0.47614285154885094 0.08546398330177539 0.798069135711561
Ni 2.7800305566158103 4.931566580113383 4.383440583628135 -0.5358238123492515 2.1325953464809984 0.06885208577670723
Ni 3.995432213554051 6.103400474929665 11.937685079452658 -1.1370955698896674 0.20921606355047195 -0.029385909361284872
Ni 8.627233443729208 1.9854210252647966 7.450642009356782 -1.4214793770222294 0.8568309271318018 -0.20439395957148027
Ni 3.6875483555943913 7.130509059121085 3.546997741348644 -0.8106701123050232 -0.9268451515374101 -0.5522716734926296
Ni 6.405587298936712 3.065586171126926 2.656749369837621 -1.3219216346315492 -0.07240560745592045 -0.8739657870398755
Ni 3.3414277326875403 2.8623231327220866 4.72817683667006 -0.023839011401126684 -1.1364291399502622 -0.7196625734771993
Ni 0.2903441264100006 8.858878410754642 9.29960358528513 -0.0967459839734979 1.007104964930427 0.036839537425852685
Ni 4.180280786365765 6.77965811477747 0.9130505856590836 -0.6028360167037424 0.8005147690385762 1.0944815918738826
Ni 4.359488638575305 4.476751805303387 1.4745538185408047 -0.252000762816166 -1.5048419977102856 0.06765138060038672
Ni 8.43958797451242 7.151072817589248 4.300305184376975 -0.8922213908159538 -0.36362314968086407 -0.21477967368117848
Ni 5.787980013569761 2.0364596918781555 11.140309624039311 -0.37384174208507875 -0.07806923349960103 0.46965441561102983
Ni 6.996398815053728 0.5861900671577635 1.9424539388808397 0.7168343599997848 -0.49519935395966974 -0.7238113055382502
Ni 3.443307969187727 1.2762388465277572 11.360715384873224 0.17253670585156736 -0.46146802314549557 0.5004030096477963
Ni 0.3871242504722133 4.079198322330114 8.617864779328059 -0.3938762921384507 0.16751688403947282 1.2242742218897045
Ni 1.1127611902071455 2.662758004329323 1.1066849796949187 -2.1566978959561567 -0.07144041532917374 0.6732215084058406
Ni 9.015532766113887 9.016499478629736 6.7707850078601695 1.180674740032199 0.2970331204654562 0.418212297780654
Ni 3.134448013153814 2.1691527166261637 0.3920676240848018 1.5394004524114455 -0.007881973851238037 -0.6736511397440914
Ni 3.8867568327677167 3.6507851233169863 11.639419541747754 -0.22053585943866535 0.39582930209976347 0.29418690926591273
Ni 7.9065257992692555 5.242031466634772 13.314213310330736 -1.2743336004399408 0.4173430078018232 1.6955124370480863
Ni 1.8333374368494106 0.8043573723117778 7.924147185177048 -1.1021707329880246 0.3792022350660437 -0.9852179350493483
Ni 1.73285564855176 0.6117807307083307 1.9988020158846322 -2.1282766645009863 1.10602893039185 2.3335142030196843
Ni 9.07110465743748 1.2783975249612018 11.460581480539423 0.4390330911807472 -0.2205003782150396 -0.17258864213542535
P 6.263809053651423 7.80285292111347 1.8203065275581292 -0.4668058904186412 2.600298809013244 -0.7366238839218862
P 7.652402419860777 3.1952382749512993 12.411958932506398 -0.5490104862428545 -1.5987587397651046 -0.47555329759396814
P 2.232664790361471 7.45337226829717 12.22540031095306 2.3588717079478663 -2.072731323135514 0.941144855989534
P 7.760692992752453 4.738759053773142 3.143207554814396 -0.4736092864937198 -1.461436119920825 2.9317386890933443
P 8.260098555550694 6.991809276993057 12.129160795055048 0.08324177883947599 -0.8534915783459237 -1.3453063321040766
P 3.713827919131979 6.9842351313591875 9.167181803175064 1.5369054539037337 -0.21481386935322358 1.2114451884458362
P 7.090902002646577 9.018676928179993 4.726020035348296 -0.23489649903571158 0.24614173293222766 0.18402156656271534
P 4.546833769923091 6.469775132877271 5.464959127012452 -0.40256019306569385 -0.83926823565769 0.41571061440472273
Ni -0.03638405571779101 6.72478075477594 10.036372735845754 -0.7050329964894825 -0.1528759941978464 0.3097022312926925
Ni 1.6181735103854062 7.028009375766085 5.516196767464024 -0.4337528166184143 -1.4105205640178806 -0.4733321215729332
Ni 3.4567950166175536 8.513733885922045 7.712683984392641 0.4740967676530996 0.7940047358342003 -0.10959121536728224
Ni 0.30136277197897515 3.75751769351322 12.981139552164457 0.4680647025264068 -0.4251766449136291 -0.8812798042027855
Ni 5.619987903655728 7.53714776263164 13.06305107459944 0.5271761639765824 1.6135844919240274 0.1939917904015498
Ni 6.63843361743815 4.5465240464956835 7.205606666153106 0.6627866862257618 0.011963857230095526 -0.1961674578966299
Ni 8.826413764227315 5.7512073957339505 6.101339406303646 -0.43010879210792385 -0.6497126266506229 0.7248199493084226
Ni 5.634066241265151 2.964860358310713 13.489836817784916 0.11918065882793022 0.2882690011195809 0.20878874620506624
Ni 3.9273587584332907 1.0166155298931974 6.4211579403327335 -2.523388628818751 2.923655654974894 1.8134774783013607
Ni 8.314722505475252 4.819043120380475 11.061021365178886 1.2579929542983883 -0.5320975125375997 -1.0265394195059547
Ni 6.167494453286162 0.4450284530597673 6.907286692209447 0.7157056457119803 -0.047852343596588555 -0.07179934133048925
Ni 0.493190446021601 8.379051122791905 12.096439922783228 -2.045777934475122 1.2367844385415732 -0.454394918348798
Ni 7.209084954098475 7.695932639749111 6.441721698800896 -1.0040540939192448 -1.7102949946738997 -0.7175591539809514
Ni 7.00798059412708 6.112485695466946 9.140120422622232 0.7375137427260073 -0.18658572774546575 0.022691013839612532
Ni 1.6018895665505077 5.434472956197167 11.300548324153917 0.2643644265878415 0.00452411312259866 0.34919206185719864
Ni 4.899683838207245 0.9648447897241484 1.1902051868407368 -0.41432633246268646 -0.36362417812212855 0.4683737491263934
Ni 7.744756314578587 8.05581249127957 0.1752640405672202 0.19413448662700114 -0.33386982967783146 0.9798934375126414
Ni 8.12136123118904 2.5492584465221597 4.07415827746594 -0.07952447788888885 -0.09277568647184022 -0.2628143084919022
Ni 8.854457812745284 5.59264777201823 1.716718119428 1.9314162943023896 0.8717710933814018 -0.8486519908654352
Ni 0.5346023453776371 4.297900604313286 4.26564807140594 -1.0791935553665608 0.020187787801784585 -0.16318714631586737
Ni 3.014575661188786 0.6310192483295266 4.041327594160767 -0.3984518273242751 -0.08848245841312503 -0.37932950467252735
Ni 7.986077792320898 2.773751618042008 0.8348388503478583 0.2429453374821171 -0.16714613096361539 0.19016033247060155
Ni 1.960202029827118 6.152824825497144 1.5731012432509204 0.6510668266856723 -0.6352931087911833 1.7687384835227733
Ni 5.371561558199862 1.4845325442383634 4.842342769124068 1.6102304878501301 1.1009666853775941 -2.0559281355352463
P 2.213499480095844 8.965620366509283 5.898846922243962 -0.06549705326154526 1.199677763497263 0.5060265264821607
P 4.242629050858694 2.558231040358565 2.704580052587713 0.3419875736889594 -0.0618118911004742 -0.07737709252858288
P 0.3139018780097673 1.810417903221271 9.236854557448254 -0.31794004582145247 -0.8777512222242366 0.5221082625353718
P 8.741530774000905 6.975215609730751 7.860285030113188 0.5517854778848303 0.008930983941042685 0.7661992835861579
P 5.045197535738235 0.9314716211430926 9.371803870437132 0.2528119458635517 -1.504015130933616 0.2788073414860489
P 8.915539026853365 0.9951132155844062 2.492389471026819 2.1660726523028373 1.1114323607956083 0.13484484772774843
P 3.4168219233652004 8.744158730354663 2.110962254507218 0.3550104683111886 -0.4052361972359601 -0.587705331709891
P 1.6082999029419982 1.7256569252541423 12.69316246358452 -1.1696686187296823 -0.1646105090259552 -0.4083688293276709
