# total energy = -340874.27459624404 ev
CRYSTAL
PRIMVEC
9.21856873343092 0.00000000000000 0.00000000000000
0.00000000000000 9.21856873343092 0.00000000000000
0.00000000000000 0.00000000000000 13.49230716858682
PRIMCOORD
 96 1
Ni 8.121973772651709 1.742742738223913 1.135744245008463 0.9754032629517717 -0.19612452047383644 0.6164538645974932
Ni 2.8548616356229446 7.542863293166573 2.091239661884533 -1.1463528268218772 0.07651860118302951 0.9393268289441886
Ni 2.887605991292018 0.9346614518388778 12.301367641510177 -2.445079768504518 0.3277156371509775 -0.49822734215271614
Ni 8.560648578076407 8.578191514123212 10.543604167608565 -1.198445947972691 0.05874302236716335 1.4626471095097908
Ni 2.736900831810595 5.208251576514396 3.2478814800535316 2.3962758596279374 -0.4595304398031505 -3.8897250421202494
Ni 4.393053555169754 6.256163143610754 0.05827241583765412 -2.1752424917275635 2.4326731673100492 1.1687725892779741
Ni 4.744483827359061 6.505553079960823 9.146758716699923 -0.567686465385803 -0.5286658611482314 0.3849548212791048
Ni 2.0312562797146207 4.4807037054235686 9.324006900752844 -0.670976935346038 -0.6324263287663495 0.5732973838146772
Ni 5.211680884033792 7.549343946892744 2.6745123250928056 0.15382061749930284 -0.718150250597731 -0.6554649557533679
Ni 1.4025959940016512 4.026670764710391 6.951290230790386 -0.9726280141994799 1.0352127789102363 -0.5952206662503298
Ni 2.9473423158234358 2.055418148016603 4.856069990984146 -0.38635067318536687 -0.07004199231975033 0.8333259020313261
Ni 5.616984471124582 5.136033310097864 6.496316074223094 -1.1211454743183142 -2.7968604170244995 -1.1939010089144857
Ni 0.2919124277337221 1.7197700652713988 4.852346611126393 -0.22363481007896327 -0.8263551271404478 0.0870089591913921
Ni 0.5778724257220836 2.47884544097603 8.576168960172255 -1.251065888161252 -0.7911526110973859 -0.6261235264767733
Ni 8.134004004675397 8.56890841554248 1.9464002776036256 -0.3608867245863075 0.9100221664428005 1.829563842340262
Ni 4.394417903322632 4.039438482222121 9.233419714542901 0.5208785038933288 -0.29820245818320895 0.16066489411464588
Ni 5.938823138106197 2.3962747220211056 0.42765585037648884 1.5708553284866171 -0.2616174599703236 0.8908350519913883
Ni 5.014919755824135 1.643680000042645 9.29861435354269 1.808974705335001 -0.02348291361328859 -0.07980215703030771
Ni 7.698583353966684 4.332653493699098 11.27948746842799 -0.7798150745973795 0.2457406408390671 2.1357251503592316
Ni 6.137722974231177 4.871414298419723 4.190993593728512 -0.5670159216813395 -0.28128588493352846 -0.41842364246051167
Ni 6.151025368721738 7.0579204919358265 11.708340810865687 0.04946493949934707 -0.1554087879220291 0.6263960634118696
Ni 1.5452717802320146 6.43018206308291 0.23048818329154766 0.32039853466427404 0.7546290622500551 0.2507928585509939
Ni 7.318510989135538 4.120082520339536 2.0406979376752807 -0.09202955233443505 0.19919570319999244 -0.6892698201179548
Ni 2.939303724003776 5.199263472128882 5.356229883403784 2.082961742614271 -0.8604872929374664 2.786280327515808
P 6.051649199208052 0.9562421209327125 11.194013822220759 0.5527187883323771 -1.548582633131346 -0.4394475530103464
P 1.6688835665964872 1.9169829033424823 6.7508896116972394 -0.34774221678454953 -1.5025449741459929 -0.2753628345808741
P 0.6166669279636833 0.5356781153806095 11.901065127885174 0.33613060068755013 0.7091848138743271 -0.9572592450528934
P 7.899354559517571 3.6682989103648858 13.277036973911642 -0.9875003033256219 -0.6810638872683948 2.414570029951435
P 8.987422211437826 4.267883830711792 9.70739149728216 1.5125679055996337 0.11061091488104821 -1.7161504250134123
P 2.9438669154610366 8.16637961760045 13.492077601799286 0.10409856768382716 -0.9336868570495921 -0.7706444638417052
P 6.133325717008725 5.945727845987992 1.479404185724386 -1.352501050080303 0.5700845333043343 1.9222441408848183
P 9.089895820001288 5.226817773675859 5.61346113420546 -0.7818305623655116 0.18648879715628527 0.4115490268278654
Ni 4.86244463117141 9.168705362967199 12.84674092548796 1.9391712556574605 -0.42685583238826486 -0.13497391710644496
Ni 1.7404934074853844 6.917816686345011 6.285161994857432 -0.459707331700647 0.43795477051490384 1.8060387626351284
Ni 2.7603989631733397 1.8972182922629515 9.368234827327594 -0.19475412248887106 -0.5561113589536939 -1.3729809152012094
Ni 5.336067030160709 2.933201031590227 11.722034994521769 -0.04303435338265491 0.5903671948127703 -1.6232641811056367
Ni 0.5859690945239269 4.766064496452896 2.279295695764713 -0.07192044028938582 0.1328273030770874 -0.8014704480836262
Ni 4.411840997977628 0.023995934067172955 5.560368632064444 0.8435612066060891 0.9661658035139037 0.47923845975503915
Ni 1.120397172002305 3.7958378069531835 4.542050513889499 -0.14891983776357579 0.9776462933496775 -0.3757947520463915
Ni 9.244011849864908 5.736466338756018 7.866797340791088 -1.4698958206524042 0.25352748387333757 0.4373760151932984
Ni 0.6954377529414703 8.852821891301524 0.33222061893952837 0.3459912955317138 -0.33435885349910804 -0.04820072807494279
Ni 3.5075270739716875 0.5686713724018972 1.2003332240511984 0.09538664173212605 1.1326010244534237 1.4832033363945873
Ni 7.906729414397993 6.4245034248249855 3.7464225918269163 -0.34839990497320644 0.002314507065789562 -0.9598905120281533
Ni 6.61387126101702 8.755704271094968 6.911973957565997 0.12215799628869928 0.4574727859431734 -0.6732137950963567
Ni 1.4461629492077437 2.253893929985959 0.286789669162409 -0.44026182138152564 0.13877992111609647 -0.9138705936546131
Ni 3.849646591874462 2.761597377091408 13.579197684358569 -2.7432678285100236 0.17430716748842884 -0.8901310839458282
Ni 1.4300765469998233 -0.23014525253960802 9.464866628968904 -0.048964345713844705 1.306179284195628 0.595944946010864
Ni 7.6248901165740675 6.186821070597587 9.947000532347069 1.1166786967962123 2.4515021270910946 -0.0546840218064413
Ni 3.7598577337053247 8.99291647832374 10.48902747592286 0.399305433573822 -1.3438109785054728 -0.8374504657226609
Ni 6.166429596853219 8.278486630351463 9.686397129151318 0.3936605765832188 1.9643940347799909 -0.8400295393037468
Ni 4.709554670931663 1.737303782749602 3.0148830805320603 0.5860312864415778 -0.0656628894154482 -0.1833314824742262
Ni 2.8343687576239716 8.852766579889922 7.529921344708293 -1.2383828933769447 -0.014842721439787343 1.557166261035299
Ni 2.511331676724289 2.811497488926063 2.672758953344985 0.5320828572495805 1.5172282871897806 -1.2766985011276915
Ni 1.9550924659370628 6.870470118012702 8.694442273460163 0.5198163811774015 -0.24263731932339505 0.8386236600951557
Ni 3.517962493627484 3.0683729029797604 7.0851475342974854 1.4221067261935831 0.03962147104636402 0.24980246961326658
Ni 1.8822934296986977 9.149908701590723 5.604650026337077 -0.300689743381437 0.3442429453820394 -2.3766339170272937
P 0.3058785591635212 7.121611582396872 2.150916987576907 2.4564324745131763 -0.8478222958752881 1.3111854791609676
P 8.936922892644136 7.9885257735904736 8.53867427610333 -0.4444666034914926 -1.5901848820531648 -0.4949851810663346
P -0.052971738892350836 2.7363384991259627 2.847874882480604 0.9597848396882245 0.28621931767940384 -0.15346117727735506
P 2.9232910703446593 0.2619087525095854 3.5841103326205688 0.22793369456463325 -0.2731874241961102 -1.0924684180985962
P 5.756516725462166 7.301696320008175 4.877967778837838 0.5551081145001602 -0.5143574149453594 0.24971350944388607
P 5.811874229908334 3.1060860671245183 7.451598542164492 -1.345383208088599 -0.5929616950128239 0.0486612126511291
P 4.250221053273181 3.7356128982859373 4.218423444599383 0.0448364395884002 0.23881254626066611 -0.9028680718965224
P 8.614438925860485 6.937894728756961 12.171356324823218 -0.38934497992700046 0.2219409673163081 -0.11271999080425103
Ni 6.005040116363785 4.86854732358496 13.174266527439242 1.8276188027987492 -1.7110766100349306 -1.8676807038166416
Ni 1.2478531014731975 1.0486121783099975 2.1817199126987097 -1.2396435052569232 -2.0494497268997542 1.8933917354295
Ni 7.3458256078989 8.599228287669614 13.362483886269931 -0.22259017086453275 0.2614071437317304 -1.9951354297279058
Ni 6.5915715435723445 9.123810933882629 3.7242408720603266 0.1190274210795176 0.655955008015909 1.2889672911927157
Ni 8.111243358800694 6.161691252592548 0.8190652108725638 0.5991356850340197 -0.07729430300678947 -1.3842811707053773
Ni 8.0187258043258 1.8397866098816655 12.20233440274843 0.17736498047814614 -1.527788064983498 0.6878503140626089
Ni 9.109383874022804 8.572005854592257 4.349177777915544 0.10351981236222171 1.0213064532417895 -1.5521212424122235
Ni 0.6157321651075898 4.391661551311074 13.157590136840888 0.05122485961324727 0.05651593280885751 -0.9178645453053548
Ni 7.257548594980249 2.366747646793616 3.631454135382298 -0.8790899956403182 -0.3795151383207722 0.47632977074867633
Ni 4.36799748571352 7.019202503813612 6.762033939278418 -0.07522199385879304 0.9452071989843656 0.18884264210044252
Ni 7.607227339135457 2.358146722289324 10.096819787385982 -0.25443482617895535 -1.1095551983775536 -1.9668242414880384
Ni 7.476627877771784 1.7634292061634966 7.783698397855354 -0.6225849171958955 -1.1707759928612482 0.7769176984449265
Ni 1.1391753962415794 5.880202260375443 11.134013846627367 -1.9387179701701258 0.5509208158916898 -0.06985327334771196
Ni 3.521797418165304 7.5213102797785405 4.560912627103038 -1.380759530705364 -1.6563668771968763 -1.6072078989737224
Ni 5.319750163737776 2.121939339038009 5.409645957302679 1.787229343238109 1.2846781768990585 0.5037210182774357
Ni 6.847432915079984 4.450798668883458 8.712144690743756 0.3410246955550578 -1.2725816507458407 0.14704550355899837
Ni 7.691964421711504 3.3640953651160803 6.223974667628292 0.6143633006170517 1.8212825761680764 -1.4958655052432883
Ni 9.159228674445856 0.2134919083627552 7.003222115144598 0.11162367241627873 0.30331149727500023 -0.3386135150104039
Ni 8.279233334408106 7.2776727302352 5.904476595214351 0.15126956894267496 -0.900523740034062 1.4511568494820042
Ni 4.570160695123087 4.2126092933830295 1.671400235824431 0.709476634083133 0.6785154098149282 1.7275841207716505
Ni 3.027396365550416 4.992011612851824 12.063795910105986 0.5894138297605654 -1.3330038605876398 0.12276991884108533
Ni 1.1928090283594481 6.328823901320111 4.233454320702542 -2.1619899975930315 1.5510933153683415 -1.311511752152135
Ni 6.756454861561378 6.46984956377098 7.588491520311744 1.3384453433181853 2.464098732809182 1.550910252823258
Ni 0.9849210878489535 2.5299347481601533 10.864207546397708 -0.5473474967181348 0.1887727080944555 1.7898469833666142
P 7.5046431077487865 1.1981650167163544 5.447329622027915 -0.25161278334912796 -1.1163776206160259 0.7830747191852577
P 3.1478922757279104 5.338307142330637 7.662078744165455 0.8865320537406602 -0.19720644068410553 -0.5344400446278474
P 3.1513215832473067 2.862964757422808 11.152592949784868 0.7160257480555604 0.9671875599101989 0.8489708076574347
P 6.201109851928404 0.514207147253121 1.5131349282337159 -0.7340478956645938 -0.33038135690859877 0.3645659732101076
P 2.4691843810826772 4.3931641779929596 0.9257812047059897 0.27198749035073805 -0.03363105779088402 -0.09773457313901232
P 5.65714977451708 5.113420161320771 10.77193428399073 0.07373203957682785 0.3323137980446212 -0.09144616902713928
P 4.740012821587805 0.11372671525412702 7.786167130526574 1.8683581894996404 -0.09503748592282342 1.0710932948569296
P 3.1013753785696485 6.736699469050448 10.650449221402397 0.141396275693021 0.99553834313875 -0.06967843833274452
