# total energy = -381170.54525499593 ev
CRYSTAL
PRIMVEC
9.21804477039968 0.00000000000000 0.00000000000000
0.00000000000000 9.21804477039968 0.00000000000000
0.00000000000000 0.00000000000000 13.49154029572290
PRIMCOORD
 96 1
Ni 0.42819292588752955 3.5046176382752314 4.1818517128169646 -0.2635311320532688 0.04260446493408792 -0.034892183891494746
Ni 2.0728248429036937 3.984260158935571 11.922041984899769 -1.4315635007311087 0.2096690919274905 -0.6715207236646499
Ni 6.327376508975169 4.6320213791097435 11.839784762884655 -1.3803314420290098 -0.3836682412571973 -0.39655666718409127
Ni 0.3635550745408387 7.8734085325008305 11.573515088657945 -1.310799813686775 1.2900186152753654 -1.8708727283913777
Ni 6.899125732428699 8.513021001146862 11.87007249240503 0.7482606968298662 0.3882252645002604 -0.3000202281182381
Ni 6.587408332343175 6.83608352462219 2.309157995113673 2.7150031772373757 -2.466524054421223 0.4628461344399448
Ni -0.00809159965090704 1.093951456563446 2.9361233064106 0.7671228238416918 0.505185261527788 -2.449753262720787
Ni 3.587792055739499 1.6870681076665577 9.462345945152887 -0.8232042402162919 -1.3457030533218632 -1.8897330556309904
Ni 7.92736174821826 1.9373564577707136 9.548246138439406 -1.339008414910507 -0.44477179343673723 -1.4484530773975957
Ni 6.657400945864863 4.213936961056783 0.6505552095273166 -0.8615285897177871 1.5488623691552938 -0.25482409119757404
Ni 0.446486135624628 1.537671256969075 7.923595255147673 -0.3469451748045509 -1.741205311099511 -1.855511158333643
Ni 9.13904607188285 4.966617966178123 2.3765750869419637 0.04438186854948486 1.8309573802536792 0.488589819062952
Ni 1.8960227452682448 4.954302658438761 5.44594154249132 0.7409459083360078 -1.6632738887293548 1.774168396289093
Ni 8.852235828617502 4.270351394713141 0.2681750440693187 -0.816986027220722 0.7518918658245501 -2.85549005374225
Ni 8.123171454056227 7.372168133073033 6.2929673916626765 -1.1541723228662961 0.5543234138153356 -0.7649355863823859
Ni 8.311062859483929 1.5716858419677617 4.909639388185201 0.2605831051685383 -0.6589827390986392 3.347449817718699
Ni 3.76534081499687 7.753232883550187 13.157017542145981 0.15376868121544485 0.11745981948208158 -0.05542989883353035
Ni 6.868319026990863 4.853586301881675 7.262860558841482 1.3487593236496838 -0.48641312312660756 0.5156344818855702
Ni 2.477976344221381 3.191176463827986 7.5304115412835895 -1.3620424139118348 -0.27206230945273147 0.3295233797836777
Ni 4.2568746133396775 0.7760542793009255 0.891205172077373 1.1600035848360926 0.4838623316802957 0.9059881055827428
Ni 2.6892908012701318 4.599251230147594 9.612196323650352 -0.5399393771795217 0.5170113076284386 -0.8640428714992086
Ni 4.284574837708527 5.748335812152001 10.852581029535378 1.4708543279109314 0.014756589483884263 0.7314839915921596
Ni 7.081836596726521 0.045604432618970604 7.928424588773909 0.9534570976979837 0.3360331558777374 -0.07593958875110791
Ni 6.20628827359773 2.324283884686666 11.434903350277118 2.406513735305862 -1.4162672366936706 -0.7891764612076214
P 8.24437952401496 6.510004410870555 0.7704331156336628 0.9332865362873798 -0.41737077571596504 0.3339371925806571
Ni 1.7883375469065497 1.8030679823612654 5.418552888033841 -1.1408393532028158 0.3195045620950949 0.969475327503111
P 3.563714522943681 8.873898233697968 2.919852535683992 -0.9264800548885075 0.7652047808833725 0.6655002285021829
Ni 2.250917466799255 6.635406691174655 11.544913339515958 0.07604217576724323 -1.4335900442428342 -1.1449752297480604
P 6.3858926568265675 6.135078878173651 9.995895591307079 -0.5525928042774741 -0.7415498604685938 1.0603864499623867
P 0.5855523236099082 5.2699745997070595 10.563592562303855 0.7300197483418072 -0.5726975454471492 0.6573639725482937
P 5.671936657553324 1.877752580642934 8.771188014069006 0.5716984147586736 -0.7950036094123598 -0.11169694885637536
Ni 3.75826135665568 3.5837729882437195 1.771007622842178 -2.3013623008774884 -0.6105123023020775 -1.1304135298838014
Ni 0.09903498520105362 3.617888971734272 7.211822088862965 -0.8686652007625685 -0.08998321132836762 -1.2605393748693257
Ni 8.253781929624354 4.318156174605604 9.30214738965826 -0.19502588809301893 1.5626262557086055 -0.9369927814943734
Ni 7.157230984451252 5.040021256244394 3.772828632718939 0.9585260275804589 -1.0973977370794132 -0.12264136368302103
Ni 2.7778669929374424 1.975602125293627 -0.04550672134499063 -1.9938550203535854 2.1808012167622635 1.1742181857735778
Ni 5.037947196183499 6.4576735710229825 8.36855949158984 0.47822647355075704 -0.27930202173428026 0.42889728829832585
Ni 1.897838700077118 0.3059598093564775 1.2525866316743932 -0.08645411512918658 -0.6132507842791632 1.2407279965703537
Ni 1.8385390184249362 7.85765489408274 6.356323012989497 -1.0077662526635096 -0.464088234377162 -0.3093492188286479
Ni 5.939564149766568 5.716496685706075 5.501674762643233 -0.6565697587817725 1.0331522968367821 0.850593173752206
Ni 8.478204446257964 3.4097270859780826 11.373233709328687 0.7253817353491636 0.726534103786052 1.7705104878215316
Ni 6.919571355606771 2.393566708765291 6.9427464418249825 0.3024085258447566 0.07451956847512972 0.9551136594648003
Ni 1.2656467574267345 0.2702712274375304 9.810116961728074 0.4148050718713179 0.9118301661858167 0.9543988927859628
Ni 1.7707218634560105 4.973098251612832 0.6067473738233172 1.7078555319944717 1.4004593231271365 0.37735001234865334
Ni 2.4015495354885603 4.873340571706115 3.1122017875359136 -0.877423920791805 -0.2713169466462747 -0.007143810133632858
Ni 0.4940825877065298 6.555099085616781 4.730322607951476 0.18919668300575157 1.2983109371911448 -2.5227625651989776
Ni 2.6003458878142167 0.5325697680009784 7.420549040760188 -0.5211343286578767 0.04679099221160974 0.9268505508540489
Ni 4.159200211538571 3.023537102639338 11.00589923645466 -0.8011068940966203 2.616587004650307 0.1798286115272903
Ni 0.3989892384256492 5.852177085867503 7.265720918116575 1.3083202417980306 0.6112494375784183 0.9841586405468986
Ni 4.128107746714568 4.569421637449559 6.715670050117898 0.7896886249573497 0.258009173793775 0.00633776929256973
Ni 5.164354243361544 8.17660845926961 1.6559922353230425 -1.5830865804454863 -0.31327092248055727 -0.14718280046781104
Ni 8.59552250134693 1.0526638342845527 11.535914684265087 0.07042380113920128 -0.5230755115446475 -0.35962457004443227
Ni 4.608303350057813 5.703176611092769 1.3050363842987907 -0.15230958017141513 0.5184274712496749 -1.371679937001599
Ni 6.2359795956250395 0.4409212020301274 5.3575718350256265 0.1257642255827189 2.022656260855994 1.4440593192052742
Ni 3.659222684236741 3.2054275609575167 4.676748253871838 -0.6131929344580344 1.3397188107139701 0.538190512809215
Ni 7.907450771633663 6.745672942056577 8.55799399770285 -1.5235729984608857 0.12240739329534403 1.3908922482639918
P 3.7685394765130074 4.653527077430051 13.030763514510205 0.24423474571750192 1.6665667005480138 -0.1630483067451579
Ni 0.2160820297753954 7.9482774916768015 2.1838349899941223 -0.5097551402866576 -1.5899061744704812 -0.7128614913949659
P 2.5147747787240253 5.871544197813909 7.751887970826255 0.9579431584937954 -0.4291621119239383 -0.3167969333559447
Ni 3.910248477918104 7.017983200985085 6.415631912686394 1.8778694714241853 0.6342572113275012 0.7415346909599423
P 0.5613927502161256 2.0596614750505435 13.022372328406059 -0.06685690972354938 0.6398727577420658 0.6576791897958674
P 7.58615582308916 2.4999060725985833 3.245039342707207 -1.208693079621996 1.6242298874530154 -0.2899379041815716
P 8.069264328562372 8.692330406944816 9.801671389160107 0.7370064640722855 0.3928928451792588 1.025644675605827
Ni 4.417895418422891 0.6834820652496223 11.907134562986526 1.3195428499867274 1.403087247668287 1.6519926593885808
Ni 7.32532202983094 9.103492073416744 1.6591623209005624 -0.9416639617177976 0.6706318933017934 -1.6458037569690496
Ni 9.018308122204585 9.148725018833696 0.06772497452177491 0.1666887317112226 0.4145690446011118 0.1254646920644291
Ni 0.5262701562426851 8.16395208387579 8.313015241354586 -0.5641108322194026 -0.6734981591059949 -1.4104940816553193
Ni 2.8947057097012237 7.519186728234022 9.305101772989445 0.2039131632803198 0.2517405671762439 -0.5039251638684419
Ni 5.2943102377549 0.9631842742351625 3.37090160344259 -0.3142533409984846 0.5473842634933412 -1.1026792971933268
Ni 5.231784240452436 8.679922918758304 10.222661334907265 0.14960760785921978 -1.6146044485481097 0.6148955189714378
Ni 3.560764748634852 0.2862101485543946 5.180791860697494 0.5895634679645524 -0.7511192493245838 -0.7526081751652844
Ni 5.817756906901352 4.023012818917814 9.21748794519039 -0.7239761132508886 -0.14291039834470226 0.6153493186794048
Ni 7.787099979833433 2.1918298001755208 1.1000519585558934 0.4156000569687875 -0.3480669471138199 -0.51710618133509
Ni 2.9216592724481503 6.7696122041816675 4.509736641528287 -0.019621887995985562 1.1901916783836985 -2.100204074634486
Ni 2.590869737847103 2.068022241607131 3.1531750744900227 -0.769474869013636 -1.9297322217317479 -0.9728982371417308
Ni 4.7909681241320605 2.8656227786251107 13.187467509253343 2.19694903016672 -0.20299990743743104 1.3143029417440268
Ni 7.903542320674465 6.189769537468287 11.596248630534303 1.4517104079926288 0.14544036385540757 -0.2560204254985204
Ni 1.1667832278573813 8.831707243036995 4.102494487669216 1.3772507462211572 -0.08031792032446167 1.3291852581724979
Ni 4.7263588487239865 5.521138664059148 3.576931355456179 -0.4115019756400139 -0.9882369243813304 -0.09971509390415084
Ni 5.814567463429931 2.954798143198903 4.936028806595565 1.5301971886456227 -0.040876426499387664 0.20946108968174248
Ni 7.5956964993692795 8.546998713966689 3.7098905888177107 1.3172039174409058 -0.10548490650839253 2.1238098869788846
Ni 5.700531032259538 3.4389482877249216 2.528179659348711 1.8783998900063585 -0.6263700952699405 1.2008044209025384
Ni 6.336585335645545 6.825104833366517 13.309309780688473 -0.6623187454504077 -0.5856188814945076 0.5385170429106984
Ni 4.381474923753565 2.0513467987175313 6.976650410287087 0.9487519789128305 -0.023830012540062184 -0.8988869757615875
Ni 2.1164999387637957 1.5840103677518385 11.428238703948107 -0.9970311256341926 0.8931315613350489 -0.799720555272055
Ni 0.9529338085119811 3.048730018845682 1.5403426463275085 1.2945434997289125 -2.217890665415393 1.0308213347107602
Ni 0.9670097627919253 2.923171031781425 9.58154355955926 0.804749118834898 0.13873004171476752 1.0676359324359486
Ni 5.545372903615123 7.715005652116704 4.340269342072636 -1.8198784967316983 -0.1630087117564741 -0.73275643054668
P 9.312714034315167 9.18698912244604 6.32641230149797 0.6141910367052454 1.1852693013814166 -0.48096315575562976
Ni 1.4218004349003788 7.358995547175168 -0.04698160849940523 -0.7744738648901244 -0.19846910944661303 2.593020015963644
P 2.8533443430646095 8.837560701431078 11.231086850799622 -0.8285855591328634 -2.970548205761374 -1.0271081475252313
Ni 4.719196427980361 8.954574561044446 8.17401173607337 -0.6280870779610475 0.36083658807466246 -2.77854310677255
P 6.477879525038462 0.9875383483724334 13.202808179268198 -0.4913578687263925 -0.19462839554428418 0.29492481587320174
P 8.48442662644065 5.16802302515815 5.583258145589675 -1.4635223130258925 -2.2718786895960745 -0.18482863584504297
P 6.0324636044052555 7.9518172208473965 6.4822396601887 -1.5243055057515362 -1.696533679223749 1.2398018852116583
Ni 2.651303238999241 7.0800575140965085 2.067187086755944 -0.07625557732962997 0.3884918878980858 -0.0902608904697865
