# total energy = -381163.4238944752 ev
CRYSTAL
PRIMVEC
9.31285932331555 0.00000000000000 0.00000000000000

0.00000000000000 9.31285932331555 0.00000000000000

0.00000000000000 0.00000000000000 13.63031097792661

PRIMCOORD
 96 1
Ni 5.718403064867425 7.116822049222487 7.267776982913927 0.11366667098823649 0.44666489669439197 -0.6560825347327088
Ni 8.549903496682036 6.531890656119416 0.8375427073720582 -1.6933138867348707 -0.2500264126986146 -0.045527809228469975
Ni 0.08733972164941078 8.985512500366161 10.425961350985828 -0.47423663566507357 1.6593007630142196 -1.2896704879073273
Ni 2.403751481558802 8.988688185459829 0.6560900213499984 1.0055736158875648 -0.6190848744624371 -0.7142149200990667
Ni 4.005209428999301 8.771065284378254 8.806762406174547 1.7295091057085052 -0.42036688222981156 -0.31426516807302646
Ni 1.4852707121660333 6.509241781785696 4.371853914137577 -0.7295029566063888 -0.6180623467351936 0.22199778869617254
Ni 6.861323748504713 3.291620881734901 3.7017880845175894 -0.45410386947094056 -0.3646461916287398 -0.3720671666831592
Ni 7.628582305138041 8.04622680282309 3.256731184858317 -0.8060151300315151 -1.0502817574282168 -1.4456189503829102
Ni 7.779655512145285 1.15584693264025 2.218142466336438 0.16694532780671892 -0.35199173608952283 -0.10246771694862354
Ni 6.976970837927468 3.6252726994792326 12.475633257460242 -0.05995246929423223 -1.6279942395914542 1.3745886260079618
Ni 7.388180149689575 8.567411672565012 13.138366141500306 -0.849339246740447 -0.16007713993197592 -0.3700015424033821
Ni 5.094106214606196 4.503289094291402 0.39929164544431694 -1.8576215198084267 0.37592022188066226 -0.2972784037070429
Ni 9.277796596157208 2.244855472561292 11.201090205192932 -0.8937504258659704 -1.6856831096624905 -2.3440670388348663
Ni 8.226980093095783 5.702198689316161 3.0184188350843937 -0.19118903084543204 -0.8949318477685814 1.703833298208956
Ni 2.159419299396179 0.9338376747284204 9.498269232249521 -0.5624655833064958 0.6274430166191453 0.47346427627542326
Ni 6.179277856408204 6.340679024614501 13.07445384923984 1.505004234319763 -0.2994982941764971 -0.5157452964318214
Ni 0.5926983179362633 0.1736894863326725 3.0268283472239292 0.8526757673128477 -0.7821036135212401 0.07730587297101525
Ni 2.0701369152525193 8.061453328125571 8.001156287927747 -1.4768614533369597 -1.4258163138346864 -0.1735504918280624
Ni 4.1452748360631 1.4025166425404403 0.36774712770452295 -1.9976319708975145 0.2909586321366021 0.5078779778686028
Ni 3.886656727408732 5.270352080874974 8.459543614692812 -1.321157759882331 0.5404525693705143 -0.9892849060298705
Ni 0.1520510572560277 7.62975572543658 12.374127745206792 -0.35993464508568335 -0.24610882281176322 -1.1497235430663233
Ni 8.408860239369453 2.3482934031635274 8.854604428060727 0.5881005102657807 -0.3036472833478641 2.9860313889986383
Ni 1.9561940791204986 4.149670505752869 10.749368091980765 1.1625471771935527 -0.03850946892910787 0.0022941953508154034
Ni 6.181680574162357 1.5745903477477425 13.412035693698328 1.45336799820071 0.06051759776908287 0.17915472538871727
P 0.13664106862115605 4.674953033680167 4.9480070058644285 -0.15706920634358756 -0.28641420729902933 -0.11351523301203677
Ni 2.6304916721028397 1.9031387184793773 4.989988445259569 -0.7527696404438132 0.31896103088679906 -0.25598828670900425
P 5.899370550908897 5.173069950410316 8.10876731087741 0.4294408195066217 -0.030069051471238534 -0.4987101953264056
Ni 0.7090289712472171 3.453552882933395 12.82425549687047 0.9853655163708062 0.9595051036642765 1.1847386256889274
P 5.728135003057695 1.692751909238799 2.453837902587427 -1.4034073500118667 -0.3374071534071286 -0.1841966586879989
P 1.2256002503867833 2.660963348426826 8.291726817568547 0.7092511483358881 0.5620804320529352 0.34377089084162726
P 8.824102019300351 2.800395481043795 1.2853189620088987 0.537844442323706 0.949964511163693 0.1567735294800397
Ni 5.777046141215879 7.109045811529783 9.652168892118723 -2.2308971049773905 -1.744906928320814 -0.039356647420751574
Ni 6.607660081110844 5.112182474919417 10.905352901094753 -0.1574175908219418 1.1041345415826145 -1.0419850646370634
Ni 2.6417881706911635 4.988880214977614 13.36655075655469 1.6199333169601906 -2.464280766913001 -0.8305707078836922
Ni 4.303379252002072 5.807126677440351 11.540893166645086 0.7157218436618964 -0.3282005472071961 1.8353341691651357
Ni 1.2419443188307306 2.5146862640683754 2.790547132109621 0.7473081031086097 -0.0894183399638331 -0.0342334672615733
Ni 4.445623868191731 1.716173750912034 9.190986776214043 1.0003244516734837 -0.2305395076185965 -0.14565839340348463
Ni 6.621089224527466 2.6251740293213617 10.430377508966522 -0.08693928229572125 -0.2117563134738224 1.6413410932120054
Ni 4.218287654638911 6.937381872141018 0.6025848495944367 -1.8798458784242658 -0.977459117039536 0.76492401641816
Ni 1.3214295747675344 0.51806785566318 12.118832464826383 1.249950543609886 0.5800814966160461 0.5074257208225327
Ni 3.2857072159446408 0.8085573634262223 2.5275370789092886 -0.375779839648056 1.7689143469790052 0.8346579905791883
Ni 2.531337656876226 7.889165427149489 12.079494946246761 0.7704809416806473 -0.9796964910104868 0.24005438908756724
Ni 0.6556588359545825 6.707186610717947 9.926219340270796 1.3208389430903316 -1.3199408567560946 2.411070501438609
Ni 0.8628466779527131 4.692330829529971 2.051143338277345 -0.7463447107540759 0.23823276249779612 -0.8767173816430835
Ni 7.091463132770711 8.883667068740515 8.97021705990329 0.7931369885172663 0.7797338277374829 -0.9606322752901841
Ni 1.641363550450365 6.68258203588666 0.5220193019542153 -0.41204576395862585 1.6826584639035538 0.8951329080357938
Ni 3.336639244616976 2.8675970752839794 7.496180450166848 0.48438555117361737 -0.5350542811730785 0.4439341280267903
Ni 2.1473405206088287 0.7937117340777913 6.924688444625861 0.40604198096670713 0.013889356387582529 0.729867281924343
Ni 6.72518836815507 4.6460459177542335 5.740446603332851 0.09547637323245492 -0.1832980581331295 1.040704141042111
Ni 0.06070494344445953 8.698033840083419 0.6533241020748689 0.8150013926905254 1.3898797478390772 2.1201159830670644
Ni 4.688391489956301 3.265628690836293 12.288461544411726 -0.8874895325579233 -0.7992772970870493 -0.6521793430235607
Ni 1.2726674423615467 5.0387598905250695 8.551875029040774 0.5219995048716494 -1.170145558366101 -0.4298539957846403
Ni 4.05544299320822 6.549156697655074 4.112224428940181 1.1761758237205808 -0.30432065526580493 1.0584300975669643
Ni 0.39456257538401135 6.24158088654496 6.611832242172319 0.5086716774144917 -0.45277563757782024 0.8844654010196186
Ni 2.3555760593020842 4.182312078343203 4.273783915758186 -0.2630089410012116 0.7106120332391568 -0.3817337432386458
Ni 7.781527396907241 7.033369515133478 5.773009016617331 -1.1318047538043734 -0.5784221066357522 -1.5968041871418952
P 5.861290268363428 0.9647191168709442 7.65789080530895 -0.2656607768017618 -1.2209515852743749 0.009207891751513174
Ni 7.757854108027177 9.009576929345739 6.788085558728707 0.2990185263266012 0.7504726168795205 0.9082524761368874
P 3.492471322834965 2.0777082700359544 11.017489973767354 -1.3026555873130856 0.15598548636110557 0.36459219846235275
Ni 1.3083450071528644 1.709328799170552 0.5146137160700973 1.2195757879727707 -0.33227471727656965 1.1024304144073143
P 7.279890219281473 0.9756710396573158 11.509789147160221 1.311044068487097 -0.5337435327814549 0.5912897066270396
P 1.0969244705064296 5.817305632887209 11.963037638046442 1.5581957307410776 -1.1775475072571269 -0.023046083186186114
P 6.325387309295434 6.09925245461969 4.2390134234833585 -0.3693585095027445 0.9288837792339938 -0.27659490721576235
Ni 3.0842235003977456 5.33299037395417 2.335853285427103 0.242079389937396 -0.3644063077037918 -1.2671910758578886
Ni 4.334148939830449 4.324836080318228 5.911002312439662 -0.2963435505975993 0.5824939627122807 -0.28749432773708555
Ni 7.880802479307514 5.504896447690252 8.763813360676087 0.2238718657904338 1.15908261568372 -0.9800898697941638
Ni 4.288413486765933 2.8853660112332964 3.7475039805771293 0.46437002728363896 1.110128040161888 -2.7816001484313193
Ni 5.400378225384599 4.989606618019568 2.5180360996349207 0.03931448132890649 0.8693411437836706 2.3987646874880624
Ni 8.525280296131724 5.0832287946959225 12.642345549446357 -0.47906722428449755 2.471440003665602 0.2086429646558213
Ni 4.632020751328829 4.012398956542735 10.060192274641699 -0.11106677147154422 -1.2548724063915355 0.29346160106411395
Ni 4.959581958952168 2.0778945272261993 5.614107419904114 -1.355316665152227 -1.4500741579407865 1.1682732810440526
Ni 2.6195863136140294 7.889984958786564 2.807067213598349 0.7979310674718 -0.3065107209385883 -0.5310536446541176
Ni 5.029838171112361 8.717097263504934 3.1607193284311266 0.7803020415361271 -0.3643520574270886 -1.2827387937845005
Ni 8.940317193153353 2.405409170551977 4.433054301708087 0.4067325792758286 1.6287964237777757 0.6169413457568731
Ni 3.911270615099531 8.341043996401462 6.084584700887943 -0.5568983736313635 -0.1198370614650065 0.7695039224793586
Ni 8.212908362372819 0.34786044750212686 4.584078150559916 -0.5285038816490705 0.2900278927922167 1.5841985825627427
Ni 6.94325828649323 2.162445978737651 6.302151724812443 3.135412996889981 -0.03777619030750914 -1.2091083127825433
Ni 2.8516068955014964 6.135218718055887 6.612554920070468 -0.20392550457549394 0.7147021441481304 -0.8117985694825116
Ni 0.6222815474627836 8.514151429014621 5.783845459945751 0.7717608368343354 0.4235869318290059 -0.16675095240772575
Ni 8.903969102477156 4.367256155396394 10.408746530177487 0.052106233776936066 0.010072039524021364 0.4501256015494829
Ni 7.115536874609802 4.2047374440486305 1.2641741144864016 2.470542688662313 -0.3316566240765966 -0.30777647502488925
Ni 8.68549873117997 3.843556813586174 7.056630244337151 -0.3704468574709169 1.3852090818362854 -0.594255474123583
Ni 1.6822470037090138 3.9904951109699924 6.469313827913 -0.2505385764483427 0.03913578965919711 -0.34093547827536125
Ni 7.764084411040852 7.4013299073208305 10.567280268939971 -0.11579708706767798 -1.1504385668554769 1.677066571638073
Ni 8.55486725080205 1.3577683525842197 13.221906216468732 -0.5470050257770515 0.17918866395044625 0.6213649287458655
Ni 6.027357179185347 8.800847809098336 5.204216809048939 -0.015762662150895432 -0.009829841606228231 0.5410182120659973
Ni 6.3826613952955915 3.0755811667704047 8.358365915094193 -1.5249068867809608 1.685264534067833 -2.085491965235292
Ni 3.091906609495328 6.772348688724955 10.05412680924139 -0.7473770086733322 1.0204826717889135 -1.4872623369553097
P 0.6733374371666312 7.158059391142601 2.3963999102598548 -1.5579090527385944 0.15271015804394344 0.06999057025652464
Ni 5.68638545386441 -0.038661404979033094 10.65782640811944 -1.4149888842018792 0.10676685854460968 0.9086265716468546
P 2.632913015576017 9.114057900213343 4.603419097194897 -0.7458004082148317 -0.053575362123294834 -0.325681123219452
Ni -0.12478952360590397 1.6182862845790822 7.014362900154986 1.0126240949764431 -2.1121270513243173 -3.15446615686669
P 2.9182590310304604 3.052299017989853 1.227389250699081 0.23381612148733924 1.1490123759319115 0.21031083927654745
P 9.235143699591237 7.789489891790191 8.447548651641071 -1.907684755013405 1.8526268948073126 -2.6083409625914302
P 6.096533099642122 7.688976199074792 1.1866045137512613 1.0287585386444607 0.7145026265428146 0.48479435657626185
Ni 5.022862839337709 8.649532467743773 12.957218917270248 -0.633286876994432 0.5423672698947241 -0.2547672698177096
