# total energy = -340866.7466766956 ev
CRYSTAL
PRIMVEC
9.31973539001772 0.00000000000000 0.00000000000000

0.00000000000000 9.31973539001772 0.00000000000000

0.00000000000000 0.00000000000000 13.64037479657755

PRIMCOORD
 96 1
Ni 4.007299703323975 8.558126358361644 4.467386134609208 -0.31428162313325875 -0.1638296649958727 -1.1605579146776657
Ni 7.436841067869022 0.9141290143505351 10.66714140730234 -2.3695325300958223 -0.8712247339596286 -1.5679211855589577
Ni 9.168802001555056 6.243421027611929 13.282219004781252 -1.5057686232896133 1.0560081183890329 -0.03799164875242489
Ni 2.113343133926565 6.2990412067584876 8.858318754203186 -0.4108699984829698 0.6924986114678977 0.07081203771655546
Ni 1.3182019736674955 8.332700605480113 2.711924556865539 2.665153086484468 2.2547859957798457 1.718305780793518
Ni 7.554176532925185 9.037841083765604 2.114408379649831 0.5350380832231624 0.6666531111597035 0.7287681353228932
Ni 0.552333169420729 1.3845957666031667 2.0394544100140735 0.1348445906174323 -1.264928505075957 1.1915692754575156
Ni 4.672533075861214 5.27192251983437 13.580520426368636 -1.2459920731827703 0.47111300243442733 1.1858660544251511
Ni 3.0328095605755645 4.932637563093338 1.6051715293325737 0.6529856409749399 -1.8752729143416025 2.3915002926161653
Ni 1.5355568359423029 6.828234405870404 5.202875398312402 -0.8543356715137739 1.0443131985496077 -0.5324669800618765
Ni 3.108886558292281 4.344431801254207 11.274396707709764 -0.10836402782840047 -0.23209322525896156 0.8920077321432509
Ni 6.047659991590904 8.226353108120632 10.381839152248743 -0.23597096304681295 -0.7603556803211873 0.447400746419152
Ni 9.224990684543428 1.9815527597121732 8.649429939303838 1.0158395165899474 0.4822417653577372 1.0706469513481303
Ni 7.2694306660577555 8.995231254834962 6.338490713512756 -1.8126133305288523 -1.0622682403661317 0.1364751842423198
Ni 4.137049055548907 6.416274154728422 10.467814640627585 1.2484626462104498 -1.2575941761980727 0.24350455241969673
Ni 6.454438470010787 2.01878510148337 1.898958471231853 0.17003450825500394 -0.11555180382609131 -0.686564762481966
Ni 9.159687300615824 4.118288428769077 12.199446587664175 -1.6153662664147987 0.17010109982688124 -1.450438997479373
Ni 4.206723395243893 4.165176016115984 5.944529666791978 0.17973939424759366 -1.1468392795399927 -0.6339201397030566
Ni 8.978362534282805 8.979145392032187 4.4050632019703215 0.032763053363633894 -0.2730742956570136 -0.12342580725752936
Ni 3.3747972404989874 8.38615860608076 9.904644483218984 -0.9127647621849442 -1.6690478150986545 -0.44524333375651703
Ni 1.6726314999650225 6.586405919192302 1.010087802981017 0.06710630673019409 1.3910647692861142 -0.16650952582088097
Ni 3.5531676508016 6.039579781249071 4.538056753987633 3.759209160785158 0.2511515274419932 0.5546090633765546
Ni 8.753486645772865 8.582413588062705 11.799087542789222 3.2995121134971557 0.6823589519307345 -0.7047211216760185
Ni 4.478412313219846 2.5356016923669635 9.947638285236225 -0.31248390780288765 0.5830750320267313 -0.0909363192702563
P 1.6956978443664523 2.6539064098747422 12.061732589812793 1.9564503544528822 1.2531083725125776 1.386927864299605
P 2.0881052912441116 6.324288369176053 3.200058730969399 -1.0650422035668432 -0.21536434254005488 -2.340892497761627
P 1.0675849767790702 8.093276610460826 10.258325634787042 1.7435840957443325 2.677675901541827 -0.20111143216546654
P 8.239260941250322 5.263991425254324 1.3652787516371692 0.21950150463688003 -0.4355474466249918 -0.5664510503168051
P 3.218654398437752 6.4912887026424055 12.42132058949464 -0.04464823483699407 -0.4691540789358436 0.46499172002803785
P 5.330152224812203 7.491967301054662 7.911594898273031 0.5532936869992406 1.7298076107855305 1.121658666509307
P 0.461098554518362 8.554873770807665 0.7859463095978777 -1.2589979985241349 -0.9564151518850433 0.27281075758298173
P 7.922632260565804 1.5711209451285075 3.4157136735598344 0.6779757352613743 -0.40351432944884696 0.4602274658701751
Ni 4.268876708703746 7.0198202005613926 1.811878594242277 -1.0936485544496264 0.033415856456284386 0.9034825655520698
Ni 6.0677347010214815 5.603546654313596 11.998591384431101 1.5290697599093988 1.5895459629175852 -2.06889163767445
Ni 0.27404960687974433 4.008557867564053 2.58486488019384 1.110051935508314 0.6317046201089767 -0.2830982555519189
Ni 6.537039282305686 5.7833150248829615 9.425321186689715 1.203444943849179 0.2965312411283732 0.7578614531444239
Ni 4.7921611957548516 0.26754070387774087 8.723428636090647 1.3167614305868485 0.12181398268571926 -0.5497923587142015
Ni 7.7994440018595 6.470244740760212 7.263935750235903 -1.0431358904120551 -0.07063848825316868 -0.3878280290618417
Ni 0.9955434243657154 3.8588549624649944 10.07113875506877 0.2911589210728663 -0.005875227833854398 0.8306588967221243
Ni 5.3394067217781105 2.7635530934637615 3.814176152339558 -0.1696557847593465 0.7931760692853178 0.5124254880299691
Ni 0.5582940719981652 1.996203383307748 4.467809250583278 -0.2080158725947837 0.4588550110026807 -2.0825562796457358
Ni 9.112231209427105 5.224708741758555 4.783897386631318 -0.4988564910962828 -0.3261737465851544 0.16499771716204487
Ni 7.877459504479448 3.817531256979766 7.852340954406424 1.0078300160219094 0.6567942160877527 -0.010529181666097997
Ni 8.987346758930475 7.027508982028536 2.590675735035978 -2.5491032599760355 -2.150459885466245 0.10700828513145443
Ni 1.9264078870563102 2.1006030560288864 6.362511398789623 -0.3097495395908601 0.4069380104184153 2.647361309718686
Ni 3.3814608511038444 2.0539298225895486 4.758199149034347 0.5397493726559027 -0.18122703453671368 -0.8441371337142172
Ni 2.722052313011411 1.0278269867926055 10.631348964605898 -1.3929771558174784 2.484307346546573 0.5533885607058922
Ni 6.722427453147401 1.6796585802392359 7.996137943365205 -0.5694785242892192 -0.16397673209669825 1.3850399032482728
Ni -0.004660799529355597 1.813937323728449 11.306834045765997 1.4183493160336798 -0.49026669254474275 -0.6043874203512624
Ni 2.039335117404644 0.3163201974523204 8.323301652619975 -1.211898473933171 0.6049250380222873 0.47689284234099805
Ni 1.1264484237444972 7.633739111573672 7.187686337419621 -0.9954948914953241 0.6506269109347763 0.7516170148966087
Ni 9.114244272211229 2.750058117022036 0.46131290842593087 -0.7978809309601549 0.22302340174720944 -0.8655125140661997
Ni 3.4653384671090444 0.8823384659110531 2.6737453300069944 -0.050239098661210256 0.4462946578391669 -0.3132719509218218
Ni 5.1778491136169835 3.0708527193014783 12.392484397085564 -0.41112042393087905 -0.8247528156503344 -1.24719149280751
Ni 1.1852373128290306 6.243421027611929 11.189540519517836 1.4271268051159938 -0.7777486789866541 1.2446183327636953
Ni 3.451414782852181 8.603942176170706 6.856566400609939 1.0022077847391258 -0.7727386273665724 -0.7035996064770657
P 8.236996245618181 9.474722306596242 8.33979292390011 -0.4153334335709621 -1.5190380867050097 0.6049088400723711
P 5.514897333931211 5.026655050900055 4.290129432652441 0.7347600912402701 0.08089256188100907 -0.05982468546711632
P 8.17302558381155 7.104676388753319 5.297362600768748 -0.5147808756360231 0.8311877726424007 -1.0157053050049283
P 8.755015082331182 5.38200723097364 10.418613895025956 -2.8087756804048465 -1.0833407447657148 -0.937985741535262
P 2.4201860927438092 2.39944036238519 8.80570698555068 0.16487096177619348 0.01638512622624275 0.09904892107506166
P 4.933681373425847 0.7060827035052823 5.660836929992169 0.9156752509635199 1.0041379118823028 0.7553862521310539
P 1.569881420358653 9.343407238872546 5.886285050237967 0.12876367453067503 -0.5418129400531507 -0.7723568185471216
P 2.106940475904835 2.8211304169837756 2.979071035948055 0.8864343518205314 -0.5760772605526595 -0.040871027182748966
Ni 1.372368274136631 4.015445151811591 7.879471635290061 -0.27905108206573875 0.9604610398196426 -2.3537973787487525
Ni 9.060637155848795 1.0290571918273486 6.459085289937476 -0.06425701020685708 0.6378295020597918 0.5983962357648339
Ni 1.9943953546960802 4.364096442339871 4.839877307553188 -0.7594997600787952 -1.581488125610115 -0.015810741780011482
Ni 6.870993350562833 4.0117918156478085 13.578310717173654 1.5697839497993094 0.17655276898949593 0.6249251352932979
Ni 6.767954359168001 2.2296441083853304 5.820852121992311 -0.038911846573849114 -1.0682722804683666 -1.6201233214838098
Ni 9.086415543167726 7.067369489101229 9.004474568118736 -1.1871001839425683 0.13698400555793827 0.9341103177402558
Ni 7.009922641872779 4.538552563895575 5.902967376087891 -0.5986875417530075 1.0566683776808512 -1.6095056938689638
Ni 2.879285564080714 8.707316678029558 0.915077763384905 0.7129049430383916 0.21497584885238463 -0.701946644254675
Ni 5.352519589080256 5.490479627938586 7.418658264666116 0.0049655715353914475 -0.7867069166212064 0.1925540295137587
Ni 3.6267190003030483 4.66307354472285 8.832101407360494 0.29283759432686984 -1.8599092874013385 -0.07252773485608154
Ni 6.398902168480234 7.10544992676759 1.1526406073023876 1.580516762835781 -0.11181470538116228 -3.0223690470874076
Ni 4.196117536686791 2.176036992022896 7.39709332959118 0.3649151290194102 0.05184963768143974 -0.28673508097355777
Ni 7.5343068576670635 3.7801125205063353 3.5628247603243324 0.619970362391184 -1.3535438895225205 1.5424166135299502
Ni 1.3699544627427034 0.7233381930645744 13.373323143392057 -0.559174828370366 2.7451251934337364 -0.6325183742595235
Ni 6.307661961736801 4.827893060173066 2.108774599774815 -2.7800505445560124 0.6939852233157532 -0.006132338149982987
Ni 5.564562202341401 7.036008580450396 5.6837532266583 0.7857260407651758 0.34795793233978134 0.06011701989655453
Ni 7.474147967521112 0.5385548730316081 13.5695949008972 -0.05371394458368814 -0.2493219304324222 -0.38772724181791934
Ni 6.222861691955543 7.358639170546841 3.3843136220215326 0.11894257467519516 -0.24368195853782548 1.3927215881632466
Ni 7.303568855771871 3.292690374165008 10.086020508095116 0.5630939609191141 0.4605935909603423 1.6179088303309945
Ni 2.61283433723753 2.605919093784656 0.7214220555256111 -0.33232382534695026 -0.31877282613539293 0.6263744661453148
Ni 4.620622151289107 8.440520620987243 12.568131580788542 1.6558472572479805 -0.4003827257984008 0.33520783176296465
Ni 2.394258589663091 8.563541124461535 12.10254464184039 -1.1319340802933862 -2.132900536426243 -0.6018145174177636
Ni 1.5438700396619294 4.502913896828477 -0.05066021612011829 0.24885090433327467 0.11424388364794519 -0.9187903995537336
Ni 4.602327511264861 1.2516683847051486 0.49344642311752285 0.0764232132557458 -0.9181183131873735 -1.253781744430518
P 2.8299562061345447 5.66880343956564 6.79047829498593 -0.6157295848369589 -0.11319075979308248 0.2506136526606523
P 7.57490362381358 2.3018813752360305 12.355342456744951 -1.141821257500111 1.4754887413591493 0.4948548261360574
P 5.296480021853672 9.105986986902273 1.8813348521356494 0.11907884314274331 -1.0596050917116717 0.6126434897124675
P 7.082821609916409 7.852128464445878 12.53423570418733 -3.1308032660321112 -1.922327444627244 0.9186263631720436
P 5.720565248375961 3.745806575560209 8.712693233215493 0.5631566958362495 0.17056904060223527 -1.0635797600887038
P 4.772710908576757 3.3495687175516453 0.9714099702939971 0.3294398189309359 0.41929858886629723 0.006493835254459783
P 4.879664188718499 0.8076771359578027 11.103715078874293 0.5587498250178055 -1.031868802138668 0.5733578047389675
P 0.044380578601862335 3.306623378156983 6.08704426019939 -0.9727144032656991 1.4090115835725219 1.1297512137094543
