# total energy = -340893.1643020447 ev
CRYSTAL
PRIMVEC
9.03791123975850 0.00000000000000 0.00000000000000

0.00000000000000 9.03791123975850 0.00000000000000

0.00000000000000 0.00000000000000 13.22789666545945

PRIMCOORD
 96 1
Ni 6.48235143327382 1.8499881205449848 11.548642035026134 -0.6554292174194261 0.31619272411304256 -1.0238281912223788
Ni 4.646272658074617 0.15104880240089608 5.758076727807257 0.4461252221408381 -0.2666776481020504 0.7922905813565709
Ni 2.8527714825661077 1.462523829239589 4.900499158592457 -0.6415375470389983 0.4945972015992966 -0.17121258772350514
Ni 3.4001164231027423 4.515448893370141 5.05330764230513 0.7429814507087978 -0.6530059526899141 -1.1847692218165466
Ni 5.210663099145458 4.402935936768689 2.7866546431398143 0.660161847008405 1.9919835143624853 0.005616831966145165
Ni 7.251586131824935 6.126393300431969 2.7164011517546096 0.3822273950456127 -0.25154490622567 -0.7005981006465805
Ni 5.075338454660476 4.694444724801723 11.349204256029193 -0.2151409136753392 -0.7469725741460619 -0.025445693766614243
Ni 5.482125800123949 7.936397701802335 12.461882291775437 -0.49090843989379973 -1.1944162579880075 -0.25599677134943655
Ni 1.9346462348100506 6.570326460951428 0.2952161392096686 -0.32461411540751833 -0.3887585112959111 0.21217951705417007
Ni 2.6093263063257086 1.593040304963067 0.2525481604069168 0.9190166566319269 -1.4925852918301197 0.5638298106438742
Ni 0.6694914066923877 -0.02858420177069755 4.5687174382262175 0.3706507459516068 -0.46127441907745076 1.2913730724207308
Ni 8.270845605974298 2.1995383743418984 1.3038072629716617 0.3677392287317667 0.6890152809049876 1.4711386919205698
Ni 6.857271103825516 0.7878862359065982 4.916465532528688 -0.42694402122669695 -0.857049213790195 -0.6052130015763513
Ni 0.6577150083911835 7.256114125339059 2.406008552048101 0.40598181715273307 -0.13054030681512357 0.4825538972815173
Ni 7.819483282443641 3.8128687899620672 3.8346745583283877 0.22460514441203255 -0.3942732704665532 0.265856951972968
Ni 7.569946554050508 3.7781360971980393 12.467305942290059 0.883744463693194 0.8663429803872951 0.4490958747333879
Ni 7.941603538656897 8.777420529061406 7.119518750538536 0.8963330989914822 0.47568596651709044 0.18640652185512413
Ni 6.9564531413983595 0.36154808092266083 0.13141303651509675 0.7012146511846569 1.201115524385054 0.9224390520499146
Ni 1.6173342102843542 6.409713740912516 9.083742453560806 2.5236681077323824 1.045395375870193 0.465771792727172
Ni 0.2746286812738948 4.810148064058835 1.4545126247467361 -0.24810477019586952 -0.5620639769927029 0.39720895605610945
Ni 6.341125032771426 2.047827996840735 6.844894588220243 -0.13500682722690943 0.11516639546221456 1.3913316497942554
Ni 3.6296341781749475 4.232345362758534 0.4106058629479387 -0.976771089833576 -1.7472219496072359 0.8195550734994789
Ni 5.873801758051265 5.735033669396858 4.76333891434157 -0.2718162548801964 0.29300471603235345 0.29168728277251055
Ni 5.311544264025 3.0882813727677823 9.15562276896306 0.12867111481686871 -0.6339479076171984 0.16520186275305096
P 0.27971069874493637 5.471217041298504 12.522994839767058 -0.5914604278769492 0.17354123585668177 -0.11864741203227952
P 3.87862863189573 6.033573952348033 12.687047388810912 1.251410158874548 1.8392098500704581 0.23994408876194806
P 2.290920694544106 8.477370914938856 1.2678318574168315 -0.12676387049182683 0.7870249620822575 0.3587239126070338
P 6.4862558109147415 7.831250642833639 5.801822025625746 -0.1499310526369095 -0.7651736705351209 -0.31352211925941487
P 4.632272933616778 1.0580321132223984 12.454064498582389 -0.12450747035748234 0.6523984010129023 -0.4464471242566311
P 3.8847834494269042 6.274840991987825 8.441672973258045 0.02045878207498412 -0.6808808247233112 -1.1287258577687336
P 4.636764775486078 0.9155313672399821 3.6531345548923624 0.1745766190997316 0.6069652083807676 0.06770100289139953
P 0.3448342717297083 5.415507356625732 3.719062501974454 0.6103822044821164 0.9728411586515504 -1.1096582996143212
Ni 1.3394274786161027 0.9781279402516023 2.583117267619905 -0.2304155804462225 1.1700465708943915 -1.2494597200163964
Ni 2.028215729524071 6.508787323550891 4.772347000440427 -1.000197439177316 -0.2459329593555313 -0.6647412388489714
Ni 5.964253173399271 5.767244784934458 9.208745803448723 -0.20173518179239452 0.07991939933446236 0.026598319313818706
Ni 8.643740784415884 2.321414606952597 10.333434319396401 -0.14178914025606548 1.2903510589141198 0.1454989850074849
Ni 2.322164753582681 4.998633702256545 7.032280312624204 -0.4346868983969094 0.3775274184667821 0.758349705634752
Ni 0.7004580018569436 0.3524568460407104 9.228137545731965 -1.0256061090584077 -1.315455310180915 0.3464078142438421
Ni 1.490622695178533 1.1644987072271464 11.37714224714867 0.07661733154442289 0.20437801873188027 -0.014367067354949449
Ni 4.126312588491666 7.103698790763841 1.4852415228465785 0.511947519952286 0.3464674638371839 -0.36648915837474944
Ni 5.7517086155716255 7.949403256027533 7.926446961564709 -0.7713993397298585 0.09316546571109116 0.3580117170313576
Ni 5.218047072600626 2.8108355745710285 4.86029943334002 -0.8378618422284667 0.29275351925349585 0.14351717869076572
Ni 0.9487366530102235 7.218597755923634 6.9384948118323635 -0.46400724462758147 0.9033277851417605 -0.7697394355289324
Ni 5.019375708473939 4.699759016590755 7.21263002315442 -0.5699387517550895 -0.39933422992922835 -0.508794319035285
Ni 8.168418958278558 7.1745740904400055 9.34636878875335 0.16610791950708811 0.43791029043021357 -0.9130270147073952
Ni 4.496225256235328 0.2893848788996632 10.266104592286286 -0.03512332606569435 0.24412393117125056 -0.1794545160173232
Ni 8.384470225654066 7.121883068109982 4.812281914894533 -0.6365550062227424 -0.1903462232291625 0.172036112066065
Ni 7.104467013216337 6.090973726416298 6.991155105264288 0.49286453517890605 0.42946807320013136 -0.2791264153883644
Ni 2.5657003089351385 5.229778281345801 2.4661160843136343 -1.2214526932805092 -0.7550350394392222 0.0730380988335968
Ni 2.4132397848038907 4.97894009373903 11.532953124963925 -0.9073327925360956 0.9760604369197963 -0.07368755949213761
Ni 1.4798404671099707 3.164073296139923 3.8585906789612707 -1.133259998193661 0.9657302586383819 -0.28500627120790917
Ni 3.7656005143555444 2.825847545083922 2.739444210165009 -1.7383961237854901 -1.8025896277442635 -0.16993834899677182
Ni 0.8802265746966248 3.1940610855208873 8.298639894305603 0.3315401531033903 1.7390188449711534 0.2143911799935082
Ni 3.558081035158344 2.6426310091192144 7.03820647100187 0.7860417722333818 0.6742489212290904 -1.1383199292150719
Ni 3.929557261540616 6.7937797776045175 6.112174858522948 0.7982434565058962 -0.23856186370244076 0.5185043472341975
Ni 0.8676051316976748 7.300065487533039 11.296412009093663 -0.39321680417758087 -0.28801317635503304 0.6236550103316227
P 0.0031099452459281713 5.557393524646151 8.0019117125512 -0.14124278083429223 -0.08499295720262781 0.04154388488005748
P 8.374582750794882 1.7552436973742058 8.084360961317559 -0.5330323656470433 -0.8203310324335549 -0.790499036673787
P 1.698575994113614 3.2857055051480644 10.370710280373752 -0.37712349816014407 -1.6385889843881651 0.6139244133074201
P 4.0173876826389305 6.2703762638521425 3.544057812131369 0.6608951256300037 -0.3070871622673485 1.6389605087949708
P 6.91721053094262 4.029371952897868 10.376689762427535 0.14815056369771903 -0.09115203482548817 -0.5411917615293841
P 6.24450976198104 7.974980544740049 10.139817859007142 0.40739515256049186 -1.22956426664405 1.0964299738495054
P 2.467033432301027 8.505614387457094 5.827298089732756 -0.7006155841480773 0.20928034112950408 0.038668363104475335
P 7.1390641373122765 4.069247217138017 1.7595222445390486 -0.5385702647461369 0.049654944022966094 -1.0421527005631792
Ni 5.57386963677439 2.8429472730853638 0.4052454778117574 -0.008142426601476299 -0.7663257818616932 0.30437284865997905
Ni 1.4236969626993177 1.1574220227529772 7.216413292785183 0.33362068978150283 -0.8123701257152655 -2.2516088836034447
Ni 6.896947534019136 0.9190290388766406 9.355588361974425 -1.3202825563662293 -0.6034661940885736 -0.8118296798307632
Ni 2.897445877656555 1.7879247842945087 9.02773542160936 0.01943651145805685 -1.021171727436138 1.6745834002049031
Ni 6.22931703324403 2.1842191148480063 2.777289559548327 1.2902602989725263 -0.7562732827216975 -0.3201763913511389
Ni 4.033538429963759 6.809876297462112 10.651724245914572 -0.01349237805947999 0.44417915415806086 -1.0738839702281893
Ni 8.066200182540552 7.06159116245585 0.3529096453921228 -0.5075720165924098 -1.2160358931403124 0.020207585296126488
Ni 7.547550610082447 3.9397339495583874 7.9900331858533695 -0.1962921563999523 -0.5031533186994238 0.6886100750467689
Ni 3.060083089805574 8.465992184730707 12.26432349451819 -0.010103921203221308 -0.11557005865853645 0.8645303526585886
Ni 0.24926559105695717 5.097833815651803 10.32311663996382 -1.7659202973476875 -1.784553596178159 0.29440159637988006
Ni 8.56092640403681 2.3098189668755094 5.899482982742647 0.29407043829270646 0.5070043170143977 -0.4225934575674851
Ni 3.60744610616462 2.8358615506999882 11.446668186681805 0.296209081902264 -1.2550711526659029 -0.01819492574147189
Ni 1.038817513998791 3.2606614531966924 12.715064009757882 -0.35915122995243953 0.8580917961220964 -0.2713048624614166
Ni 3.2061447728030896 8.38396410262654 7.918390567515828 -0.4216390640740158 0.02194282281967834 1.1228035787470276
Ni 5.709754631754135 7.84477135799757 3.713215877215399 -0.9315759813541763 1.0867801094645668 -0.9875977481354345
Ni 2.912060180076392 8.416853061504577 3.4972441434585 1.1642590176783367 -0.49478052125469624 -0.4242201945376307
Ni 3.157683492917397 4.269256192123168 9.253085795824555 1.152432457357054 0.7960251086983388 -0.6901324252285662
Ni 6.986359589578471 6.173643500216079 11.373371630593596 1.090837310253076 0.09175161608270005 0.5244664783549031
Ni 0.3814540803535147 -0.1687504552886465 0.15538248082409445 1.2895594162507598 0.4783393449795375 0.3810775977118856
Ni 4.929900387536163 0.6390354535109615 1.3364015859443887 -1.1768029157816184 -0.7867488256027353 1.082659402427974
Ni 5.818598196406018 5.197711772387495 0.44363852461414877 0.425870328546544 1.9730583953232086 -0.12846979743934003
Ni 8.01126775823148 8.695383409046032 11.325142625025894 -0.21888469698848756 0.4574051659300316 -0.3559296376913483
Ni 0.08000901274078387 4.867014601365955 5.794321463116022 -0.2619504178297102 -0.48997024435024644 0.6152665291576114
Ni 7.922578735568612 8.861491179098092 2.482903100587354 0.20450734522089298 0.19827627670951659 0.417390573210307
P 8.435453082766188 1.5054267937336925 3.7524630066267415 0.8394451275551865 1.5501178388289498 -1.1679930307994724
P 1.9056797293953462 3.086600321283497 1.5513411902415808 -0.2835057754029827 0.8949562732486136 0.9199761923317189
P 4.8378040723486935 0.9256357519681067 7.93496519287621 -0.6296001721714641 1.4468682494089793 1.1731792029861021
P 8.552087326877501 1.6529074287905245 12.544781628519848 0.09153872874094557 -0.6823651225783215 -1.9475486810878784
P 6.312646574561837 7.877208421315315 1.4895010903978891 -0.4134655271242879 -1.5805910677171426 -0.19914736646056028
P 1.571367393891472 3.1177088116539844 6.111036985502134 1.654480973028073 0.07086423111072956 -0.6647661785496358
P 6.714598637530188 4.122372059205921 5.842378748370813 0.7387463295815277 -0.8891484083175849 0.8368704248494749
P 2.317618684246146 8.401759749790832 10.207994438397243 0.9558492520792442 0.511393447221029 -0.7643825420923932
