# total energy = -340894.2166180965 ev
CRYSTAL
PRIMVEC
9.02464964202818 0.00000000000000 0.00000000000000
0.00000000000000 9.02464964202818 0.00000000000000
0.00000000000000 0.00000000000000 13.20848697668067
PRIMCOORD
 96 1
Ni 6.321676725325174 1.9892042172185895 11.433952951996254 -0.016207462997797892 0.28900125129991516 0.29830915896440235
Ni 4.66189928865241 0.09046128161617509 5.984778437461763 -0.16424412682547196 0.5146309803217202 -0.3845308463678087
Ni 2.943976035278094 1.6137607488935914 4.607793807530136 0.23487798709295032 -0.34895089238067006 0.8832474694521175
Ni 3.6341992780172054 4.1654352705885 4.9937194062445265 -0.5259482051067522 0.6832904626060683 -0.3104553074086331
Ni 4.997101844875559 3.950513242845607 2.8977707323244584 0.46768726458233006 2.2242819136537175 -0.9438229170423292
Ni 7.320389561779814 6.199049787976008 2.7485409331915194 0.7192211150644066 -1.6832495605203335 0.0017601772242163236
Ni 5.137065133906192 4.668225567948979 11.37801546702633 0.4540912710654502 -0.21480898425721712 -0.07446917485316852
Ni 5.305230452611255 7.921097306169912 12.281396418531903 0.4840507935420179 0.02397887941310064 0.8250286950195405
Ni 1.6738197912882566 6.4823515849487094 0.6586360670388006 -0.8683512690665756 -0.35887715035544643 -1.715500193023923
Ni 2.4753620855582765 1.7515310480967408 0.17077253994440428 0.8849690801289145 -0.8965544709736688 0.5639599084638351
Ni 0.587031790544136 9.211820726360719 4.872584243457017 0.23998625485379316 -0.8663236971135855 0.19624201988830717
Ni 8.547254562138216 2.3916494368350736 1.4949891418090369 0.23125504562838237 -0.044257427156478624 0.027326198618778743
Ni 6.796490609248619 0.6419088791983029 4.770337672064254 0.14740468667063003 -0.26290249733033433 -0.12423441920175378
Ni 0.6405840606523169 7.3847353126849935 2.6406539558638706 0.9556093681542962 -0.29363977851319106 0.3851623093042205
Ni 7.484701355150164 3.7574308668825926 3.7681828342919097 1.3930805141645621 -0.30131734966310686 -0.5068757618563334
Ni 7.383832847735412 4.126042675539257 12.657310071095631 0.9227110747643786 -0.6255949076668129 -0.4521827411888277
Ni 7.864521778480634 8.83570943397303 6.87956070292772 1.0850631267734603 -0.2629346361198504 0.13332712553164136
Ni 6.77860375394791 0.5554211507551362 0.38001625822452884 -0.5781693671949978 -0.27896032212414534 -0.07689835311995143
Ni 1.726406423900385 6.512051706439445 9.112759856239977 1.0557576929411236 0.28568607088375314 0.6480318965140903
Ni 0.08632077242749404 4.820435306345436 1.4821768469198249 -0.6112525229022119 0.0015534605300489377 0.21374968975476735
Ni 6.582146159073459 1.9299754425775395 6.969471480924651 -0.7083718310547285 0.22852273429888384 0.2875130967901629
Ni 3.18200116573028 4.489979715757088 0.4530987723066083 0.46168579558325645 -1.2499130055037313 -0.2834345558454151
Ni 6.123378101953579 5.517002877680107 4.8288778659487726 -1.1267378808044275 1.4395089808304304 -0.4954433516496758
Ni 5.219577504246451 2.95652029807728 9.230341112056035 0.8267171384655568 -0.40160682801348896 0.16315732151919643
P 0.2235098842031128 5.581384727183269 12.336885378421885 -0.9878186058969892 -0.6266107505258369 1.07739249760208
P 3.961992597004287 6.076955304947093 12.413718536834427 0.03731596284163896 1.5326716183280444 0.9330834191376381
P 2.2228072694178245 8.443001811162532 1.3409383749154329 -0.6062046760656591 0.5029391458060887 1.3271777408241658
P 6.451947540797301 7.630088458527783 5.684576179378244 -0.442355984906393 -0.18119952373288792 0.6180818871192194
P 4.444856468278001 1.1014855449130088 12.534232803736623 0.955539177037993 0.3925354618398401 0.2859079570865721
P 4.128163468170774 6.0025290205550865 8.403740975995929 0.06577884616802218 0.4218000151319123 -1.7232556685996256
P 4.7667657157938095 0.7912081681323591 3.5675729981844335 0.11673579683186347 0.26650744107277324 1.6072616350297932
P 0.24369712266030688 5.373862912026946 3.6500203910483227 0.0760588879377916 0.2310755826277246 -0.2961419761097545
Ni 1.2050794964754976 0.99711547349388 2.600275869089684 0.9397441189872655 0.3242251074992158 -0.3033606053453808
Ni 1.8876137378441722 6.343552475703037 4.719894393707382 0.23555804387911042 0.14935281153593633 -0.2562502821211393
Ni 6.265245592027829 5.855562603515699 9.353537504788388 -0.7896690845733239 -0.14111139746275053 -1.133057395264552
Ni 8.479741159260005 2.256243595799828 10.14314018777544 0.29188962859130374 1.6197427982159396 -0.0997667730776927
Ni 2.551665497045413 5.160583370492292 6.976471901538555 -0.523900321438788 0.15287265176373674 1.1512083551419658
Ni 0.880347338597397 0.0022408204698114763 8.606583510388669 -0.43169516275843717 0.09303305389828494 1.2654612376509755
Ni 1.2584873721917453 1.3080326979237833 11.399373202523131 0.4371047638097827 -0.6679764579568174 -0.37878237391980574
Ni 3.819854367445162 6.6614186802447195 1.4116835047780953 0.5994534733847547 1.1184365600275834 1.122526670936557
Ni 5.642418431723482 7.888455148943541 7.914961446977706 0.10422635151094309 -0.4607745966228968 0.4388585132760959
Ni 5.405963590283569 2.7462910880722124 4.809646337873185 0.18152991048911316 -1.3885003509930476 0.6927156125747103
Ni 1.093868740738539 7.321535692265783 6.812316234604484 -0.870319705646856 0.4456667944471809 0.19726583316713125
Ni 5.155439320279676 4.511413258309654 7.132953006541384 1.0158238328606635 1.5653765647602331 0.039178469971674464
Ni 8.21616724608516 7.482941548498479 9.014383054551022 -0.39661451700522016 -0.5282100045577355 0.7653513337635658
Ni 4.4999609780994625 0.5169860710173992 10.296266830560674 0.5927601205249792 -1.3482206775373944 1.2316286053722465
Ni 8.494947693660457 7.047014879252512 4.837964785526111 -0.8608055955088335 0.27139690795459065 0.3819489445732454
Ni 7.392704078189801 6.200069573369035 7.061032867314365 -0.0763368241895266 0.3875922589019518 -0.7806409129327846
Ni 2.358294332298532 5.074713830539588 2.6794473141865915 -0.17595318773228405 0.037912458775057285 -0.18892825983571335
Ni 2.2754570745764235 5.36116523018633 11.380115502964006 -0.9306712101517198 -1.0629570389030405 -0.06570788372077072
Ni 1.3245026832536502 3.302408039303476 3.945837571941824 -1.3381314116221923 -0.14665443876816678 -0.5620927733481095
Ni 3.674178475283677 2.196599687281971 2.3591020384284076 -0.008681844044714079 -0.16315295064382224 -0.5139478382117664
Ni 1.2141673185177857 3.37034560070799 8.199815483663688 -0.9861106220669469 -0.19766641103965957 -0.03816674087770846
Ni 3.9926042080940998 2.6644014185471647 7.188916662994847 -1.7822326613544661 -1.3431532903168157 -0.9714046833153398
Ni 3.9799245755524764 6.637340915389879 5.765861197387071 1.5413362359815779 0.7700857631247576 0.8217870481537911
Ni 0.9035659568202361 7.313873764843835 11.383377913756744 -1.0006481535614895 1.5984016135360022 0.005586492948841991
P 0.3455980499773802 5.5343843526090515 7.900735891977448 -0.6164412661920029 0.23260050391268328 -0.10306087044793219
P 8.595139352363024 1.626593800476644 8.010657025301455 -0.09796957196795386 0.3100907249803627 -0.48422125768161123
P 1.5290824626743362 3.290260861082106 10.451452898360852 0.5052747359178007 0.026741529759902332 0.31934489658877907
P 4.01534632482356 6.021742499331682 3.6698592780349784 0.6499000600710807 -0.4091080214865405 -0.09262296294405983
P 6.866494815387675 3.9708096795617007 10.302553401399459 0.5625686845432634 -0.5984348023122532 0.009096820094945623
P 6.334184889526378 7.8500191667408545 10.350156622559998 0.21453953264591438 0.891997961951238 -1.1507846373409858
P 2.565789073506367 8.3843867126872 5.621334143106404 -0.3845910101817828 0.6682739345925781 0.46328553597020855
P 6.904019307991284 3.891239344957078 1.5938812509842046 -1.1326524465166492 0.32527206070649145 0.07881665318858685
Ni 5.169328255853739 3.001517200463426 0.3813446866303132 0.09177681289368064 -0.627356627552926 -0.11079989096340273
Ni 1.8531215274711579 1.1663637501384405 6.835933742335039 0.12367083338879992 0.7371093081987369 -0.24106046175457838
Ni 6.922276173921323 0.7584243239089029 9.238517444499244 -1.1689682502285481 -0.7716646775761034 -0.38125191850622087
Ni 2.799365051757115 1.7177698343328878 9.344937916283824 -0.9365343538007161 -0.030990020623611142 -0.8547249365323923
Ni 6.3486875012661566 1.75196423127254 2.537627654754669 0.4246850499891912 0.7952568630737465 -0.3714483021522377
Ni 3.972713880605318 6.985421646443558 10.255240773952687 0.3427432209080613 0.356912827540224 1.0440347480772407
Ni 8.243475835459504 7.204558185500998 0.41091304823840946 -0.6612435101083579 -0.7031074973319955 0.09947649553078351
Ni 7.652668131566318 4.066985369238628 7.988374263231332 0.08825877243809317 -1.469502184758411 0.7536530714900311
Ni 2.9435699260507824 8.357682774829074 12.594846862075281 0.16974654470093992 0.03447977894442449 -1.5656071927138004
Ni -0.224527864666241 5.043398296789102 10.037314440392638 0.4997376081496555 -0.33128535678010684 0.49466353606085767
Ni 8.81329220462542 2.351616091671627 5.80550016536755 -0.46203238028939775 -0.3976262460991862 0.4017955469855274
Ni 3.6418070575421795 2.9144022588803002 11.340978305495494 -0.6078548100745725 -1.374369053797988 1.1650799709177353
Ni 0.9398630970924139 3.51430680946527 12.781971164441158 -0.3812706875592982 -0.17228473774176134 -0.8610992154898526
Ni 3.1319143610284925 8.430953904085616 8.050876278244516 0.765989738678513 -0.68065842429986 -0.020372393008764915
Ni 5.588333707295048 7.741524830502137 3.6610358782229175 -0.7662039115718482 -0.19961762122875942 -0.34686778459939616
Ni 3.0306758429844125 8.385469670626696 3.417933479964385 0.10417390100645285 -0.6863143370340566 0.22343812068712485
Ni 3.276651689642413 4.302510671780471 9.480919529956902 0.09190665360332557 0.48027178611556004 -1.2501868279904083
Ni 7.198466547091321 6.316424379318609 11.545485887720215 0.6174319122400462 -0.18847420301743023 0.4935101391827049
Ni 0.3891735700679348 0.16290755790879935 0.27048047743399395 0.7358283846037844 -0.18167106405266778 0.4935440777444339
Ni 4.53207068100558 -0.012308719447345438 1.4755726084187857 0.22976020625041074 0.3351304415578099 -0.7261893188521235
Ni 5.674591307176072 5.561395128550033 0.603333014928431 1.2090298941361242 -0.5061478825513734 -0.4752061986671945
Ni 8.051160554703634 -0.05883710485293154 11.372890368577655 -0.2375218524737006 -0.5677389158902931 -0.3272800922754557
Ni 0.16897843962463577 4.698810105090304 5.82129691184503 -0.4257474298154345 0.6315660376485833 0.15635032589969203
Ni 7.847429092335554 8.735978032394751 2.4816233873784745 -0.2096197267467938 0.7605765380827417 0.435393951766263
P 8.43817362368227 1.6087159698254294 3.715811890802731 -0.3091211619782418 0.15298526608220106 -0.8102265970097015
P 1.8880288717209799 3.136201069539006 1.722056542843401 -1.592458765689006 0.25846477327395484 -0.21334936899255513
P 4.798063200245304 0.9226169919059068 8.187874969915772 0.46133663977395384 0.6357569358014793 -0.7428840058989852
P 8.292380411077339 1.7761141933233477 12.559712096658165 0.024121061417919747 0.8317948100987803 -0.6782675554701803
P 6.275389298061127 7.470334113152822 1.475084374881062 -0.8285130540237151 1.5624840737037864 -1.3636408687472064
P 1.912440548607166 3.2885552023273967 6.0672917102669714 1.000540938559664 -1.351077687370215 -0.2853032336230377
P 6.916265757357109 3.941136632019453 5.893217051072048 0.7573107228472764 -1.001174972599237 1.3069459871583233
P 2.298632374481683 8.526046635823045 10.259652022626243 0.20082141172887352 0.9948379746376156 -0.39185951881873804
