# total energy = -340862.5484190851 ev
CRYSTAL
PRIMVEC
9.29669283881400 0.00000000000000 0.00000000000000

0.00000000000000 9.29669283881400 0.00000000000000

0.00000000000000 0.00000000000000 13.60664969371709

PRIMCOORD
 96 1
Ni 9.498337882241541 0.07379621634296618 9.010132295699396 -0.6988929450300158 1.3842073800446482 -0.4754136866923103
Ni 6.542798441553019 3.524850303310948 2.8948961850633803 -1.4316051526023217 -0.45789136153783083 0.0738305128279051
Ni 8.709188129249856 6.658281957270316 1.0615707368158611 0.8798924369369556 -0.16929505898581812 0.7770873912535713
Ni 0.514002978891519 7.820628842079696 12.672756794621003 0.3792577708943275 -1.0408167553605752 0.35629370589898635
Ni 2.284652914507313 8.069482710113876 6.154138120901595 1.3204159966203002 0.7712268187077362 -1.7523333026918724
Ni 4.657475661816336 8.909531855196382 8.883413726951641 -0.7183417977832467 -0.5167153736545745 1.4816565607327579
Ni 4.036614638619732 4.280215875323992 6.72212048614872 -0.09150016219352629 1.0252718656474407 -0.00013369736438686652
Ni 2.316549866884228 8.373094097675901 11.263447918725477 0.594957128176298 -0.5991300286070649 1.1523434971876736
Ni 8.763294880294348 5.982319436918955 8.119986063099114 0.31664678093132564 -2.3262055851734127 -0.44980138544084475
Ni 3.7220889339226173 0.6782086012881912 7.035358598918059 0.6692411836018539 -0.9841810091444019 0.4512124068557585
Ni 9.432796199275277 2.2864285827976043 1.8838408869331635 -2.8503005391215104 1.2219352893438828 -0.06887471148452654
Ni 2.034107048416415 3.6918467928319427 11.279258803863168 -0.07693074901978364 0.42569960729663453 0.5685606404606401
Ni 3.431102454937641 6.457612847082114 7.735775139535301 -0.5150580405568097 -1.219622839160622 -1.139773888052779
Ni 2.5590912806298842 6.529745885115483 0.24137932716824023 -1.8783741789747457 1.3492671165240375 1.09546735282592
Ni 4.691864127815231 7.130767766262439 3.1692741226839267 0.43669672973808665 -0.9920861229240913 0.6998655933559301
Ni 2.2474475506447606 4.59789315881906 1.6414379939075354 0.4724147519649864 -0.3733329207694603 -0.8395726542719862
Ni 6.443519061071212 2.54240371737819 13.196136417688377 -1.6810700363705113 -1.489272682517119 -0.9739567603132324
Ni 4.661965964351471 4.1588661465639 4.362277781074804 -2.007390335835859 -1.3967049982910267 -1.0152383926708386
Ni 4.327554634141612 0.5678150247799771 11.040965978644547 -0.961633462861189 0.34204362373787545 -0.18373951654592227
Ni 0.4806994369212993 6.295357670796978 5.371523942821299 3.69867665061774 0.5818992665510753 3.2093507247197115
Ni 8.382548834069757 -0.15810885137691658 11.382438146898785 -0.8414369611742348 1.4140195783100744 0.3225685457323993
Ni 7.694240305919928 4.469794031217336 11.414455026610488 0.7575902017609082 0.254598091229697 0.19388071874498222
Ni 0.5998198187912768 7.816324473396946 7.441163880098048 -1.5660674201796707 -0.8115977663256151 0.11711889120289505
Ni 7.558378439981064 7.889136169991526 8.426720209711972 0.6234210399439457 2.5930791513363536 0.1716663874314721
P 8.083502122583823 3.5846094434679903 13.589532473560087 3.3818393509421627 -1.0282697719335 0.07172452222849582
P 0.7183024475475682 5.589617843985907 11.354884609313618 -0.32484217225792444 0.16291075272602912 0.2838441325790079
P 5.128464703296746 5.12868782391961 2.1935007027133224 0.045844569137940404 1.1854361659765842 0.49447584553008395
P 6.112426650126454 3.689197235435434 6.033583259360455 0.5047558872998532 0.07723722451660892 -0.7556369346892792
P 7.931213000786607 8.352799417687907 0.12594880259887414 -0.1932322865277059 1.0629758079561176 -0.1508167976759725
P 1.3502888228017211 0.13917334784986865 4.326995902915191 0.837606274574235 0.6768660471369633 0.684975306507659
P 4.201705306153765 7.505201358198505 10.6579524690901 0.2845943804814711 0.2706793130622758 -1.1985364508039682
P 3.8483845031561925 2.414648567403381 9.285218641297535 -3.855245006065509 0.07300775981629364 4.80769217444174
Ni 3.1547117833650105 1.7981569897378624 5.018390933014637 -0.19093397741183246 -0.8549265110202373 -1.0333392160366075
Ni 4.069627194110967 4.804567932439348 9.466935513911974 -0.04700310822241583 -0.3329568309452588 0.01907012925757361
Ni 3.526179730355512 4.711656786401781 13.14100238210945 1.546819370583336 -3.5306900260307 0.9481318288303284
Ni 5.765092917175729 3.3857624850331773 10.54590129228786 -0.3797249403387331 -2.0904585652119483 -0.7345965690792123
Ni 8.394011656069388 4.289837952184997 5.41653480980704 -1.1536406187325423 -0.5926199954026891 -0.3602089817929926
Ni 0.3057254554636592 3.5042488324665166 7.245894288983153 0.025481946321188373 1.2680714215803128 1.37448115389582
Ni 2.0075092108325165 0.5957534454395825 13.129396391043482 -0.7612290840650762 0.3254201562485815 -0.7301632158982071
Ni 2.0565864511699505 1.5722287657029457 1.743311151630135 1.941863457777643 0.19827344849603917 0.36514267164918407
Ni 0.48453897097308185 4.825067139664967 13.643523015946839 0.7568389254171805 -0.04061263131503973 -1.5753742994028934
Ni 7.821753741886635 7.217292084470528 6.144858162328981 -1.5649171086253113 -0.15215814219521534 0.5365468065582051
Ni 6.496742626316867 4.596191864069723 7.942609816268641 0.34951473530394 0.5840955028714456 1.3842140649128676
Ni 4.251563468671223 2.3868607531642083 12.5130284593898 -1.2892051182351345 0.8147172857912034 -0.7198106690192894
Ni 2.853229338412813 6.068732194815611 11.653142961265434 -0.22437477356878133 0.5386715662106916 -3.170456875867991
Ni -0.13900600738272076 7.331408986372782 10.213654232119781 0.6377042893358372 -1.685971844547503 -0.013240152839357842
Ni 7.435569130479736 2.4185531783034984 7.4835344863799 0.5029538010941079 0.9523965176439533 -1.4635449387337118
Ni 1.026457128792658 5.082464668216309 3.4862680992714736 -0.11884898652012435 1.0642708726184575 -0.5907636589202405
Ni 5.083078249929185 6.405514181643399 13.906811858611048 -0.13725371427955715 0.6661301487766979 0.5070364558039139
Ni 5.096316740219108 1.42144570811006 3.4933307966543774 -0.3573702267926168 0.5720532269949309 -0.251854724156605
Ni 8.520827840089646 4.515840549760869 2.279794462944452 0.07135042671852873 0.06601178811443471 -0.5455487529464992
Ni 5.640024511367906 1.5385747384209774 5.820271576879228 0.33774113970777964 0.29906634884540106 -0.1598369988967118
Ni 1.6442409467322627 5.442209485813838 9.338679272204981 -0.057905871177848664 0.03407483019652196 -0.581822647676869
Ni 2.5371696794335086 8.619837616485492 2.687884871170273 2.958897251786007 2.982030238259045 1.39676721898753
Ni 5.3078072006162085 8.8943410594564 1.8536610336830381 0.8173850624313536 -0.40014078499092376 -0.07995308078587521
Ni 4.552181321209822 3.237638281529419 1.2400709537840122 -0.1019871777677792 0.6611977444720871 1.1419539264232332
P 2.8487390358776774 3.1834664536365933 3.0835799991267443 0.8353290485042839 -1.1576800789092385 0.3399430324551048
P 7.216724986220748 6.157534202715436 9.653087838575093 -0.319852689463133 0.1149769051592278 0.3723808412688361
P 6.018241857200039 -0.12323044967698253 7.471139206110549 2.3565672281844057 0.9000861382760111 -2.4298426398397894
P 5.343720324204674 4.969491259506232 11.870957961651461 -0.1557754272328285 0.48312648195553565 0.7712615286004137
P 1.0717599119266448 0.6262986587096476 10.802903711402882 -0.3931712956516261 1.3517281764700204 1.7570422781317676
P 1.9535047234068386 5.090840988266325 6.705342744978617 -0.8462251265914974 0.223732254888776 1.0972668679285038
P 1.6369430430260903 0.524369720831332 7.416372389890086 -1.1208896495537666 -0.6694155043961891 0.5162353486943626
P 8.316012404993224 2.7549540007338935 3.7434071797679995 1.036447422648286 -0.2567336495154611 -0.21956526799527995
Ni 7.394784539958744 6.641269009776946 12.217029203744481 -0.38380528105569384 0.8659395743012893 0.4816668666908737
Ni 8.081587003904241 0.508868415557864 6.3525230337132275 -0.10549570514166992 -1.4842320347694178 0.6566180955212046
Ni 2.526013648290314 7.965805994023127 8.99324671289491 -1.384512827100209 1.0045765420816182 0.27533403822546776
Ni 8.562523506487334 1.2892839258336886 -0.23817103854531002 -0.15646371154910474 -0.5213994093938052 1.154027826868632
Ni 6.308763501554049 5.595986078430148 4.747945496372067 -0.16742920942167291 1.0914695445204365 0.611836934650772
Ni 4.257476165177115 8.998687137415741 5.00619925031365 -0.8585391680721602 -1.0975100942875613 -1.3628253148244465
Ni 5.6578183810413005 6.851699647215441 7.71995030935868 -0.374882010424135 -0.18107996743588814 -0.9591544051930772
Ni 2.094061419118463 3.7472085973800424 4.961664373990019 -0.5772998201058509 1.305043885039604 1.5818869037104306
Ni 9.033698481820132 2.433037425404412 11.37405717850246 0.28784168377417524 -0.1834024449214777 -1.0058260982180034
Ni 0.2479028163792229 2.053574322761288 5.325534134102743 0.9763640842031444 -0.7832048170052189 0.11938480441893633
Ni 7.180709599013471 1.2542539880440597 9.413338221623023 -0.8502584161206067 -2.0967932491807244 1.211058751640695
Ni 2.743537662197358 6.44853927508565 4.447197490136796 0.19777979668907228 -0.327488608741836 -0.25996629752014583
Ni 3.9316735723327545 1.0161099099073456 0.7471789044924639 1.1300111522390603 -1.3099354088039505 -0.510381718127063
Ni 7.7815269529228015 0.701283922038626 3.02134329038665 -0.5251395931625279 1.0627870889840791 -0.6826132340333856
Ni 2.3496367959164175 2.4847270363678775 7.2313486837109515 0.4782406146181441 1.2133236364154716 -0.18419125937136022
Ni 1.494136547700588 2.2518634796389416 9.474432366840201 0.4671830712524019 0.3163387627726036 -0.5279238407758844
Ni 7.200437180751685 7.493292294953146 2.7315756078040683 -0.289154746158644 -0.10807323606085903 0.1417657432172978
Ni 0.40368284625499773 9.108304440090242 1.5580838478826378 -0.7112902902531041 -0.9473263022098973 -0.29877427152627906
Ni 6.2734825530636975 8.206079014769667 10.624901797159126 -0.048716748479412875 -1.326310507727864 -0.9617126528385567
Ni 5.012209562092046 2.5308851152228424 7.820612108032981 2.7656559663972367 -0.16708031072268645 -1.677919920777304
Ni 6.487687647705642 8.977537161706769 4.759782975084257 0.4892737325038541 -1.0502172227388686 -0.534871218627995
Ni 5.7983564833676855 8.805139293773944 12.922765311878505 0.5628167959983275 -1.0800240216876562 1.7224360009118078
Ni 6.821885153985256 5.040081046564792 0.6600995737350015 -0.5043589089717506 0.3803155227348805 0.09189199831530627
Ni 8.81184220915248 8.386732345748456 4.424378758102655 0.5034430820257007 0.11816995817522874 -0.24996239222989852
P 6.345364580396345 0.8834163568131488 11.523607494654023 1.5042480728800287 3.0170599761696684 -1.1831077749537238
P 6.143682130712636 1.7101173106328234 1.64513900723929 0.013672869501402257 -1.0111845343164392 -0.6564134357095662
P 3.8548550012192453 8.079969379388478 13.426755752819007 -0.8568556097221502 2.8207667913284515 0.0621571902550349
P 2.0502368101109494 2.939623502924231 13.459452220761184 0.7725635352412888 -0.08995364364201282 -0.2034490791597077
P 4.5221623007420115 6.955980648326447 5.616933386240018 0.3247364999179955 -0.5704473159603918 0.44689475331701106
P 7.80728808817096 3.2420542105236 9.469357302339308 0.8896358894769646 0.7103541515920799 0.16349902112933135
P 1.630760742434237 7.050156144560243 2.0879534920675646 -2.8123068334865566 -3.8943939083508283 -0.44277687449389547
P 8.253036609189893 6.13187533108609 4.148504052970396 -1.2234720377033834 0.5209057575868383 -2.895926564490742
