# total energy = -340866.9419755187 ev
CRYSTAL
PRIMVEC
9.23173886318835 0.00000000000000 0.00000000000000

0.00000000000000 9.23173886318835 0.00000000000000

0.00000000000000 0.00000000000000 13.51158298474124

PRIMCOORD
 96 1
Ni 0.7864444398194997 0.4966952406597144 5.734167134573546 2.7753428546676973 -1.6904537915782565 0.5042673776992089
Ni 4.919879770645173 7.773437917470437 5.459530291768609 0.3457007608744885 0.18408173037668943 -0.680668451602189
Ni 8.382852688425027 1.7713860338231324 5.555557915206304 -2.207071720423018 3.328733986476751 -0.9172287114935688
Ni 6.8027021230751386 1.910757593926467 8.002154245321012 -0.29267021551107014 1.1915664472440382 1.6002219545741925
Ni 6.52581458235981 6.248243892976028 3.7320744100225607 -0.4435592611858748 -1.4797937964924062 -0.09659377466634977
Ni 8.812802457829052 6.99683635751993 2.624449470077268 -1.270331421259083 0.22378187717978879 -1.2127772769936984
Ni 8.61345229098323 8.315073262427894 8.90638920953784 0.5995547748493094 -0.07650214612279728 0.9298353445139856
Ni 4.320342960166876 5.520625938901409 5.185056850739777 0.3318458572692672 -1.7415863485880136 0.6397102640222725
Ni 8.12239764270764 0.03792767553345298 4.19504887850307 1.81728296809038 -0.08988576651855487 -2.3238247436460626
Ni 6.6524001842765434 5.495349438168619 6.229947509921859 -0.3632002032108325 -0.7466694410833463 0.4132698661737141
Ni 1.6323837432703137 6.086411512462584 3.20147468558226 1.564066587699558 0.4114194432285366 -0.10661542056840992
Ni 2.760973038772251 1.5448207011043116 7.586618912821359 -0.3099781106618984 -2.3998142117984997 -1.3515885655683626
Ni 6.701605351882741 5.952422056058014 9.421802723713188 -0.25620040271981037 -0.1843871774322502 -2.2680279483914165
Ni 6.141146491587753 0.48581655970152604 5.2677206091443125 -0.6708069854270771 2.272603997797873 0.961561471972673
Ni 7.745096479468368 9.293406777825052 1.7647751856950276 -0.016292052291804197 -0.7052204299099403 0.9322025591945817
Ni 2.2830643864950155 7.7825219484131205 5.7466927577270335 2.516461305571298 -0.5884177843958834 -0.45694750956732266
Ni 3.737617145975799 7.275274830347423 1.451873708891793 -1.0126917149895849 -0.06498128996739132 -0.08273218619290912
Ni 0.2313972247873168 7.635829619470814 6.691476288112099 -2.21359332359162 -2.013946906007454 0.7122395415402507
Ni 1.7716537542472561 8.79211413126142 3.4507768677002 0.8717662082853954 0.38522453000072365 1.1226318290558537
Ni 4.6973948664595495 7.31175866193836 10.242225501223377 -0.4745515958023311 -1.6048980198936231 -0.8063930821962242
Ni 1.4055414583886061 4.958403816502709 12.678107475329874 0.8881312799069802 -1.4281629596899919 -0.37870318394243807
Ni 2.1176500913415714 2.595023302770559 5.202810407554689 0.013236553294932044 -0.17687929909097924 1.0087404436513208
Ni 6.326344402910068 3.294050561896511 12.46221957166421 0.28651088077789366 0.0010754924523658897 2.3610327201549275
Ni 6.382565691976062 9.099226384686446 8.980851491225426 -1.876995296349348 -0.9591443778907482 1.1765401490385352
P 3.6903229482935194 1.417016509670877 0.938431170942322 -2.031732255015333 1.823457215221892 0.25698973139032516
P 7.280989276641652 8.795483715909874 13.242404892602472 0.3271574506546624 -2.2366836297521804 -0.6159447861715586
P 0.4947778085186623 7.499144495347481 4.520583989803319 -1.6865210321827535 -0.8670253511663004 0.7642015364298387
P 2.6894547585761504 8.220567952712202 13.22409650828791 0.8448750403215063 -2.3315599075067914 0.23210762343666477
P 4.311849760505018 3.3873557455730294 4.678412565215297 -0.39456149113093336 -0.9740683461904321 -0.6989577368296801
P 1.5752669755443196 8.79429282160946 7.6792944919142485 0.6204799550377508 1.0282129505536355 1.6743394025148972
P 8.034502257946174 4.380358493864417 3.747721284051781 -1.7311067892129284 0.6706835724753353 -0.2404104868754053
P 7.050177344091902 7.283786493486807 7.563054899629085 0.12516207322234574 0.828849097206895 -0.4130893747317918
Ni 1.1034143438955393 1.2340896060842323 10.0078131905561 -0.09873036139337836 -0.020015009669346176 -0.629276213173142
Ni 6.023487981054733 3.9353794537544062 8.004842527648764 -0.004312254222108702 1.9948250975763386 0.4673566207157887
Ni 4.710919363747181 2.4165091703125756 6.717175602480229 0.6248122638645175 -0.02724186643508857 -1.745344530078865
Ni 4.83649870613876 7.032840138695197 7.642056427266383 0.5490408252601577 -0.08475127350546693 0.7693069759772041
Ni 2.367848675293388 8.811362306582042 11.033896028356548 1.5910253756765889 -0.16609352132938493 0.7323921052287258
Ni 7.639762340183806 0.27348287545957495 7.103309693367834 1.8873208466450722 -3.285005692350865 -1.9628374889261486
Ni 3.440678268667476 8.598229153763226 8.902376172697613 -0.38282414808934717 1.3251213725157696 -2.316146401165198
Ni 0.5834809704218809 2.2362779344446944 7.454475804169366 0.6141257306849489 -1.9640019415478949 -2.2624411983322585
Ni 3.901757461179965 4.839831363832163 7.335100190226449 -0.049941364915133346 -0.8987684479058521 1.53607421625169
Ni 5.382703761783849 5.593750541642252 12.346113839591109 -1.9919994552020854 1.1957642873754695 0.37102072769651584
Ni 4.863704640272994 4.645069371151495 10.303933212636156 -0.9065429496449484 -0.44969879842470933 -0.5113355973999
Ni 8.764548159315433 3.920922550851722 0.35219729602134764 -0.7385133876351151 -0.026255334152103172 0.17337719947499172
Ni 9.131879044690784 5.316059839654552 5.584985928860765 0.4971850169311309 -0.06698700754351045 -0.2904097016116676
Ni 6.725894056567903 7.517090995502537 11.09221199894784 1.8086067804726207 -0.2905418563141577 1.683772522903339
Ni 3.6387452238252584 3.822613764765718 13.121273401946853 0.3168408992200027 -0.6266238631519595 -0.4356286934848885
Ni 8.989036350812603 8.708456114592119 11.37510478572843 -0.8512261793505147 1.075223000754587 -1.673477568735234
Ni 4.104606457016923 9.073636004835718 2.75271432527497 -1.116084257745323 -1.4239877452663798 0.6102503068899425
Ni 5.402727403160554 0.2868273538413309 0.7787885588634359 1.183909959140045 0.7930066335869891 -0.3311514023054039
Ni 0.4496632243583003 7.532683402273056 13.060984608781931 0.6222203347676252 -1.9869030145157847 2.397322041504265
Ni 1.3165105697593051 0.4247412223940053 12.905750151962323 0.5870386446601696 3.3719457459775346 -1.6947344212314812
Ni 4.34994914637946 2.4258239947243303 9.0111315943677 0.17121901548140833 -0.032780022644498384 2.06616472566159
Ni 1.4522540565288242 4.9053305503548605 10.235766976784861 0.1426921116863091 -1.4284223839989658 -0.6589050917831685
Ni 6.214695754311689 7.419853091113028 1.637130703342191 -0.3406937945782003 -0.4208821313033332 0.026390831288702937
Ni 3.005254078177056 6.35849854902121 11.629081920355896 -0.1643163748243041 -0.011621386289012244 0.39130904563190677
P 8.265212641369532 1.278448110839914 9.933729410157794 -2.0701447933552606 0.0020933921939189754 -0.4492516835849618
P 6.392351335064724 2.5621583127746743 1.1878385948821588 -0.2471231230088905 -1.2893115619060118 -1.1452035437087826
P 0.7256959060641852 5.632763869654221 1.0102965645159072 -1.1882322406644827 1.697488844048167 1.4821437847818215
P 7.0660005443314935 5.061060751546035 11.272483854466278 1.3355165997071645 -1.4198377276537482 0.7623981646725129
P 6.144451454064868 8.520414827730834 3.5162677456580105 0.6635171366338831 -0.3551282248359755 -0.44706727433913335
P 0.9549402893719963 2.6033964898284996 12.795671822127513 1.1473208471621015 1.3905973427313922 -0.9583046555982723
P 4.400585233493906 0.1571380413525143 6.835145222609559 0.3494784827493659 -0.16834092260266492 0.5104447101545144
P 4.434770362132884 5.46029652608593 0.7300782124549285 0.5578900481206714 -1.0380461345939735 0.837372561296874
Ni 3.1138008625511038 2.398978098401849 3.0527532204598717 -0.3517299977877039 -0.04913172452964441 -0.8640780956125182
Ni 3.9839568631247277 4.860205811281859 2.821691107789648 0.4162104368592767 0.7612491386697341 0.3060180975728859
Ni 9.00484108757467 6.02155854765329 11.530825755180839 -1.4366411723643324 0.0624801208120924 -1.7760077634906768
Ni 2.7738143873914294 2.5115499208765173 11.211519298023912 -2.011762496761626 1.18627923070317 -0.7499170014863665
Ni 6.471098066712167 3.235724436392578 4.964682322035349 0.30318628455104557 0.45204261606653756 -0.0970905117971102
Ni 8.772727479859352 3.3998001294254037 11.056447319806534 0.09822385407060504 -0.31003081827670476 2.33681652792004
Ni 1.223648509543405 2.055566648161143 1.5003671094393725 0.5291834242145983 -0.625517260351342 0.16886311365472206
Ni 6.69767263116975 0.5830535409171591 11.436243822033413 0.16102973365323234 1.3111024325288583 -0.01006741153833105
Ni 3.5231730862526516 0.750508973511078 4.882464456613061 0.2844503987044391 -0.2152116190122745 0.8689487934412583
Ni 8.859275030761436 3.470866054422123 8.836601880359781 -1.5351617317397497 2.6119122248824564 1.282925970094642
Ni 1.5683062445171012 5.614568112552567 7.794129936733577 -0.8843766979605544 -0.6325384288641817 -0.700348960750252
Ni 4.746904681444923 8.249029403318188 12.375758799106498 -0.40879743222465725 0.06763852508458028 0.27422717831453414
Ni 8.574254328196004 1.3847515826945802 13.553333546832077 -1.761099993140909 0.43975145740401045 -0.7660694428765129
Ni 4.590722125054367 1.6714893886699111 12.090218349648715 0.7103310116636282 -0.6665255844429038 1.0174258872404607
Ni 1.0342039983901608 8.930110162289083 1.4142848381709383 -0.7686606006424569 -1.0248314356759125 0.7630957049601697
Ni 7.470138372154484 7.507213035026246 5.405363064577359 0.025506114690904462 -0.026904023479695602 0.4665426094549256
Ni 6.389480264309466 4.562611480521371 1.7591678275704488 0.23389171192028105 1.0139438422291314 0.2790549387204807
Ni 1.4953939717678042 7.287774604632375 9.526422326417503 -0.4469649444333141 0.1728393246936507 0.12153373244113908
Ni 8.201144374355083 2.369962743470089 2.2539484056107404 0.15341952540614223 0.9476608027311807 1.8111431737412294
Ni 6.439617837530715 2.8730001886599084 10.27912568423252 0.688006637134815 -0.6880770853614343 -1.1451932592961374
Ni 0.8248835536804167 3.9381120484282217 3.533981605996242 0.24112473933361053 -1.572590566010169 0.12306045349831066
Ni 7.261159501778966 6.265525707940156 13.484978983510018 1.8457216830470469 0.19960965080895945 -0.28902953343468935
Ni 2.1706125766242654 4.135061963195694 1.5255383683502655 0.3510867077767502 0.9270981480884808 -0.7785266948032592
Ni 5.316669134412903 1.5858927068604047 3.014825544926419 2.670652161925826 2.1722278732709555 0.10711909967770583
P 3.2489996767336122 5.747117417710126 9.2991710755086 0.46645056396175155 1.0398543914473057 -0.3127217348453066
P 7.918071568668619 3.3603621414303424 6.831915960390301 -0.5327202337232633 2.1287191513550434 -0.18373925943560615
P 4.640351952643658 0.2897279661606306 10.419457345167196 0.2690176090891367 0.800322450522112 0.4676859790307494
P 2.0506461314005233 2.942469022850648 8.953315060843481 0.15005189448548997 1.4226366305551241 1.8333364220088169
P 2.227997064774383 4.577797690786323 5.946461122338817 -0.8440738845764494 0.907840071189817 -0.17020394395333266
P 0.7010287000897459 1.4860699156172865 3.8101038355681274 0.10237824255861078 1.0801374073370686 -1.5026897272539734
P 3.640120752900929 7.001895350361993 3.9938486712091636 -1.814939664669184 1.1380545913688271 -3.165867456725096
P 8.844596566128443 6.001147173248541 9.098429685631208 1.92221945829447 -0.3864720292545796 0.3387832078190488
