# total energy = -340890.7295302755 ev
CRYSTAL
PRIMVEC
9.06198366146757 0.00000000000000 0.00000000000000

0.00000000000000 9.06198366146757 0.00000000000000

0.00000000000000 0.00000000000000 13.26312908790345

PRIMCOORD
 96 1
Ni 6.391697867846931 2.0143792451286364 11.430376356290157 0.05624082477059991 0.611406789091889 -0.23618230772667065
Ni 4.4681559450921835 9.039745369591348 6.102776461045032 1.002906610578363 1.4776129867910037 -0.4833362839734966
Ni 2.4642342288960553 1.4233023108549638 4.862567901550351 0.9968424066621542 0.918214986666238 0.08615355316963227
Ni 3.553647758539333 4.052564320851468 4.9341095425065715 -1.114066713094662 0.7160961962821796 -0.2085627462371892
Ni 5.131955296769134 4.436819606228565 2.7816628233200396 0.4915740985022567 -0.3605789635379016 -0.6884627508356272
Ni 7.187394389032257 6.371244971139242 2.887967139092547 -0.3056522295930349 -0.06707236816846512 -1.1736461153201916
Ni 5.146690081902808 4.678620511346531 11.376210162452821 0.49123856953970885 -0.4531042245618325 1.6397017578363697
Ni 5.490746408575737 7.854175133273156 12.607598693429292 0.4830298084766714 0.8326095926905919 -0.8943798319198532
Ni 1.8676204227179087 6.097391830462972 0.5243698615024565 0.09170353645358399 1.7462490441710055 0.46375039142176905
Ni 2.6927683902036286 1.565185786155042 0.34155340683657054 0.4372849981413889 -0.8792208647912276 -0.2922071598317225
Ni 0.37877187917513794 0.12058509553398156 4.551998322420142 0.8079565700286022 -0.6512750860417365 1.509329086947362
Ni 8.63877978668258 2.1615911667132166 0.9834771303999371 0.2720168009267767 1.1095053189762245 0.8156814494766856
Ni 6.835716934255133 0.7519561393383306 4.8951557003321495 0.049074131818831614 -0.5098168467625284 0.01930307120398611
Ni 0.7748775203451657 7.3501204263295365 2.653288952987538 0.3726330664889582 0.8439805535316949 -0.7805326694896945
Ni 7.687824302585058 3.9360000273862505 3.6726533503532655 0.05880909971840839 -0.3397741109774084 -0.07333069037335113
Ni 7.798770166294509 3.940014486066581 12.568591385552358 -0.5431146895837099 -0.17833634325247996 -0.2454907296117901
Ni 7.953576030032851 8.747759199977512 6.995557636013322 0.013430671583609128 0.1040258054643628 -0.07781109474220793
Ni 6.719279508558595 0.8692363294982342 0.32439997831287387 -0.15638195046857584 -0.7894322859721695 0.2530122347998158
Ni 2.0083711500833563 6.365191566176577 9.612147368315528 -0.8343466299863567 -0.6015345242834995 -2.496087112790321
Ni 8.685784294978006 5.167233598445266 1.3495894186576447 0.9507083313082532 -0.8526271734630992 0.07799518572855599
Ni 6.270231041320632 2.12700157578134 6.8964159119810695 1.1450420784302537 -0.5868077595962862 1.38336714353154
Ni 3.2909499195233036 4.066411031604391 0.615846959909825 0.4234015552910772 1.3687370523231912 -1.3452333127742961
Ni 5.991973776674519 5.541076664807241 4.912450495798088 0.19387840475213708 0.6582929121204664 -0.030470914895347524
Ni 5.119893796761189 2.8270488613664666 9.468733324006177 1.282103731303663 -0.5926261660502761 -0.7765652002015142
P 0.2466626592533995 5.67044554092552 12.463229516061462 -0.7876268573323145 -0.28395314735304644 0.7502936680994949
P 4.128503742389097 5.912799227035586 12.92131187462769 -0.08742470657257202 0.5587598523201344 -0.15396897015170904
P 2.3377833114573834 8.485496336168382 1.4335985364815813 -0.23028368285404857 -0.7149523124857236 -1.171943016586156
P 6.328037433920696 7.7177016621088725 5.658541719430076 0.24194492124206074 0.05350645655857237 0.18860378661675906
P 4.664384135304094 1.1693764718447135 12.608156005413132 0.0473823459387055 -1.1848309282924177 0.05156141701705958
P 3.884636705038365 6.144142603221042 8.213152921939386 0.3817075179864006 -0.29484459745456965 0.9067388677058383
P 4.520525147606021 1.0840035255074818 3.8383227198838883 0.4400003401900229 0.8066481356298236 -0.13473994671876796
P 0.21527376088561448 5.545326735057974 3.5087737225593587 0.2962427633536769 -0.7975361460262265 -0.7748371617668139
Ni 1.3225511785571884 1.004765541984209 2.5427146306006474 1.3632469757428973 1.070424036704047 -1.0688479504661785
Ni 2.039018778202719 6.3453005124444655 4.702044832436341 0.7816318160911442 0.6721611854621262 -0.18880870353871354
Ni 5.985131979149351 5.708551181446491 9.017070474535087 -0.520439359473381 0.08602782622504539 1.164827231476981
Ni 8.623736894110687 2.464768885921201 10.189504459604956 -0.32398213825047434 -0.06479771320167549 -0.20395892891659068
Ni 2.1890036667312747 5.284133185299135 6.987546842619615 0.6051716068154546 -0.5334787091558425 0.9320038129202142
Ni 0.43625475896507127 0.3261552845123773 9.137407271721797 0.5731246056822387 -0.6276811007718803 1.0394144756964099
Ni 1.5705414183899749 1.2761900710886314 11.2146649016026 0.22895519385061214 -1.50387474870101 -0.7827433039877681
Ni 4.246871370566246 7.002693041803146 1.5764153960797949 -0.4808700818211911 -1.4332982240340284 0.40328267305401516
Ni 5.722542883935047 7.88589207544281 8.044194052406596 -0.743173769225262 0.9684214323172998 -0.26856535204306653
Ni 5.5968712970754 3.042234721012354 4.910289212738812 0.3489082120681926 -0.6961477781847107 -1.116240066596897
Ni 0.8128925410313652 7.107902669971627 6.582928374171251 -0.48688234945354203 1.596096362441593 1.2636563232317526
Ni 5.127958962055758 4.4330951310195 7.022323110411119 0.30073165236296595 0.6338481488145407 0.28465737250892265
Ni 8.192594906223365 7.289704182488084 9.21701226557589 -1.1943332113558978 1.4677078118621496 0.8427536231031292
Ni 4.535332428607511 0.5014122325617131 10.477526917645932 -0.4977349758973299 -1.077694088002899 -0.16650489783519065
Ni 8.389457435278668 7.187394389032257 4.746993176680827 -1.0973144333369875 -0.32453235432698946 0.5263701231355193
Ni 7.318648157713763 6.219710483436112 7.017998731895874 0.3750141651266251 -0.697111941870193 -0.41516502631389796
Ni 2.4364501875554385 5.129535747180764 2.6274922046234375 -0.15601119739271843 -0.21116470263641052 0.32838103864911833
Ni 2.3757620842096747 5.064941928956394 11.716939834991328 0.37181288458050804 0.8746700121957517 -0.4365704885728675
Ni 1.1569796784481174 3.2866454773717075 3.6711409053109465 -0.1348754438553677 0.38461569277213115 -0.0722351433163272
Ni 3.517961667606733 2.6555055141460238 2.449288299547367 0.16057207729052345 -1.1100871596216237 1.5537847461575756
Ni 1.1425801867030945 3.3580810931212457 8.290781497197136 -1.4481010933748157 0.7943340941491611 -0.5650999356055494
Ni 3.8391546099670815 2.4800926999808826 6.946192481022125 -0.532424042639083 -0.2540687010887882 -0.7405468731253763
Ni 4.110071667996789 6.654857868020288 6.151863413143484 0.2891092376326892 0.2923462565127481 -0.6450481312954182
Ni 0.6507908743956543 7.390292199083273 11.231045342935705 -0.907447977957721 0.09242061712526663 0.8416015117765571
P 0.09830983394905968 5.801064970763633 8.290556760006906 1.8165427474902458 -1.664544270801346 -0.9821953461729407
P 8.325833249286344 1.746996360654976 7.72306726252563 0.041902810881372994 -0.6901463091856371 2.0549606294156546
P 1.7226196251017276 3.3628023865127856 10.388716760975859 1.7789961566950392 -0.8962562230069596 -1.2058651232548974
P 4.11858993246521 6.029318210583417 3.794461813656648 -0.7401398674949448 0.9016820220082213 0.03569616785002885
P 6.859731190469299 4.072663800203552 10.318263464235232 0.8298618547421256 -0.3269592186009272 0.5946447391422016
P 6.125284615605313 7.808738348119257 10.282545656360462 0.3046968076583011 -0.7630537959786408 0.3835399432094491
P 2.4183352825848274 8.519505960157726 5.8776351063512635 -1.2772070653329939 -1.0622972938318545 -0.033284987305374936
P 6.89810869049458 3.9406669488769284 1.4993704125579665 -0.1156623612620266 -0.41819481427915717 0.03808112314243764
Ni 5.25480860676742 2.91477792340773 0.43981702466989725 0.867258807333345 0.353553681260004 0.3188952106458702
Ni 1.2951839884565155 0.9765737113871251 7.107618123690448 0.6785380355227475 0.17416164304950008 -0.9306799519024681
Ni 7.099547521205793 0.604169688001306 9.415640975210872 -1.3374446699678126 0.4747426287672147 -1.2461987898769376
Ni 2.7382957951922977 1.913392501260458 8.990981930303025 0.9845116530109432 -1.3458516630845851 1.124288133712354
Ni 6.493636119980199 1.7743363648052177 2.707588357981986 -0.7989901048639336 1.311644163964941 -0.39946072820476364
Ni 3.9135988042309977 6.704725963094463 10.777605438504766 2.030034812708252 1.3004763202735796 -0.13303299132999022
Ni 8.39172293114793 7.473907120625958 0.4416067664066134 -0.6200572656780353 -0.7007917047146254 -0.010893506984052207
Ni 7.7421055836125525 3.9843547712197576 8.314031828204188 -0.036873733097897786 -0.2949870365697049 -0.11262563131823185
Ni 3.1758355434144137 8.128581054941526 12.652892299244256 -1.1911761537841552 0.7972360982873044 -0.012454680823585002
Ni 0.1828554211948372 4.777278325461109 10.459449166807577 -1.2940902142415778 1.3137007893836536 -0.817435970273947
Ni 8.83755439425154 2.325404642027741 5.711580602522867 0.08726272707341101 0.8757241644918788 -0.5732287353602709
Ni 3.5577347130874797 2.798992960521538 11.492236174099501 0.5690321807804201 -0.38962651572316126 0.46197864423332696
Ni 1.1996616206249946 3.2183815558391355 12.428678891658535 -2.0374858696696587 -0.11611538963904519 1.7777196039754608
Ni 3.082216192113072 8.38822500552579 8.298713451334592 0.236358942513851 0.1137278632434751 -0.2267746412595256
Ni 5.571053706149302 8.191117802916606 3.364046596844184 0.2892642751533147 -0.2677911928812033 1.815053307428913
Ni 2.9561005680630505 8.4148672369483 3.5173817006642025 0.6415293195088823 -0.39130570319779706 0.8255927950531265
Ni 3.637090502395954 4.465092994676942 9.68792004935718 -1.5203030694603623 0.6918792327163439 -1.8639796008159704
Ni 7.226814017157398 6.133304470982497 11.38963186618067 0.24151837522760342 0.18509397369128766 -0.08988345252570971
Ni 0.751022755040195 0.07945728352341731 13.121690453272086 0.7191038727602519 0.13714907038089283 0.6644751296717782
Ni 4.4733303376575755 0.26539106050540634 1.5798372010407264 0.045320321203354205 1.6623472631500271 -0.61660350280148
Ni 6.352115124019202 5.933659912999741 0.4326236221858197 -0.3072609688410515 -1.446836110619463 0.4330380499395768
Ni 7.779839682810963 8.710469137969476 11.531481812141884 -0.553672410494898 -0.6107719837213674 -0.04483258293365828
Ni 0.27322333282461553 4.956669350372671 5.504675583378303 -0.758823559947377 -1.375829183283282 1.3475390780893375
Ni 8.16894312934828 0.08006353021803156 2.386607466035001 -0.8585826197155859 -2.1590396567154557 -0.882434743742835
P 8.60747969575287 1.758360087935189 3.5056437134663874 -1.4753817834676397 1.5681901229496285 0.957040701284184
P 1.576939178724768 3.126773964869697 1.3691796145383184 -0.607215890938993 0.1541530611380571 1.6918532430289446
P 4.850644143691257 1.0152230709167178 8.262969363707741 -0.3812364918872531 -0.633175034006916 -0.11673708238344413
P 8.423503307201923 1.5265545505924032 12.186719401829722 0.41143795517129783 1.0292362496118275 0.15407104294721208
P 6.44780060755331 7.990023327577523 1.3890607000886053 0.11127117417286643 -0.4394159284414626 0.0062441811374989225
P 1.8613495301517944 3.2760701426539973 6.197090866479062 0.13848398714223245 -0.6859137591615284 -1.0900356402873872
P 7.333609492434363 4.077856316735898 6.178589014813983 -1.6202140814254031 0.32796683392983517 -1.4436147754686879
P 2.3380098610443096 8.362670212120527 10.450337342421408 0.8659478018314055 1.2397802879451034 -0.4705622721372799
