# total energy = -340874.67324342584 ev
CRYSTAL
PRIMVEC
9.23167808463774 0.00000000000000 0.00000000000000
0.00000000000000 9.23167808463774 0.00000000000000
0.00000000000000 0.00000000000000 13.51149402918984
PRIMCOORD
 96 1
Ni 5.19897635213868 7.317138689627311 10.68167355408003 -0.12428018483802465 0.09562061211980305 0.2483845062198174
Ni 3.6981455480031507 3.1407276042697903 9.542668210683654 0.383511661074675 0.0658814331841575 0.43333295547217626
Ni 1.3555888156166749 5.127781652115964 9.335956171649855 0.1976162745280145 0.46846116663387705 0.4227947749450138
Ni 5.769124779706498 1.8528531461047009 8.895115856532529 -0.19309678939110617 -1.2324382457577356 -0.643606256642569
Ni 6.538880546990496 4.145152623962693 8.931367732507532 -0.023948540395797465 -0.12878835712102338 2.269020908432305
Ni 1.7976200171840686 1.7920533154058398 12.529735459350732 -0.19347448444549906 -0.13086220893091655 -0.6225288671469795
Ni 3.2332013218693176 3.470603150938844 0.5468301323412377 1.6212530642128788 -0.3741417898240008 0.237782562334255
Ni 6.004966455209655 0.35733978844389686 1.8577357805499828 0.5244572223835225 -0.512759217220304 0.06137711755590075
Ni 3.368454634892246 3.32054222655227 3.1831323935701463 -1.42332028688571 -0.15333982120814238 -0.8072957965161516
Ni 6.664616000090783 1.3590137681203613 13.22504974549194 0.6055739844601958 -0.6791743835551659 -0.06274391599644033
Ni 6.145731079943368 5.866537444986544 4.6026228836626055 -0.2682696751795186 1.0173109589291511 0.843462990465328
Ni 1.3937987304758588 2.6750356122254484 1.9745155829121936 0.7652299776943531 -0.8781394588015908 -0.6410001864782896
Ni 4.121713393755525 0.6911858797809715 6.499095707880292 1.079059343781542 -0.04111708175528403 1.8311910935310398
Ni 2.7142702433323658 5.777036327673234 13.636340382795117 -1.2006789510682676 1.0800988407896495 -1.519000548598855
Ni 7.449576340888449 8.29565962111174 11.746568833570493 0.13019655032245964 -0.8946868216373108 0.7792946833175354
Ni 6.403156418394284 1.551051131952384 6.190210227269541 -0.650210392222648 -0.8398259079333729 0.6657095162995115
Ni 3.353296219768115 8.760428445365331 11.927082293870573 -0.19239076446301706 -0.7389970121397531 0.26532910449395597
Ni 3.000295319940748 7.906368995429951 9.218662164828196 0.7474412862523644 0.7846801159991648 1.6897603650556574
Ni 3.5438749784907513 5.089257860207925 7.682945773047976 0.02188600143981392 -1.158221039014373 1.018658474095981
Ni 0.5555669923129052 7.163126607096322 1.4756310929513996 0.24000965189256085 -0.30822384697495303 0.7664157704723381
Ni 0.22308072713160676 6.517389200821812 12.683428125826122 -1.255603113909973 -0.26646527498092826 -0.7112429819549364
Ni 8.794881067316158 1.312559964889771 2.521434339361343 -0.8792941412313245 0.6081700273221461 -0.1940640384003819
Ni 5.540059155787453 0.4764847466860116 11.21168910828053 -0.40220898037386216 0.5769257245958839 -0.7282572571247459
Ni 1.2094421226628842 3.6780204901647795 4.715957423829734 -0.48246339445024006 0.10336014685590586 0.6264837380296695
P 3.6430785892848534 5.8092733469262585 10.103286777147549 -0.42591995083755685 -0.09629526958932448 -1.015859314084289
P 8.095073723537363 8.522103448505053 2.2845504074224277 -1.5980349742252027 -1.1901155737301246 -1.0508918802083902
P 0.0798909406115915 3.7327735718342208 6.6638959292139965 0.11918528681362055 -0.36306444896391665 0.3716203089537277
P 4.642306174315827 2.976311420737037 11.821395275682026 -0.4002924800774396 -1.8428471897127294 0.726512249409181
P 1.1748325621876294 1.5991851005621411 4.1068725483514115 0.2133223724093616 -0.2782039035740951 -0.8037137355918481
P 7.278633361075086 5.533966248368496 12.23186060098027 0.11954781235936185 0.49362840992812407 0.1584228921580046
P 0.8248190333311324 6.253381676022841 3.7722602277480135 -2.137998776884756 -0.9658166477046011 -1.2444972338047986
P 4.733921345869957 8.146420316058933 4.7926892842613755 1.1175670129384365 1.004859877649992 -1.7286251604416552
Ni 2.9273742961493268 7.7674322429219265 3.0024703032557576 -0.4665413239033449 -0.7487854589850846 1.1995448374638245
Ni 5.195929898429203 5.992503690034518 0.2944739082293353 0.6231965826379655 -0.6565065096440049 -0.8974101341057448
Ni 9.194068051714797 9.12099008939895 13.7141661970588 -0.971507013221159 -0.15129116620922978 0.4864686589548912
Ni 9.26777376812836 1.5715085301954261 7.62794066657166 -1.2987251419104278 2.3622943604761706 0.6144504610142192
Ni 1.5354865230003223 7.490121870258234 5.21107261970089 1.7131154948418303 -0.6506834752043246 2.0731959214767586
Ni 0.6725434294145458 8.78960977923097 8.403730258536006 1.4959362105802236 -0.743649680420416 -0.6832110155183847
Ni 1.299201726957604 2.7433223337072996 10.051443520354555 0.547843976738579 -1.389089647837614 -0.09177681289368064
Ni 4.0774198031552915 6.668262512864248 6.018154830268324 -0.3735818035554727 -0.6513159665820009 0.5680279078856219
Ni 8.45726937456061 5.4326208882998515 7.906466851215772 -0.14083577520386067 -0.7127249658171017 -0.29314921203001776
Ni 8.568991140597296 4.858161267149226 0.5925657110306237 0.08859558695222161 -0.6799302878845838 0.22847516889040007
Ni 2.490180493805468 1.1821994411578223 8.204232775786924 0.5489822041080804 -0.8645588919036788 0.8246826245340314
Ni 7.3601306136425855 6.964396276781354 0.6542997875337245 -0.5081188902348153 1.193959372956247 -0.685075322420633
Ni 8.87944323694895 2.480099501530467 0.06897263515037942 -0.2961442901025996 -0.5288540658996377 0.28461417797581307
Ni 2.9318424282565614 4.357952031408705 11.703669226334295 -1.08611445085611 -0.5016811050292715 -0.8797240296798914
Ni 1.1671056477790436 0.32460887442282016 5.9648788170640845 -0.47565819860294856 0.8632532857183779 0.6800521581744288
Ni 8.084863487771658 0.6052306499519367 9.91811224267197 -1.3631310189903234 1.361379069296223 -0.6445115420656579
Ni 6.470806154100517 3.913280569959764 6.793240968376119 -0.8243136712303868 0.45805436947825634 -1.6257869475274904
Ni 5.149660728756762 2.7730575682473897 1.8106486842149374 -0.061778466759377475 -0.46314386818602177 -0.17348698557997863
Ni 8.186301164619378 7.127012283122142 5.968324079259167 2.5266940390429 1.6120562282049593 -1.4274721042705545
Ni 4.919607315301612 1.5333263103699648 4.094171605886259 1.2981641272006355 0.28381713599581443 -0.26915130645352353
Ni 9.091642585330975 4.036781957006433 2.9324941847168313 -2.215986506414145 -0.6457065908150235 -0.24004230490270917
Ni 6.318169591577748 3.7614379317370394 13.209174028994397 0.09028248773634129 0.5432990376803739 1.2554462766171346
Ni 6.021426536918746 8.423121397980731 6.779959353370584 -0.08160732855984655 0.2770006272946132 -0.8223028114479451
Ni 6.843082797398765 8.574216270292947 4.189495142455835 0.11541810646170444 0.3814524645528011 0.21786551169535381
P 8.709829618754268 0.931088570395643 11.968643307810183 -1.0911126754016498 1.5551597721282313 -0.355575082565407
P 1.3611924441065335 3.95337374711208 13.375986756111939 -1.5694255380186262 0.42982391387765334 -0.3793271906796822
P 8.487438497962353 3.2874651246096613 9.604901720961553 -1.2566346404982809 -0.36060056080445635 -1.149021374792976
P 6.617774466388076 6.255957314159037 6.789390435520896 -0.9518848681148574 -2.765502471538508 -0.15358690422194193
P 2.4578603894512754 7.6927479686501705 7.297179801991274 -0.8445204851955649 -0.13592779637928204 -2.2695909220031623
P 0.20555346345640826 7.1915417116956375 9.762689559756712 -0.8929343577225783 -1.5220473058449786 -0.1553483669977389
P 3.90061470787066 0.9881218765082398 2.214777385797467 -1.049301910013451 -0.3254805771728717 1.3311215559632625
P 6.5303504766039575 3.025183923579395 4.614147710362341 0.4803188373034114 1.163867438666873 -0.16699289321520272
Ni 2.0657171752960664 0.33606723304162156 1.1300847730343468 -0.4931188172815572 0.1553231701867583 1.2201170051882213
Ni 5.251301502518447 4.926300281784559 11.30806597929935 1.1525121615550538 1.0948829410773595 -0.3683742912126043
Ni 9.121488600005955 3.9065414450872815 11.514129954544044 -0.36858255056866845 1.5262284338058618 1.7053715892303531
Ni 1.3727781998804587 5.578185985545469 6.759692127692437 0.2778236374165409 0.3412645794800058 -0.421139755840094
Ni 3.0317661099274495 2.5907319295740674 5.594866704356548 -0.4361557696329521 -0.6070539114398319 -0.08883701353906634
Ni 3.9842537097127004 1.1480514645779427 13.638231953598368 1.8759087481533885 0.5613435538869107 -1.6019394514859313
Ni 2.6854304815493046 5.436821301747768 4.435647679013891 1.1091685044620962 0.28206441497076584 0.00032138789516073684
Ni 3.773171394357485 7.784704712286877 0.9330955371727356 0.5039719579459772 2.183656169712555 -2.150866891096676
Ni 0.8711362077286915 9.01836152610116 10.77526799737753 1.2056859173645558 0.1469064068779728 1.0593302407837302
Ni 0.5897260469062736 8.573985478345259 3.466387043638485 0.297122594855469 1.0016699099577848 0.5865820167387253
Ni 3.107151991720176 0.28609246785710696 4.612999289630647 -1.9673803711018247 -0.14440755171551903 -1.8970036211504753
Ni 6.184919552660748 4.874529032079242 2.433946650999662 -1.912377275393068 -2.555868089503695 -0.9636016423311533
Ni 5.205826257146053 6.58672833358512 8.229689127616883 -0.14559025916971055 0.4429900189459661 1.869154460148691
Ni 8.445508216906443 2.067665059334551 5.219841790545235 1.2039013146603073 0.5343806521448216 -0.7088073759302503
Ni 1.9092863931533095 3.3464093880491124 7.797469353329591 -0.5940744684610284 0.28251332958272635 -0.9670538625458119
Ni 5.412301965225422 7.106499494811656 2.6036516628056274 0.9850114754654972 1.1219191192595452 0.9839845768628794
Ni 7.917243912004998 6.034803238206728 2.741090113989264 2.062790924093351 2.569702424283626 1.6584723535756534
Ni 8.17887889558174 4.771014227702332 5.113343307868618 0.23210222412002607 -0.09737307603453553 -0.4620575771003784
Ni 7.7416573982041585 7.9021870453378495 8.374396601984893 1.4460398399704129 -0.8689945590775291 -0.9818862995729541
Ni 6.730447095249237 2.715054935954504 11.164425686897449 0.9595231013864055 -0.39949312410459586 -1.4464229343414443
Ni 4.653587284718805 4.044416554635943 4.792229546701582 1.2401932071128061 0.5446468099575201 1.2477321958023284
Ni 1.7240527759391213 5.106899596689177 2.1537587643321983 0.7173292973583324 -0.3490475658595344 0.018638183926477578
Ni 1.868731632105618 6.820945233776557 11.101610580911379 1.2573514640596475 -0.7489114430399877 0.4090072342426182
Ni 7.410877147100168 6.115958918691648 9.973563239191218 0.016889062445854783 0.2684195704938216 1.7781219816202023
P 7.189076853694332 2.642641654447996 1.5581318289074442 1.5927194755495602 0.47965960645285777 -0.3498320094340427
P 2.799589410553573 0.9208967979857519 10.415794768169205 0.05991364563649682 0.9828612618917136 -0.7009840232310895
P 5.962722297104889 8.54747209939489 9.06638840724719 -1.6578642876780092 2.6052931769040417 1.4571459771859034
P 1.790927050701124 7.879744836344693 13.240601430094934 0.6919496809429632 -0.07558194830137306 -0.4283362735885333
P 3.792382516083013 5.878353992708155 1.986838026583138 0.08236554688210977 -1.409429902056863 0.9686734004271059
P 8.1796912832376 9.341996458504738 6.307016801497684 -0.47149224015071706 -0.38598480520551587 0.5581594997319742
P 5.552069568745123 8.570412818995052 13.25103230296263 0.17283623936985718 -0.4144698000190862 -0.8612534816795296
P 4.183722574260269 2.9229707857874443 7.344767255268907 1.1604656120741754 -0.2825202715612618 0.8339550509748929
