# total energy = -340865.3461403741 ev
CRYSTAL
PRIMVEC
9.31800621824493 0.00000000000000 0.00000000000000

0.00000000000000 9.31800621824493 0.00000000000000

0.00000000000000 0.00000000000000 13.63784397890493

PRIMCOORD
 96 1
Ni 3.1041912973607473 1.3444019474850095 1.6645537347907273 -0.9341406567575591 2.169807436754921 0.7561578401897557
Ni 5.711937855616238 8.527028689831228 8.762396869707146 -1.4125206251670446 -0.8918470381956706 0.5507351822434451
Ni 3.513186547436707 9.18406926734031 3.490347182219903 -1.7126699226639797 1.3426632380542747 -1.0310725314896179
Ni 7.929725850645727 2.1459554845418123 5.284760379867091 -0.39495615546619073 -0.3147523921220902 -0.0007656745214309394
Ni 1.032751909118059 1.7213339379179429 10.040889763302873 -0.19586741015770784 -2.0790256407846583 0.5743803324662108
Ni 5.464265248434706 7.281938053382365 10.80005382614635 0.2130261813251815 0.32028000680853874 -0.25948241590519183
Ni 6.8862582342944565 4.2447432212449145 6.371873537679547 -0.3464558938729581 -0.30224500368369883 -1.1736003496839207
Ni 7.279096061463992 6.509680328100534 2.7483124103388734 2.0095762877435845 0.5767267212112003 -0.9096542415804205
Ni 6.256072150912431 0.06689396715410925 6.658909130631495 0.4976804685103106 0.5996907862065414 -0.4956732082722948
Ni 4.214888329092558 3.9123140288518234 11.44733379206692 -1.1155291565728014 1.9944327472339265 0.22548934678919874
Ni 0.39596960908351975 7.928123153563891 12.43088103717133 -1.2674119336194432 0.7811008832883386 -0.8668204342443458
Ni 6.746572002004827 6.032188413788627 9.435656368964167 1.4346537096206582 1.1541224434649673 -0.0726856005901845
Ni 1.505016421901416 7.407628640224792 6.886892790522788 -0.15702935424458764 1.2432955001872135 -0.10291714578121629
Ni 5.712767158176026 2.3272652509277516 12.036242971186617 -0.8133409742689669 -0.879725572341788 0.3830429489683726
Ni 4.961148816825989 9.28999636284218 1.3053753417416534 1.2751321850818362 -0.8915343920512581 1.3748768466723418
Ni 0.04846574611487233 4.503653344011885 6.628374024019988 0.4321481911354557 -0.2771854896119097 0.9061997073729169
Ni 9.412863593778813 0.6341480996564272 0.49356547516172355 0.3371261318316 0.1813663883280554 0.5646808457902598
Ni 1.4496488285277263 6.061381727494412 11.123203216075481 0.6170403332285825 0.3510689671649373 -1.531385038306137
Ni 8.263049571642634 3.0035381934188767 13.342366548833336 2.781760585268583 -0.10203242918341783 0.5649325567897496
Ni 1.7884049471915573 0.507814570380008 7.079800679337578 1.3382661374278437 0.09732885306016141 0.37268346011091946
Ni 8.115489624038167 7.643756237613325 10.356756199515937 0.23237707504796756 1.4771748708123205 0.2670843966221659
Ni 0.6836965981021683 8.527652996252641 8.63912430549691 -0.424298870294366 0.08260440236579322 2.7260185545112727
Ni 9.23394855500934 8.297181428681984 2.633986063967425 -0.5352568841021877 -1.0786037443013616 -0.18751903819301252
Ni 5.171465536791917 2.7355896045508494 2.165553115370413 0.14176677165856227 -0.803009767546288 -0.5155709756374863
P 6.343866406174448 0.5514843386575464 10.643055669970995 -1.0766941859834747 -1.0774207797368542 1.2723312252979313
P 2.0130434428248303 5.577069032578409 6.388293728363342 0.15410086774388299 -2.273611613126781 -0.0025579905351633364
P 0.8845937455097893 2.601997348374716 8.136501728221551 0.030395067352089584 0.3248367729412857 -1.7694617348420432
P 4.92582425498155 4.503401757842061 4.686481013622425 -0.06163037121728741 0.4872034802383868 1.680985447076505
P 8.618177427357555 9.091774415040344 4.63712632970751 0.22033608472303343 2.7963729358651195 0.03341251402217472
P 7.2551860573244955 2.417938770133301 7.647898091409119 -0.09578002051580278 -1.113926330862056 -1.0244401137747647
P 4.095701710640377 -0.056700068273123676 7.240699352945822 -0.26018201307537775 1.161506137523548 2.7377736381646725
P 4.619587978268943 1.8585695345533686 0.23273957030158082 0.3168270152629318 0.165087962883006 -1.0317672435637972
Ni 6.127725932277426 6.887935475426611 4.880316044063044 1.8588469075750953 -0.3655854156135575 -1.5753545019085513
Ni 2.2876078161585793 5.647895198386792 8.790040598966947 -0.0778288353540208 0.7206845869838104 -0.7811988423187836
Ni 4.476407493620658 8.461746737765246 5.425380276386954 0.3222397016380708 1.983497074158029 0.7426775463151339
Ni 3.8653140051263284 6.667406220567117 4.520140624340967 -1.752350014862421 -3.165260933489349 -0.5039467611349966
Ni 2.540582368918979 3.488316788649367 9.260545872162798 0.8909306970289882 -0.5447591671656683 0.14982126653192263
Ni 3.27162655238125 1.0849606983595237 9.109425514355017 0.14835265240619613 0.6000281149413021 -1.8767402429157487
Ni 3.167199655892031 9.184031995315152 13.293297927711517 -1.0865134860667416 0.19949317983575318 0.1143187027499386
Ni 6.5796678733428395 4.157340322247067 3.392836109998936 1.1223397517367315 -0.11804448834095799 0.8530871438186534
Ni 5.316239400515751 6.54955207701437 1.761818811645645 -1.7755205394416131 0.28843586571474844 -0.817153920257154
Ni 0.5632501851996127 5.647839290349054 13.134007541988884 -0.4495982682911031 -1.9468331430780923 0.8256385606893974
Ni 7.401851476325147 8.428201915122148 0.7119282935588503 0.5098345873743413 -1.936927968149238 1.0050228855904175
Ni 8.352781972212918 3.720549459408785 8.964182023114182 2.115716825558105 1.5722745774316471 -1.6178872330644396
Ni 7.705916657572241 0.31865717909684194 9.045149906968328 0.6853074930360972 1.2203730870630853 -0.7952090405549467
Ni 7.07115543310195 1.1680586784515066 -0.07230213800467968 -1.1896923701497768 -0.40409488454266534 0.6457909229987137
Ni 1.4312457661054716 5.215064488221653 2.101059466636543 2.0654975243912364 0.7982156885917544 0.5918656337351678
Ni 5.066274563786939 2.470445735576037 7.482116782505046 0.36322077203612285 -1.3604352173257153 -0.18565550262171251
Ni 0.7232431485964927 3.9066579990339454 10.630617995175438 -0.07034383983088531 0.1770757313725015 0.9807951233913043
Ni 8.55817878485786 0.4959294533574329 11.231268794020846 -0.023654663304462486 0.7137004423564934 1.342325652209198
Ni 6.454210236657658 4.692771599668633 1.057197698619216 1.220258158751776 -2.1231357437299954 0.7251547069400222
Ni 1.2250196509007434 6.468364288211786 4.5113174041852036 0.2385297249129247 -1.4473968682189398 -0.7178936545022346
Ni 3.539547187230408 6.781412027522198 11.918098105837629 -0.49937405416264957 -0.10259344389321041 0.6571081477837457
Ni 5.562355900646895 8.566024546153828 12.78775601906558 0.13147104615950905 0.0796391490898822 -1.0883657087841319
Ni 3.9608887956402854 4.7874052715473265 7.017871345934648 1.2221528046713275 0.41447288534287974 -0.18815667177701142
Ni 1.0608456980816527 2.026349555806592 5.533241789994574 -0.8595349563265262 0.3466222442474934 -0.5955117151281873
P 7.107011121304904 4.129283805308632 12.17661687234043 -1.7379744628670393 0.6187773705243472 -1.1216352694705392
P 1.7037508600491862 8.200460523394389 10.77331021629414 0.5934193513755328 0.4023768734102941 -1.2418292000543323
P 4.6739771809822095 6.164047520794868 8.64730644681994 -1.1129038031348124 0.5961439493955475 1.2182511556240763
P 3.119053517392897 1.2575488108582575 5.1090637804700965 0.14147495144975633 -0.028660601159486127 0.6329588042310519
P 2.188576045311125 4.3254651097330115 12.45677950385306 0.5094476363485678 0.18174408338244827 -1.4375814247904146
P 5.2630056305824136 8.168397263751363 3.2557216474452773 2.0647277361047474 -0.8955733380073221 0.09602247554391205
P 8.998156405847237 6.007467743101922 1.333395518455558 -1.7625750350245386 1.1716136582711951 1.3939053240587025
P 0.6785549222314847 1.7578418865611802 12.370601922682313 -0.07338699753258329 0.29371048385012644 -0.6249691011573559
Ni 0.34738831969065453 1.3862025237008244 3.2625955406852247 0.009543420714060983 0.3284885107612601 -0.5582577158727353
Ni 5.986232006767585 4.266612582006956 8.689216043709344 -1.6095398895410087 -2.398150965163463 -0.7258967273123692
Ni 5.422371492155993 1.68503098541308 4.695946244411552 -0.7995979136512616 0.49465016632441905 0.1128446893075734
Ni 8.987058660356144 3.7694969464488377 1.8548153098192286 -0.7827954973819422 0.17148820998239497 0.870139728425566
Ni 3.6243596804797047 4.498276854382699 0.37111475910624286 1.8639541468946736 0.8526387434273249 0.2591980518955536
Ni 1.508091363977033 8.694650304977525 4.767885911971559 -0.13372718918353743 1.5745980833585012 -0.10574895880305658
Ni 3.1380156601925364 7.850858245409291 8.726884084135655 0.46115974787645736 0.9838228544740346 0.32677769871774043
Ni 2.831835291517669 1.9169934339900958 12.192983018587745 0.1728066716835024 1.165606789955483 -0.2600915102441005
Ni 5.983911823201437 5.837181178156757 12.916961357880497 -1.2455945806340356 1.2809230807320005 -1.6950408967283066
Ni 1.5137008037634623 7.482182008549074 0.6380681849025246 0.1855832546228804 -0.4734933297411458 0.8101836595869079
Ni 5.9667107835905595 6.367478234112672 6.984225888823621 0.9191791503517202 0.9002049232420625 1.5054855448315556
Ni 0.38062937532870567 4.0500714338394745 4.3855765001088125 -1.1542628256975733 -0.08060382699599666 -1.3414746170628122
Ni 7.067176644416226 0.28955145465018145 3.299812589607112 -0.5621735059873738 0.31961203420723666 -1.141617369019421
Ni 7.122115609500588 2.5799229914743003 10.27327897656796 -0.7620574935036424 -0.7164080710956436 0.7048327075532185
Ni 3.864335614465905 4.645519989773316 2.8567059821056384 -0.3712156173161413 0.09358532685732913 -0.7775291067766802
Ni 1.7566305457435125 3.1592234425080057 0.6684346356001882 -1.3043188339481215 -0.9197327088623449 -0.694914677108558
Ni 3.6198124934103073 9.15731727128244 10.90406979855819 0.9345474052776744 -0.8363045250436758 1.033102417435453
Ni 2.722814617927604 4.0524382074370715 5.006957067547026 0.30429211602071465 0.3611975709585069 -1.6487687531346444
Ni 9.081897328373211 6.069413848916176 8.816552190462541 1.5613437894517561 -1.2561618146269204 0.0023988392494797397
Ni 2.86077701905363 2.740313833739753 6.8072890627894616 -0.431684878345792 -1.088831592676957 1.5225252739226618
Ni 8.704080127342753 7.417207550690654 5.72286228619034 -1.136024962533308 -1.5204298248462138 1.962684251177736
Ni 2.9885455212986707 7.084368366020813 2.3780577032131744 0.1686347996939999 0.09649195898116285 0.47464492684708587
Ni 8.626228184791898 0.4906209851741628 6.96891081368579 0.7700543956661899 0.04497785026227093 -1.2226641970901073
Ni 8.446455889443767 5.587095207346179 11.269400871160386 -1.2689065158870985 -0.9781576857684573 -0.07702870805022863
P 7.9473089285144844 7.6238809301972905 8.0534466109585 -1.142017432671317 1.1879437628897864 -1.1599017691509057
P 7.946172131747134 1.9576199414134021 1.8814908982255227 -1.3359025222916734 -0.8572579873668914 -0.19527219977587015
P 1.8580756802200118 3.218970498837878 2.942664590128574 0.4107488995240733 -0.00914130017963587 -0.03963175545900917
P 1.7256947648615455 9.143452077923294 1.9229085043828285 0.3340973723076053 -0.3660448717484793 0.5978689025064542
P 4.535707285648622 2.768798978967516 9.710022268763945 0.9879163078171179 -0.247220053598071 -0.487987923812895
P 7.538388222488842 7.311075459050411 12.452605968835881 -0.5428876611745682 0.5148315263683005 -0.15403504750295408
P 8.130780472359644 5.661322445450321 4.523414039950556 0.19112809570050954 -1.0604054761257802 1.1925972025013978
P 3.8585770865788396 7.290445393124906 0.3164441526030265 0.3467523420674544 -0.7240450188156111 0.08951269944985228
