# total energy = -340853.2612103711 ev
CRYSTAL
PRIMVEC
9.46291859152730 0.00000000000000 0.00000000000000
0.00000000000000 9.46291859152730 0.00000000000000
0.00000000000000 0.00000000000000 13.84993788516849
PRIMCOORD
 96 1
Ni 7.084129892650541 8.331370912448328 1.0735027862265831 0.4453772882312201 -0.296922820139837 2.00941585090632
Ni 7.652917522499525 6.014574089644049 8.377799774762053 0.5140290850716631 0.98269748262034 0.04936980868237949
Ni 1.1763732247000607 3.7271501652218433 13.058330441396683 1.0483876257292974 -0.7764793253559272 -0.9402814795479741
Ni 0.989499514246075 6.970612724805392 6.116312763089661 0.697160021499309 0.5023012551117737 0.23834177727183467
Ni 8.454417239014726 8.803844959909188 9.320744569881104 -3.613669809458041 -1.908865148474751 -0.6274800405046678
Ni 8.52267326866353 4.994821625614636 12.913931039701694 -2.15054653164278 -1.1859899815975254 -3.3737650585744605
Ni 3.3478858629489396 5.266748045687844 3.7817530963572286 0.34844284239599993 -1.1823117614149896 0.3875732327385583
Ni 0.5279191783243394 7.751842870336571 10.49515045386801 0.15637655115193716 -1.691760683315138 -0.006657614525833695
Ni 6.978845463720471 4.0726318491880455 7.176649791094925 0.09849690522633359 1.4608933600434777 -2.0660621386454547
Ni 4.757330765210357 3.01056121455147 3.346144685982992 0.03306927175014305 1.9106826612994643 0.550836997928632
Ni 2.643494613958493 5.470219714828092 8.25985301486386 -1.0729228918665006 -1.5763106951742336 -1.5126851479037884
Ni 4.86792389130291 8.869536538700538 11.185209166811585 -0.012341295174172295 0.43140257121868286 0.08532462951043371
Ni 8.753464382916226 0.4071818038214831 1.5205565962764371 -0.16849158924791627 0.5755566121624991 -0.8447320869857387
Ni 5.545194416465064 5.8498341450778435 2.6922201265419754 0.8229797829103117 0.7989078295627725 2.129972049925538
Ni 8.531114191781057 2.8941294678720166 5.517150111811356 -2.0838189484082434 0.08098306471228633 2.1063806357588435
Ni 2.28221931936095 3.7075146097634666 9.80349818548386 1.1520089966663902 2.4404962628988938 -0.369339483339351
Ni 2.6593355391812987 6.152666456296623 1.791447773088371 -1.808655888543001 1.2034238608032564 -0.6849033156191431
Ni 1.319849991861461 2.036136129146452 6.107753553493468 0.8588446151277209 0.09282376610095627 -1.1933443650800675
Ni 6.642580662171839 0.29197550506099845 5.680537805353464 -0.10320870887970612 0.38456761314301513 0.09835806565562416
Ni 2.395462062575597 0.26075260615260637 3.930723087587828 -0.8797901070311365 1.9201196383426478 0.1875231519580706
Ni 3.416955703570959 2.8591639847786667 7.7393726366098 0.43618148066456486 -0.5571608832641307 1.0617743314488488
Ni 1.4443536078450083 8.110629417423002 1.6156087716560783 -2.2815054140525612 0.10107212215267755 1.8365325603486111
Ni 4.281345975062722 1.867289278041 1.058304393155885 -0.34467154827902574 -0.642098818859107 0.11296347427362481
Ni 3.26844466387758 3.913777839800206 5.69658975365421 -0.6843325307173375 0.8548943722307212 0.17052224652469988
P 0.3487416593182078 0.09584611422444 3.345812537550901 -1.4674201054184017 0.4187540292167369 0.49627998861835815
P 2.8383834162068133 2.2712423341408456 3.06522660094759 1.5448005403810943 0.6909132692586488 1.3012864748797008
P 0.8681186612992814 4.228154911336682 6.329628706130318 0.7543274718492363 0.22715927829245394 0.8674135877436545
P 1.221918250445201 0.48553571358095493 7.707905594409444 -1.3569158913185468 1.54785449671607 1.856138764615313
P 4.8056578889336965 0.9743399191403788 9.367987243168043 -0.1325023156375008 -0.27829492062600464 -0.07910744495612827
P 2.306274057662248 7.130233230574981 3.827084260148943 -0.3937811613214831 0.28599640303532037 0.5406623713884753
P 4.72216656083285 4.745208766876776 7.422818147574061 -0.16171518975603116 -0.4013098655983604 -0.5366349953966371
P 8.154423803283903 3.3709375319111587 8.845470444897288 -1.4659484059688819 -1.5679918908958932 -0.008049866887670008
Ni 6.9798579959778415 0.609783830770586 13.31611926153986 -0.08302092107792153 0.9857815208623023 -0.4158057452216903
Ni 8.987047058065416 3.792917447359538 2.2269038304780873 -0.46474669389676737 0.6734055993921886 -3.3862289953694265
Ni 0.4615320750384402 0.8528682221779706 9.668323236541077 0.9751230127071917 0.7047630306575474 -0.2420691055247508
Ni 7.748218572630278 0.8980224293976024 7.6236846753081915 1.0382001436733346 -0.01244233952841083 -0.13726271314062166
Ni 4.468636053921609 1.881313322951513 5.684956041904557 0.23177800801138793 -0.22654632729880336 -0.8313206986758392
Ni 5.148158753637544 5.988456435154836 11.636731366879486 -0.05754977339001057 0.2660855230440063 0.7855257518289117
Ni 3.2043333924411934 5.619610805922738 12.774254580526842 -1.028499628556119 -2.0513178904567444 0.49648490554031266
Ni 8.344477054284402 8.089971866788963 12.418435604617153 -1.8894391785396556 0.7846952855078163 -0.3717609482966501
Ni 2.816410519930018 7.712742091949095 13.504755913671866 -0.35138058486808516 0.7006477229375933 0.6786123404041087
Ni 4.948756139363368 0.19374852059399097 7.231648272214965 -1.3891040460153175 0.10704145236223502 1.5507253905059615
Ni 6.256342189116851 7.717662809461555 7.392722282234388 0.3143685264201102 0.32124288494244024 0.8300215202484414
Ni 1.7023411492723437 3.7715407149352145 1.96936388508602 1.647908462016878 0.46383909448083344 -0.3845616996057441
Ni 0.7941290494566305 2.9568686161558895 8.118986120567723 -0.4608838685072514 -0.42758114059006364 0.41639812739005067
Ni 6.048025505810489 3.9690412826324564 1.512371171952825 -0.28991939223881036 -2.193473155802977 -0.9461286823573705
Ni 1.60510966380978 1.170657622050972 1.9928811296282647 -1.0258033126708785 -0.2661629132491609 -3.802510394675954
Ni 2.808575223583254 -0.17224403877270866 9.687546208761873 0.7061064320593193 0.8294934156591133 -1.5703279952282374
Ni 7.265770609288392 3.7130220282101054 3.4226930709321226 -0.7313544079928308 0.8733908883730119 1.398679091298262
Ni 0.040208886119608635 9.414070708964067 5.569004065182568 -0.9385282443022932 6.324913776763301e-05 0.31588522017495274
Ni 5.610403386423461 4.841541275101486 4.910204210236899 -0.041587593633799345 0.10450814441742001 1.439154168594173
Ni 4.787271438690021 6.512134333500165 0.7243835564684769 -1.5482856707162174 1.4950237260682833 -1.427307296557916
Ni 7.2015268569959 6.5096929005805215 10.781941225996167 3.1402345866483405 1.3601639659421993 -0.11971596250610995
Ni 5.12308202016058 0.7813295061732569 3.412319819899124 0.279487398272209 -1.2508131487204974 0.05571143462969115
Ni 9.596913216225152 1.409473291016297 13.299485343764085 -1.1351741844972385 -0.31190181004717255 -0.3839204664773194
Ni 6.619216716905943 1.8824394102284028 10.591656133497485 -0.4834288436873029 0.5580481709650905 -0.30906382637774515
P 3.496349588050853 2.594845751013185 12.01248019500647 1.3122689420331335 1.9971113225073542 -0.2791999489387772
P 0.4288556718802136 8.526032604657612 13.783319624635922 0.20420138394469992 2.0706726408342724 -1.0462898626600046
P 1.3943231588288942 5.478301047050478 10.93541178116701 1.5585605702796643 0.21609864960291814 1.5229687892179835
P 0.36744038586555827 5.155624996170872 0.5327102538561832 1.3975429208112897 0.36322642846307773 3.4257113697347648
P 3.7866624583677373 4.559811271676528 1.2498054706552424 1.8970159624456489 -1.9554774490166513 -0.5892881028159787
P 8.352056851837249 7.851761824594401 6.697456125354067 -0.3901494781061668 0.2967271591892632 0.15942587950122222
P 0.998262176585572 6.716798330345355 8.679922367108844 -0.39118948933490694 0.9568933770730423 -1.0896736289622782
P 6.171317868252507 7.570192690780427 13.304790255759249 -0.3493285874350629 -0.21800229438353425 -3.384235104867849
Ni 5.8187389955664095 7.381899542582462 5.131748160733487 1.2036735149202173 -0.8122983919370655 -1.2544952255577748
Ni 3.2683594976129413 7.692018300887001 7.791420579806023 -0.9112858636465724 1.7286061342782617 0.2639954732841969
Ni 3.5424907776484647 8.567792463085476 2.03116241929155 2.6461225522155782 0.6705575884204322 0.12576679668588017
Ni 6.005101708432562 4.4768687928366875 9.413151859597798 -0.05270401526193504 -0.2119576308513511 -0.2792637122971771
Ni 0.02026105435755667 4.857221330713308 9.441238747383824 0.5896465145966618 0.7528809692106969 0.3016045418862225
Ni 3.3996007114212423 6.510109268985422 5.921249843144746 0.7406908549024083 -1.224683284402665 -0.7278422810745142
Ni 0.6631291400648058 6.663891154168111 12.726167814928148 1.658621477559008 -1.3229354206080441 -0.19300782922172569
Ni 6.012444933028081 2.443230874119638 8.169468897078252 -1.6225738399068315 -2.1220193707373647 0.7755383015988966
Ni 3.881812101805798 8.460369414621143 4.709906403892188 1.912183671325023 -1.0709197453935428 0.25395634388064003
Ni 8.480799855216148 5.752072736190861 6.097116287040088 -1.1244328868203344 -0.5982360560378858 -1.0291848275486017
Ni 4.5035447595052 6.3478864606852055 9.066432425918846 2.161216609762117 0.3999816337052402 0.8472661662615021
Ni 9.097933534625056 2.6885570308706805 11.125432858245313 -2.8942224373154413 1.125199846893346 -0.04706275781575765
Ni 1.6694291194486164 2.1837576545202713 11.018358991465998 1.4175764424233972 -2.2832398802451643 1.5066458836882437
Ni 7.506384232729424 9.333380404678007 3.628309983649437 0.3153630291228956 -0.5682683060312019 -0.9721994113024933
Ni 1.9491245954405376 8.928329650056149 11.692158518198209 -0.6843189038705827 0.9067766629223093 1.3521279830116004
Ni 0.3715340443191938 4.604078803452087 4.353160061989768 0.08771781233295861 1.867621825554248 -0.9195072231151002
Ni 3.117274544143813 7.089202016855694 10.979995374413562 -0.7875137287932179 -0.39247632646713054 -1.0996849904516932
Ni 6.892988406046325 5.752772992144558 0.44132590560698404 1.0352870837915977 0.4287196250698811 -0.29672330253452117
Ni 4.872513406675108 3.6567271272838973 13.318667625436216 -0.30383805920243157 0.6570718952291716 -0.9234762350651773
Ni 2.4547945602739203 1.2074021337834424 13.001351371477876 0.5783873967430748 -0.858196954241393 2.86112051255515
Ni 0.23585756070687286 2.349500668425556 3.828122342285706 1.891597362533239 -2.3501793223801912 -1.56615046681178
Ni 9.352135908735114 7.535813908621255 3.7326414967073833 0.6834465285679584 -0.7160319187031474 1.7731075591247463
Ni 8.689627536110343 6.681927476434937 1.7800212992493398 0.023841325393971845 -1.2728526450190403 -0.8737842671566888
Ni 2.350939032006121 9.383287835756308 6.206060026474138 2.473232319679334 -1.5246564613330515 -0.1402603623163649
P 6.099229356694959 7.811818846478832 9.670483620787415 -0.6037893817559472 0.7624490725151062 -1.400858101227452
P 8.22114684016921 0.648586527231826 11.266328141296329 0.26100373764572465 -0.46824416552706455 0.3939919917807086
P 7.569208547277935 2.425109385588172 0.8440970432120096 0.26726026007839776 -0.48135293499488063 -0.07673046008351947
P 6.452801835801842 2.363874841312917 4.753298615725628 -0.8624629286065986 -1.3694700738344736 1.2299818137974432
P 4.292881272462125 -0.24818017290826946 13.694389011100148 0.038608970621449634 1.428677180322249 0.2736556220817803
P 7.599423645388102 5.959443127667904 3.8228874558859114 0.12952266418388664 -0.5012967251066592 0.33402692408098605
P 6.825309614413406 4.601930720999533 11.306382781847757 0.07240355057339144 -3.004852121249567 2.433979544826298
P 5.738550225949887 8.130359602064312 2.7959696701248906 -0.7219272011416599 0.36441762055770144 0.8712067362374996
