# total energy = -340859.18973892735 ev
CRYSTAL
PRIMVEC
9.40121167129245 0.00000000000000 0.00000000000000

0.00000000000000 9.40121167129245 0.00000000000000

0.00000000000000 0.00000000000000 13.75962356997490

PRIMCOORD
 96 1
Ni 4.14004909905511 4.746427238747859 8.575519987041647 -1.5612028929985178 -0.34173200603472753 2.9319526048763636
Ni 8.003298328854815 4.172210643487496 4.4617914597337895 0.7729096057267979 -1.5253632575920892 0.12797537430142475
Ni 4.910525384923626 1.0765797312700023 2.1154728261278133 -0.9861147358320049 -1.018182048680195 0.7303241669561036
Ni 1.628487251716553 7.603351990578708 9.342261171593885 -0.6236964050925194 0.2293981949253017 2.2293153623125668
Ni 8.434268664975669 3.4642430126704085 2.1358377304100213 -2.1817784930738684 -2.0932446125975175 -0.9943566641258229
Ni 5.437679515574656 3.152856086423847 1.4164429270534526 -1.0258889304061494 2.199829694148624 -0.9118743891601909
Ni 7.054123815400567 6.278956325009468 0.9453359988118211 0.38901227917793 -0.630609844382901 1.3807163361722543
Ni 1.206213036203697 7.316812466242347 1.7360794163632765 1.7531876802723678 0.8041371962825119 2.2686617253206736
Ni 9.406382134412093 2.06042591261862 6.117266769211829 -3.1327123101293664 1.3015708388893392 1.9677588374871657
Ni 5.078139584188463 7.044431166376951 3.9105815091781717 0.16547671368099243 -1.7363058169153645 3.0823693389004396
Ni 8.499541276198718 2.223668548550789 13.26197877807676 0.025647268254459055 0.8637299682444801 1.0116825569987802
Ni 9.125135492132273 0.029553648371133726 11.001231851495767 -3.0388503325718825 -2.4287314090534813 -0.9495950436394163
Ni 7.439695701341943 7.099776098289684 12.505295949674247 2.1153728119551247 -1.06471233103125 -1.3179510800195755
Ni 8.075132985682602 2.361969770458076 8.410267372097596 1.6608297980642366 0.1543554069568503 0.8324524982874374
Ni 7.488854636108662 9.061094439611544 13.621201888636477 -0.25339430072958297 1.525879020886243 0.26867590947900183
Ni 0.7290865122590378 5.281788627010545 0.4268356833171802 0.27881325502331983 -1.156441578516447 -1.6167621183210608
Ni 5.944357807648156 4.573567163483819 13.290791610984208 0.03664310514433044 0.6469908568440857 0.1787952851667695
Ni 0.5136549311039798 8.266109195445681 5.921743193461631 0.05442896837284174 0.23232848119821922 0.4552914620211385
Ni 3.0025777211061944 7.943694648147032 5.9661723787387455 0.684441545491376 0.4579263285408242 -2.0029549257723245
Ni 7.253824349406046 8.139296253952416 5.347099783200615 -0.8521535762607904 1.9752438330103015 0.15201955973482206
Ni 7.420498427524073 6.3346208981121155 4.118943379309215 0.094694757871424 -0.02018213137482976 -1.4239766895227863
Ni 1.535246036375891 5.379457812952684 9.942511601651722 1.0513161122300023 -0.40523182636058597 -1.2199372850772474
Ni 1.6571703479057402 0.6688632917155064 10.04164925682518 1.3373816779403611 0.6024439234716463 -1.5584407568723482
Ni 0.05823580443917416 5.871385604232727 5.336642815684643 0.7510202618528743 -0.31564225092621123 0.22953523472379822
P 1.5849972474651008 0.8849877421557638 5.852779666616202 3.0054337047846498 0.11272487590025747 3.6151960162945804
P 8.981767017243678 8.455214564126607 8.75842713700165 0.5744494951412494 0.17286195040147004 0.7726542951828822
P 1.0567619774952377 3.422360615580003 2.0309615757564337 1.5449036416178619 -1.0004200967110835 -1.3126453515359457
P 8.52611850101905 4.127423272053446 6.720791641224008 -0.41855631138363397 0.6127180517041447 -0.3477044215680786
P 4.157253316041741 8.28828665329894 2.584648745533896 -1.1788214888735438 1.603008516180394 -1.3161114557076752
P 5.58815530633314 7.348315925871965 6.620883086710168 -0.3539511738087388 1.0560400000682328 -1.6134459094636342
P 5.642729338905487 6.929839799792225 13.2441051948336 -3.7253073658313904 -0.10868413017198056 0.5413992495544998
P 7.055957051636848 1.0162991633365153 5.111934119052859 0.08139675521093724 -1.1050717086849033 -0.04686761108581606
Ni 4.373443574962276 4.232763846553558 4.09271775979779 0.6564753992957533 1.0094737222729195 -0.3488776159405733
Ni 2.7822885339855663 3.14396254037502 10.152607055177485 -2.4039894262221115 2.424426611030541 -1.507399731135133
Ni 0.6164101724503633 4.427077486387813 11.776517797151365 -3.917174139470138 -2.886603487317603 0.09138369122032004
Ni 2.409004031433004 5.468835130379955 1.9997683561052624 2.129281965837049 -1.026339901900639 -0.30929136900751897
Ni 1.463533595297189 2.5564150272528847 8.14594479070266 -0.49636714901552587 -0.8765438321796968 0.02397836519246838
Ni 4.156557626393102 1.0193733594865855 6.674393842265472 -1.3306263614943987 -2.455266736339849 0.5897269901256101
Ni 3.901756591973062 1.401372785070081 9.298299226526733 1.2008478725459641 -1.5030080298253405 -1.061774588559165
Ni 3.7635399809689876 5.32492138522621 6.482502894626548 1.3158072942036954 1.153812368423716 -0.8768078844743609
Ni 9.321094343973446 7.039768165488772 11.113440951094475 0.35339555841558495 0.8409880465622742 0.4923716547028875
Ni 4.966810437983168 3.739360065073023 11.393325357832566 -0.2256202159401082 -0.1978160492436464 -0.6009190021866876
Ni 6.473843438743277 2.5256542633292463 3.359494714492787 -0.8488481660366414 0.8613534975925037 2.1337873099065705
Ni 8.99529536054628 5.578274633080162 2.276832399402921 -0.4983646390615288 1.8840419187834845 1.8247157702193413
Ni 1.3842343765637264 0.0542327685960552 4.130762582366916 0.18981529042635698 -1.2076463835250364 -4.47482507499681
Ni 7.545590947318673 0.002022200586789307 7.49808662577034 0.9468221088799694 0.9565647900890301 -1.3295056176263942
Ni 5.731157133974479 8.866498763433247 8.682376976951565 -1.5145792796027078 0.4411786767688402 0.4679641723928005
Ni 6.849045788435332 2.6787153872414575 6.367953833493427 0.7111432231522785 -0.9444081001218381 -0.02227269535527132
Ni 4.643803614362029 3.122048316442868 6.750705355994372 -0.16861808752345153 1.578416685773643 0.2870886076582346
Ni 7.485695829055378 3.1971263912271515 10.9808396837003 -0.004152588715792848 0.20035424228446785 0.06478408635492068
Ni 2.982675356428217 2.607877258829289 2.881691303322424 0.007741591618631828 -0.2884322661703226 0.1327727956900681
Ni 7.956875146625315 0.7638568928738229 3.1644242771353497 0.28547883996895346 -1.244749716135237 1.1747853711309575
Ni 0.5937776959620482 2.3300902623697333 4.036124347002095 0.33175586865862217 0.11050961341649355 -1.4484965290410214
Ni 0.8969451430220461 1.5128993567162066 11.957263608594848 3.176904431265548 3.1468189247340774 0.9190529091865011
Ni 6.1997793220250905 2.0496615254876405 13.073596362557733 -1.276165768552673 -0.5328441608956371 -0.013564111837679867
Ni 6.29407347305018 4.853441228889293 6.000268692491268 -0.2589160018787605 1.8050077502674529 0.3099122904209695
P 7.096739506985485 0.8014617387462414 11.544461113636109 0.250129256825066 -0.1544983602926178 0.005319869551016644
P 3.5563372802119613 2.017913634359851 11.559088458559334 0.7217891329018989 -1.8225989809866547 1.8403694175961982
P 3.557963689795944 4.251556868278299 0.13801354483636327 1.793961005534988 -0.5566209516002607 3.2009815268194095
P 6.325858969023842 4.918544618305919 2.803578517476236 -0.05542012864151745 -0.36938807718909933 0.16950306123156617
P 0.34627952261043204 0.3512800269903169 13.560521769215596 0.7528503730830777 -0.3760050682849847 1.2774878297982064
P 5.975917674546584 1.6764334302038866 8.427494151991752 -0.3942046220121469 -0.9801065819647121 -1.0250517792168348
P 0.115634901057687 2.693296666228488 10.188918294351893 0.656436832748334 -0.21743433769520618 -0.5721990085441758
P 3.6971486255812325 8.495489354055966 9.916285042019151 -0.22528314431566362 1.2963224460062062 1.7448423936314659
Ni 3.845443335279115 7.568943556605445 8.145407981527832 0.8156392833848405 -1.100016662759499 -1.024306673520694
Ni 5.920347113558617 6.102288759100846 8.208564380049411 1.2739006266675803 0.71982789541047 1.0930152917410014
Ni 2.318592580744242 8.364615089208481 11.648016398078429 -0.0418138507119925 -0.6276800723306158 0.8445438822343326
Ni 0.3210053056995795 1.1231439316715244 1.8782435960628079 0.8774987398937985 0.019900595578668953 -0.958958487132187
Ni 4.94621238365655 0.3178464986462964 11.392169948943135 -0.09998146019166006 -0.6238421866417643 0.1538293592500512
Ni 2.8856924589232498 6.572998016097377 13.683133309303765 1.5990675292547751 0.007220171897523049 0.07420975054419476
Ni 8.794222249666458 6.3346302993235835 9.137848750400591 -0.7397531735794873 -1.3049083879030041 -0.32696307525566914
Ni 2.595016401540922 8.781248577840474 0.4227301742690589 -1.0423496470653337 1.3907593222305532 0.5604848054310412
Ni 2.3967636541015316 3.511267872433868 5.72707136747044 -0.5798935489749562 -0.711843848763729 -0.10923640313102477
Ni 6.164205137829782 3.781195456106088 8.598869775964978 0.9314199153922862 -0.7655202552412622 -0.023889662133404016
Ni 4.812245120236059 9.39393493042832 4.545725475721027 0.5305335104845895 0.47471177552927923 -0.3152496434734829
Ni 8.510973149343934 8.018988950795082 1.9160552685875247 0.26447652668567356 0.4439251291657258 0.9781324889574767
Ni 1.952490603753311 6.529498610634456 7.432604367531552 -2.578924457102526 -0.41940837497128414 -0.9900714064869077
Ni 6.35483350276854 8.441319573576747 2.253949850689554 0.2142315144871923 0.0764898048276231 0.8520679585255195
Ni 4.682263970478045 6.201415132820541 1.8191739041664126 0.2934867978750945 -0.5525007587843 -1.5960236002221289
Ni 4.489858776571816 6.3294972378619985 10.784916556462706 0.13510838580178022 0.30232419366106644 0.24918360508234505
Ni 2.0264311319499537 2.119775760616765 0.5357270953887957 0.5950610007440138 0.6321039124299244 -0.6232508329146687
Ni 1.3144209802015812 4.630040240772724 3.691349018226559 -0.11566467525487177 -0.014881545097522757 2.9812164841084976
Ni 8.469118955887932 7.020495681979157 7.066378294549241 -1.7068677141599053 -0.30882754199722295 0.2891822569624697
Ni 0.1874413542510702 7.616626501171671 13.574969550999779 -0.48119506926077776 0.4760106968463609 -1.5107321379424756
Ni 6.918379723012604 7.654654401560156 10.357280830049591 0.1534480646512325 -0.10005422241112447 -0.48927013295942834
Ni 1.9084365268137728 9.23025983876862 7.890525156568019 0.3537262022821263 1.655833887511542 -2.3779662626854723
Ni 4.90306082301795 8.711002725750797 0.49576912628591063 -0.1313463476561867 -0.43402381089161385 -1.5294711091128756
Ni 2.812447620375246 4.648485417673145 12.093938420918157 1.153678413949013 -0.11599506201109701 -1.9291061581119742
P 7.014309684833144 1.4500992641092674 1.3783012720062053 -0.5961694033168443 0.2634295734783979 -0.8986866868253233
P 0.12814415303714702 7.555781860550098 3.869618550569346 -0.5691334822449747 -0.17008927275233932 -0.7891988298051247
P 6.285922622707334 5.111457477631426 10.248428903066142 0.26601841725149666 1.0985524195091467 0.2382116794518736
P 2.849544800828387 5.917912199788378 4.7112535461610925 -0.2647670613428988 0.20382857398631346 -1.0331782649787111
P 1.3995959561026095 6.247584482340403 12.295819095863088 0.5890379344783856 1.7659472939308811 -0.7786570497335364
P 8.184046020540595 4.588496287295169 13.440840586742038 -0.15897567933768106 -0.5981697215763248 -0.012993069825558269
P 4.257094181833013 2.1732874562932163 4.759797641697797 -0.28926658914615994 -0.45260465921759474 -0.4280879050231531
P 2.1006819001250445 4.53412908137512 7.894102317531633 0.4425315912523088 -0.9000887093791724 0.12722538350927767
