# total energy = -340855.5813253418 ev
CRYSTAL
PRIMVEC
9.39901382002408 0.00000000000000 0.00000000000000

0.00000000000000 9.39901382002408 0.00000000000000

0.00000000000000 0.00000000000000 13.75640679248450

PRIMCOORD
 96 1
Ni 5.247037047202325 4.121777716632174 5.60237898244622 -0.6372281210303671 4.646170331643437 -0.05448193309796424
Ni 0.6658026397145291 3.762199645870801 3.8942877463396792 0.4907279484518775 -0.9818076238162189 0.09218921784075092
Ni 2.128293885748065 9.361154567591445 12.388841023299593 1.3623856561838665 -1.0667195912692662 0.4546993369630944
Ni 5.502192074699488 7.046205666885331 10.847408400301902 -0.7229415013387872 -0.7253729935984152 0.42127422453542934
Ni 9.339066885172823 2.10038821379024 10.288718801599755 -0.20997222499020612 -0.40318137158946044 -0.7518808100809568
Ni 0.02429363095634577 5.211405385904881 11.388708883581623 0.511279547350984 0.7674305848900976 -1.5109216282454623
Ni 0.7266330569967939 7.85612808462792 2.2377548004064787 -0.18350168950350332 0.23228194423099996 -1.6693987706801703
Ni 2.800060199715622 5.64238776446807 12.040006025306084 0.5565433042847899 -0.9045488020330551 -1.3056444947380803
Ni 8.211044244546894 8.877932470354764 1.434380675574976 -0.733394578351311 0.09755433880740617 -0.37981235784621686
Ni 4.226510927351623 3.7076759668450876 0.14939450456990333 -0.8447395431849064 -0.31409393260248486 -1.145130524379002
Ni 1.5055246306946681 4.634578510282218 7.26452407951651 1.5885326911617221 -1.0202224761489913 2.9192600970103593
Ni 2.287578972534613 9.179856990496635 8.165087766595468 0.3814339526100399 -2.3293359032722787 -0.03638522349725346
Ni 2.8242062661553837 3.4261567056525046 9.004366124124475 -0.24686472714118132 -2.6662339782534725 -0.4935461346269629
Ni 4.944069236529192 8.628529639300238 0.9686764602497115 -2.0583280032259905 1.8215491995659017 0.6884768919030143
Ni 4.137408276573522 0.22660176348885203 10.504062426364765 -2.7093781177411147 -0.9740356931802838 0.3179233336509041
Ni 1.041504718641496 1.4343928942929098 8.142788606366455 -2.421830311058274 3.4161532937326844 -1.0145603927672076
Ni 3.9818076031946754 5.986241285150144 0.7815618335170788 -0.3642826376417339 1.2929144487659217 -1.0618434941238872
Ni 7.516043568477706 3.706360104913765 10.975425787896095 -0.335260539377771 0.9899562210652822 -0.22814169681038132
Ni 1.8030598113942007 5.772723888765531 5.4123478417329505 0.23066137790844146 0.8814896062207465 -1.8615069709057617
Ni 6.007859016879008 4.522993418506098 9.36409645890933 1.1182465555039645 1.5541742682865105 -0.03764737803912871
Ni 7.916714127551511 5.810207155780623 7.513309395364694 -0.8953748488432709 -0.8374342677727448 0.9882711200533754
Ni 2.445576394431225 6.510499476616486 2.530587654504294 1.4904448484483492 -0.42771972305045686 0.010147629956963168
Ni 2.448781458135374 7.854849818751778 4.3436959515468985 -0.15567052622384803 1.4541742961520892 0.018319367134478126
Ni 6.341430016469178 6.6498022600745275 4.941095388564404 0.43991395112380366 0.3608651273197527 0.028515076720557343
P 3.5812498322864124 7.608332484932366 12.038176977221548 -0.03345596566560045 0.5658049320923739 0.12211094510084776
P 5.80555464395202 5.861375386881464 6.958018480050877 -0.6589115195410716 -0.4123314135198447 0.3313246946584746
P 8.079523844511243 6.668393509361351 2.594169163124401 -0.46636726021932584 1.8848795841934314 -0.09891033861466837
P 1.9538105936547454 4.721829555342673 13.745484335577572 -0.7188153949855556 -0.46941633145829476 0.9035645837429148
P 0.6246556371220848 8.8563147386259 0.04027947361915108 -0.9157372145497067 0.4765226034857729 2.0576631159484817
P 1.555376999864188 3.7683935959618102 10.617167338671564 -0.8595719802120486 -0.4355890984962047 1.2432829017817233
P 5.9236720503157745 -0.038923195928509735 6.150764442324734 -0.5046116484125052 1.0367089038397885 0.5106231447139077
P 9.3649329711371 4.681094229554456 5.9633199102078915 -2.053108920918896 -0.32589323923025804 -1.0002964266490255
Ni 2.575357976914771 9.123453508711892 1.2597563982747293 0.34094936223243216 -1.5937404606149068 -0.20109163467112465
Ni 9.283857078140063 2.032029186458053 5.637018107886897 1.8184512773668682 0.5836956963298657 -0.19765329841353702
Ni 1.6721597462690305 7.057164916970485 13.556952337564628 3.3404651588707504 -1.8665188222980567 3.642052731476108
Ni 5.116804312056612 3.1291760667668864 7.808906499419665 -0.8204480176273934 -0.3079137719337019 -0.6013501761868353
Ni 7.413537924027709 3.6485091750045657 6.101847275027833 0.8087011615041104 -0.2572959497768343 0.6685217889373261
Ni 7.91339627568182 1.1076549777318203 7.1755896710853415 -0.7094005294295589 0.4909452066690061 0.837570279129977
Ni 6.913247217739021 2.230630347949749 9.075761972813877 0.31516119752473465 0.2959442582766516 0.0643184595724118
Ni 0.1931356349698112 7.083688933900421 6.730033181731378 1.6693483770582087 0.1685818349688774 -0.43038287170491685
Ni 2.1467629478555508 2.3312185935855334 12.601225838521886 0.5122557952213243 1.1017056204261477 -0.1964302246397133
Ni 4.9329877992646995 8.914936387666303 4.2960156944654395 -0.8700813643838048 0.7753349273388389 -0.21368541217573522
Ni 9.032395863064396 0.5523668821221426 12.176524820878 0.24046679403463747 -0.5522691023894682 0.06691116000025252
Ni 6.743933383233038 0.9827702814355515 0.1622937111023786 0.06871993107421713 0.6231405325890493 -0.4103992294941384
Ni 6.041084530644892 0.7894071903318974 2.3166341438795865 -0.12375490846217396 0.6489729202711211 0.9704844854939157
Ni 6.41492090533352 7.163542955104088 0.75622585193085 1.638085305278869 -2.760954961377142 2.1775600841171467
Ni 4.907676255114338 5.119746203374495 2.795920874040234 0.8834148482679173 -1.4337985607092145 -1.0839498391046234
Ni 2.086092313807804 0.9587745992165122 10.364985219237807 -1.6167644323139059 1.5751321014851003 -0.653379533979249
Ni 7.986539401035742 8.03833736606086 10.475063649102564 -1.1525669260523892 0.8724524357191425 0.7834524142396507
Ni 8.136632252330626 5.019214351821483 4.0119868965895495 -0.4966137178086931 0.3661052926727695 1.5569058082850606
Ni 0.518853758534126 7.4873389803472925 9.194328652037042 -0.596794952715985 -1.6741020896931105 -1.0998559688119187
Ni 5.142707994076068 4.496206229189896 11.60072243775901 0.03285047087111762 -0.0856681288927815 0.12329545232725218
Ni 7.271171062072446 8.791076183873706 3.7246844222088056 0.3749786839029993 -1.2609070426213895 0.012073129114450175
Ni 6.689325113083169 3.28996499576066 13.289666002962054 1.116094285047652 0.2676168720868682 -0.16781153246175615
Ni 2.8333515065780728 0.3117098334040108 5.784953885515791 -1.9291745494560646 1.7735029947909522 -1.6565993049226566
Ni 1.794469112785426 1.6984205908127028 1.707610006600229 -2.003135160103931 1.8661349565960763 0.5170285340196192
P 7.783069550398154 5.914526809893085 10.053952114827048 -0.5700433956537537 -0.2506126242193878 -0.4592969836361058
P 6.125215103125355 3.4358846849304934 3.7043524755671196 -0.06567523071062237 -0.4078823766095556 0.3262236259864833
P 3.716849404309162 1.24564189925854 0.0778614302790917 -0.2890655288789473 -0.5380221055521509 -0.5036127748343455
P 4.489203963912503 7.340817754294569 2.939771840273753 -0.20484750216913106 -0.1965279265598422 -1.4279264181991538
P 2.1732211716889216 4.443270983495564 2.383063553679627 1.8699630720929148 -2.1540504310309805 0.6419090714458041
P 4.954718319159106 2.3117908320709413 10.1643886471174 0.38398757226982905 1.2793151128149323 -2.624349936425177
P 2.5382882665066666 2.375647731795247 6.81436019360016 0.8446333566243454 0.7716117128509808 -0.08017419565774579
P 0.22733394666349485 -8.083151863836175e-05 9.578806590144547 -0.48566570343762167 2.110779021936855 1.4133876011530302
Ni 0.3652522553895098 5.391180322764875 2.0435420384557426 -0.9339516806752044 0.41667554942115337 -0.7732127387895135
Ni 6.9984492777921306 1.406261646004001 11.468564784588049 0.2999562076495221 0.11820492517822224 -0.11741199696328165
Ni 4.019084091906274 2.2302543873979426 1.9072290812859405 1.1591422652770618 0.3512571719163434 1.906959446811606
Ni 3.8967935234174687 7.768256704656985 6.3848027055283145 1.1946263171162848 -0.7318909972225911 1.0320426087123709
Ni 4.857137757937772 2.057115154277331 12.156866783525428 -0.9318228072576598 -0.21764645370601224 1.9283345700532728
Ni 8.850534345141877 3.400196629550277 8.372355758707679 -0.2428203818684786 0.5387191316191754 -0.9076127856703595
Ni 4.23763935968509 0.9146180324068582 7.485507112558616 1.318202791019065 -0.4563687542457172 0.9457844116440743
Ni 6.19703296753416 7.482272911911703 8.736831655557708 -0.19921730046654723 -0.8396515871390378 -2.0162012492592694
Ni 1.8492277671560184 5.794050251066746 9.735601878176759 0.9782389326283539 -1.2324601001346065 0.054203739735913095
Ni 5.337681136242833 8.940191537733893 12.281789075876876 -0.6429830212362733 0.5733822302189996 0.5407009379358946
Ni 7.722041753826191 8.334030340056541 6.418891048760595 -0.10343625150947992 -0.8169055516917738 -0.2947548659542408
Ni 9.27308580833081 3.027159171034238 12.333581401493717 -0.1564040619557629 -0.6503533455584154 1.8414701068595447
Ni 0.5782799631553941 0.4693030977074307 3.6204521789246384 0.314218116885175 1.237523630700443 0.049723078256740175
Ni 8.795042567695264 5.002239732907427 13.521199428989227 0.936622285528832 -0.3309989358879396 1.7133124413439846
Ni 0.3191839291739207 7.48307182808429 12.08507241665111 -2.538751484428067 0.49682480537823465 -3.0997443398437774
Ni 4.05954684629443 6.0237433501928255 4.624394678835164 -0.9973064907827662 0.33389476937849594 1.5424042722347757
Ni 7.390143778691559 4.578175028497473 1.8563992146817243 1.3119025598326504 -1.1273855416907554 0.7373941864290074
Ni 7.024108585452913 6.038593791989176 12.56602371215488 -0.03350327396376811 0.06520343328052641 -1.7960579972733324
Ni 3.2653489786311405 3.0852920713572924 4.295327686655634 -0.8092117825919419 0.3391058812657902 -0.06029082647025745
Ni 5.121221848540336 2.09388409624399 5.478034729443173 -0.7431945951608685 -3.8915325276426334 -0.11119841195340205
Ni 7.217070338667514 1.5275465200167242 4.6795856878403335 -0.14815339191119647 0.03617336459676351 -0.6139578376485169
Ni 6.000790958505049 0.2461188156344983 9.666957120825199 2.8497518657068923 -1.0994420212029516 -1.6157758431483913
Ni 3.9232893433060196 5.211292597739338 8.551504721248916 1.1211243912723918 2.829056027920437 -1.3244616274445835
Ni 9.317590138650885 7.725895349482206 4.293484540050403 -0.459195425061235 -1.8620371323776188 1.622768986636773
P 3.8121178081368865 7.919656018869396 8.80595764241558 3.4230063120987757 -0.14517734000200802 1.5235208050667117
P 5.92131289785319 4.969314987582987 0.5758832146376288 -1.9149933728596762 1.3258099139423618 -1.767223075319511
P 2.2222276296168775 6.986935485893062 7.635548269277627 -1.2107651316596761 -2.2966103880147997 -0.41186810073018104
P 7.1507884933840575 8.457777755683596 13.088890849579538 2.494300196093227 -0.446268946807554 -1.243719989319142
P 8.414796065598336 2.3772831601956046 0.8187217744576167 -0.3209112126346344 0.3436950432983694 -0.842977309078161
P 3.0369717414363833 0.9730704991989481 3.4739469311953663 -0.22673427493989337 -0.45046395872550804 0.5809785545090188
P 8.504876213811135 2.264598383805451 3.0552293257334777 1.3053285061595583 -0.14044728151619038 0.431272987619354
P 0.3761983468553512 9.240255053144324 5.838067712472232 0.14161713345457547 0.31471511112625156 0.2943146930930286
