# total energy = -340858.3636000887 ev
CRYSTAL
PRIMVEC
9.40678639065291 0.00000000000000 0.00000000000000
0.00000000000000 9.40678639065291 0.00000000000000
0.00000000000000 0.00000000000000 13.76778273525888
PRIMCOORD
 96 1
Ni 4.811176132995558 7.680142495094074 3.7129366486695896 1.0030732180632143 1.0614220903157527 -1.0345676891270699
Ni 5.888638848310294 7.488479223212933 10.20429463742582 0.2996721007502 0.5487726592004355 0.19230720361027523
Ni 5.600142117742309 0.7995975346795143 3.9057136840545694 0.17258118593625763 1.258218182935317 0.9077230859959786
Ni 2.2141881846344384 3.174545816678091 11.308388905576026 -0.7135459190565002 0.856123616652132 -1.0925015853293767
Ni 2.1880373185814532 2.2030599563823947 3.644001836939559 -0.06952340081211898 0.8986748597507813 0.5401766900013084
Ni 4.182614669088917 1.231987994686098 6.670903438461308 0.35904015829587194 -1.5714978471666228 0.7090634578051144
Ni 1.3735883496125674 5.736813316621381 1.8447037269861737 0.0884732024417444 -0.6239062071104804 -0.3306307539152435
Ni 1.6897504388358873 1.5665121308646075 6.1203580978269825 2.0144413291453693 -0.12284859459782067 0.055705263982104056
Ni 8.420136750102753 4.43906247856247 12.9079292039941 -0.09976008820947335 0.38387984304737116 0.738118980410174
Ni 5.416596902481214 6.200172798649416 0.7854121008637225 1.4958295097990304 -1.42892683443921 -0.08418845902346146
Ni 1.2212266311017042 8.398284785411715 5.698375306238033 -4.006644415717829 0.7823784644491816 2.5428644781551752
Ni 3.6386860619731767 6.006167236967127 7.884615928626637 1.254692943390878 -0.9336812006226372 -0.8393381696636769
Ni 3.436092104353342 3.5042818986044533 1.5592152866929165 -2.3303034093918704 -0.10163596507594753 1.3911740411704685
Ni 7.513369579895019 2.238739897007924 2.074405220830788 -1.6989597721667387 2.196058142921334 1.0332926790693882
Ni 8.289786911650877 4.536958904106864 2.944336356370577 -0.504723234289705 0.11227673261924534 -0.7223519473839043
Ni 4.277952448746112 4.358690895988116 13.472573436009798 0.7530028395005419 0.8886750682255921 -0.7319637594420555
Ni 9.156895070607034 7.496888890209828 2.8470118634362627 0.4196492873374967 0.07641524283594582 -0.6204768697139572
Ni 6.620279877040177 4.168607964213775 0.9114000124851057 0.5395187447023353 0.8555168363060686 -0.2028042464868572
Ni 7.785150451119064 5.01754221194174 10.461408447372955 -0.7599368476162138 0.6758448049613005 0.483806795852012
Ni 5.080379544759705 1.3606446115949746 13.580059139559378 -1.6875289046219775 -0.26074739866054447 1.195957120112566
Ni 2.2234068352574328 4.276607278298063 5.664974629945107 -0.8706215531579911 0.0007523047849922528 -0.3058414627857055
Ni 1.8280490117535084 4.7500226149342435 13.164368547359938 0.9560546832218308 0.5224653887644743 0.6345462033228298
Ni 7.548588587989399 7.222991492057035 12.15529975356011 -0.7405733554879375 -0.12887294641502967 1.0105975514647176
Ni 4.072621116298429 1.3781976749240648 9.4762272468303 0.21269168080389822 0.3128937416467967 -1.0595688391570979
P 6.284156587182169 0.05061509531341616 9.44810001496518 0.16890142309182524 0.8175881795810952 -0.31753072619817574
P 6.167719385741935 8.715462807560833 13.402331080977119 -0.04866506930587103 -0.4489079270922979 0.29657674965432795
P 5.84178364550097 5.655811479361577 7.604262653001841 -0.22005377759592426 1.4084307713683872 -0.4807687803566365
P 7.349362259882862 3.1930771857875806 8.822161163092918 -0.7325103759741449 3.621640486368343 0.9832204450033454
P 0.7723338458013248 8.463078729790478 1.0855177464662364 -0.43657897321329975 -0.5733336363692514 0.5350167430669237
P 2.771173411203971 7.017076938855652 13.285428243612559 -0.6990302419388283 -0.4520500722657053 -0.005228852499107124
P 6.87963438349588 7.241043115062674 2.8698534220513197 0.7273447726128054 0.25758699865469187 -0.9005949595916296
P 6.113611550656766 4.878679231843121 12.214776982293856 0.34645023744600334 0.8648471125680589 -0.21305112102584595
Ni 8.79040667441124 2.6353300095236984 11.017144452715206 0.029796257425826103 0.2721561547181184 0.6469582038339374
Ni 0.2994048400194394 6.559088731833462 9.386351047327912 -0.27817150767426285 -1.6952064757718934 0.8397950546954375
Ni 0.45849711416372374 0.205316281589523 13.031757317469523 -0.5688617166408267 -0.35959808768187096 -0.6861860389863086
Ni 0.29438067542990726 0.93007342406848 4.077067704206072 0.6748906685781474 -0.6239985097139704 -2.1929975017181396
Ni 0.07157341530120422 4.023329555824457 9.282211337683027 0.5669688704934881 -0.9582532335350463 -1.30256431315086
Ni 5.695969050289704 5.347908548553553 3.065631222281948 -0.04519099471434152 0.4241777713354695 -1.7787367323860657
Ni 3.525503608610041 0.8675126507692057 2.3486600768648818 1.0566174698382578 -0.3461710156426877 0.8955643391462577
Ni 4.462513596933007 6.5824081551950995 12.00192680551662 0.3070977037903098 -0.012537984566010666 0.10003905290247288
Ni 1.6983106144143822 7.279234667643652 11.233477962477844 -0.3049102092206878 2.1512389297241143 1.3964915967286402
Ni 5.1915677594166425 0.06074150081918538 11.584777220754297 4.278146996012348 0.3481096274262973 0.5261613495588229
Ni 5.399504771683273 5.298983852747231 9.999072423699799 -1.1681292992670205 -1.4929483315964933 -0.36887154256399696
Ni 4.322738158558437 7.974010500667906 0.8006445100002687 -0.7302755731063553 1.471547497323214 0.10995708334713321
Ni 2.6928901351993155 9.490036409192093 0.4396741346773845 -1.794739278461909 0.6417895151488043 -1.31836451340791
Ni 0.9540644919755064 2.532400953282057 13.184964706073252 1.0550418978210216 0.38209678300501937 -0.769068891824469
Ni 4.411942713515436 5.581488460410269 5.468149854393724 0.0018578791443451875 -1.5981190492985768 -0.28796175429180726
Ni 2.5442817244421003 5.602522034688858 10.19932503219712 0.6488939874040696 -2.395300383088546 -1.157261503314581
Ni 8.437275914832442 0.39101094753159216 1.9483890888503548 0.782161206232053 -4.518708406643321 -0.09126336359237186
Ni 6.627128017502974 2.7937591052303077 12.742619984751105 1.103105843207784 -0.3193824346949338 -0.6704298045933164
Ni 4.487667343632893 2.966891008001959 11.667548474526535 0.3767522308636544 -0.6213777842616719 -0.3041573902150633
Ni 9.337204351363729 3.494207230423609 4.7376451654549205 -0.0201780176097717 -3.113671748558147 0.5712381872928033
Ni 1.9906923477449157 7.100976066311254 3.739921896671819 0.917980759168245 -0.2755191576530803 0.1944535605293167
Ni 5.971728992139797 0.11437899658685483 1.804405994941432 0.2934999105012171 -0.9537892842264218 -1.1447289180652092
Ni 3.497998165322657 7.636372718207549 5.739458504942999 -0.4265915229832846 0.79846302871587 1.018442501430433
Ni 3.300766075922319 9.296087288227904 10.989691687431382 -4.84103989666425 -0.9435444665699622 -0.13031353551629815
P 5.252881192845907 8.803642022805683 5.468838431154544 -0.7514087555405445 0.4013011238476121 1.403295249914035
P 7.217761318846438 2.2962341751790913 4.3583428448931665 2.931843332992009 -1.6129381165892802 0.2642189021489127
P 1.6610691472547534 6.459564932250519 6.224731095773349 0.43725157380029217 -1.9006080506722818 -0.7219745094398274
P 3.780436925481246 3.6232495255728354 9.701646771528397 -0.11610870477082584 0.8032452805958619 0.6877914358002155
P 8.453258044841084 2.1106665008527474 0.08210149058411823 -1.0647992343181016 -0.4005853287275101 -0.3747614256858707
P 0.9801965444557915 3.6878459274382482 2.531014392974068 -0.00024528324158667433 0.2529379299184547 0.4829950985839939
P 5.346601005250903 2.823305821155641 1.8352593134907793 -0.19306593615317072 -1.591683063865246 0.48787813770790817
P 0.5201350817220636 4.7264492083411564 11.423349241559311 0.27704999247531 0.4300979934746464 -1.077490970853157
Ni 7.968281767780759 6.149188016632446 1.0917422169940278 -0.05422893654689371 0.5578753928326522 0.002614040584079369
Ni 7.512776952354969 6.921776786343856 8.204207732153165 -0.7122302855688701 -1.1848345278368433 -2.2647883584081967
Ni 0.744108783358166 1.742663612054607 1.596676872653135 1.5202992128056203 0.5652328616389879 0.5558689039255846
Ni 5.199177849573787 8.200375407394178 7.937842347830812 0.3585246521120341 0.20278984830915397 -1.1897461062058476
Ni 9.11015274923391 8.75640114175601 8.030857591938194 0.9375928769722176 0.3535613945694879 -1.453864221110838
Ni 1.388140648096009 5.194803693921039 7.87077948658443 0.23888865091424022 -0.9169152940182079 -0.2445365932286369
Ni 6.288888200716217 2.130430158974086 10.374451173674968 0.40079333097325814 0.006497949019517842 -0.9318153510584919
Ni 7.953945825383368 1.435560258086332 8.241077631251969 0.6886388714021753 -2.7688050535491797 0.7938718098007618
Ni 0.27737790910229193 5.627261882789344 4.559655598212132 1.167858562104137 2.629728170017955 -1.4066055452341903
Ni 7.8811467058207585 8.783887771470695 4.358329675392277 -0.8370511734017132 0.2652509429578529 -0.44201454240657423
Ni 5.726926784167537 3.627341477635083 4.50240871852197 -2.760707621253026 -1.1229516742891177 0.20946983143249084
Ni 3.489212226871762 7.70541853001651 9.385002114165323 2.02688701110789 0.5527614686448545 2.668346139500469
Ni 0.4551953321548756 6.621700301779026 13.279563112323338 -0.41545041876480066 1.393410129589839 0.552302526730565
Ni 1.2995475342517595 1.6494047321807601 9.71194532122437 -0.6293116943967678 -1.7664658854385125 0.04550929728570872
Ni 8.75745470182721 5.153968834375713 6.471436296624212 -1.0322608953707642 -0.2113019995452232 2.0708801288593883
Ni 6.867264459445638 0.15571900055917626 6.442303479298279 0.0722351433163272 -0.1503470571284056 0.9638140154522757
Ni 5.000036182544401 3.7417279996510175 7.86200953967033 0.5235663351381371 -0.9496305248630419 0.729515297901563
Ni 1.8451129221923985 7.5046024550168235 8.172418438361992 -1.2114081645603139 1.5808165534643872 -2.4775474021149204
Ni 6.93314018425465 2.8262689588558896 6.542381338597236 0.18313042220701364 0.29140497564540135 -0.3256808661091359
Ni 7.761501790235178 0.6260489112725582 11.458181630734705 -0.5430817794632453 -1.3208785380790156 1.2886926973750903
Ni 2.5541494433232446 2.9325844581835288 8.081770882378905 -0.08584810611407151 0.027962289540880876 -0.9205575187564855
Ni 6.7150250291573235 5.529920457639599 5.088944423731376 2.0833674626931216 1.3555768607921492 1.5890096307981407
Ni 8.957631115355095 1.0767948334838864 6.066333042461694 -1.982036944672735 0.8036458584683902 1.7081874614125934
Ni 8.216112960957718 8.012964002943235 9.954602781908832 -4.656882832964934 -0.4908498187417224 0.49304734061367345
P 0.14765174058542085 8.982709607764182 10.833289754183198 4.332030119184049 2.708177412564794 2.085885086908653
P 7.976992451940855 7.2269987830421325 5.789160201301831 0.5968029231357851 -0.027567110984991233 1.1935605948559314
P 2.9158215649078385 1.4333026293623332 12.411407978046427 0.18278486594213683 0.18940057148644154 0.9291522024040321
P 0.40201030281064093 3.173924968778991 7.02831522650799 0.12538884452117116 0.015405535921792824 0.1330173076007064
P 3.733421807303973 6.141342756816551 2.8233180499778965 -1.6853591506641685 -1.4303028888511302 -1.4095908531147596
P 2.3567009978368567 0.39197232109656166 8.160316607722725 0.024905762102744203 0.12527828708523586 -0.08172611352589797
P 2.265775000977809 9.146265402031538 4.259999596997147 2.224174698651892 3.405526667256774 -3.269276454541066
P 3.9939709756261244 3.1862854860428844 6.027039955199131 0.29028937398371946 0.9132720408386659 -1.1518812128392744
