# total energy = -340856.4094300669 ev
CRYSTAL
PRIMVEC
9.36005953013172 0.00000000000000 0.00000000000000
0.00000000000000 9.36005953013172 0.00000000000000
0.00000000000000 0.00000000000000 13.69939325166008
PRIMCOORD
 96 1
Ni 5.915819668803375 2.570225531076254 4.322802130854709 -1.0097012649026933 0.09568514680915134 -0.5345739991025503
Ni 1.9581244418185049 2.0796928942579824 11.97899568990117 0.2414553832001519 1.5479619688282114 0.39223130033585996
Ni 8.149934824252188 3.7727685319704904 13.538576287393298 -1.324922626241402 0.050970320400279955 0.14822101192433826
Ni 5.80184222459676 5.070119575269984 4.784965363415295 -1.0555193516780725 0.5880822554333356 0.905468485633847
Ni 5.534181963897706 3.3664951505310436 0.5658577154298127 -0.6909065843904294 1.198539793238078 -1.978017024880064
Ni 5.316045777871987 6.897980069398296 12.367236916765266 1.068431174643734 0.7225213830822331 -0.6067577203556518
Ni 3.168820054514003 7.541633919140606 10.505078356708868 -0.7656480390683782 1.851109686831838 -1.7422316954814963
Ni 2.245057064973124 7.475467658723709 7.663495341441599 -1.7510513506556553 0.3676016747126378 -2.048547526800459
Ni 4.811501132022157 5.839011020765312 10.290463425057013 -0.632971145526226 0.05560344829691714 0.06489978599717855
Ni 8.256190219393314 6.243094148288002 3.1965342546085553 -0.48409038853070174 -0.24983100885835682 -0.12406806882721859
Ni 1.222639048583454 0.1998419497851147 11.048245415963459 0.5049500055885304 -0.33056647633621133 1.3717167037768054
Ni 1.1474122505963826 0.47066497458020284 5.085557121359329 -0.870299651042198 1.2076327566782814 -1.0761537400989725
Ni 2.890245964469058 4.295471693198563 11.641593626066411 0.7286197826704871 0.5263027602326936 -0.41178453987743924
Ni 7.842138628531539 8.13990084049679 12.846537482215554 -0.9609338656910031 2.0177477678107834 -0.08243342400556772
Ni 8.706652441606304 4.6055611034901744 9.284571529673435 -0.5677294028085964 2.6432835401048864 -1.2162698635279892
Ni 3.397065104770906 9.02718767827014 12.449666280517059 -0.1743609035444997 -2.7814530813304934 1.6317791605551835
Ni 2.0844290843514823 0.2563289727006524 8.915825434680372 1.399406713492906 -1.8530205307013052 0.1823737465466472
Ni 7.331238502299324 6.536064009802913 9.261501791089545 -1.5890589959788375 0.6386910787291388 0.19438439785427813
Ni 1.1885029116842567 2.598427390269367 0.9615589096941445 -0.12409455118977981 0.3348116247658105 0.1668165155383385
Ni 1.6020396992749992 2.491170468764595 9.42522327136712 1.0844995409605065 0.3175340686322854 -0.7437964904109254
Ni 4.17267707296808 4.751418910262918 7.160481065315656 0.7606819533123544 1.4616886022512632 1.307345022368955
Ni 8.927315843689819 6.340307725977901 5.800981099125214 0.010280813100717778 -1.403207575296235 1.4163011752553996
Ni 1.468462290531252 0.38973602836198507 13.636869079940471 -2.1368170978718295 -0.8355486207142577 -0.010954185018658554
Ni 2.846075843814462 8.798605665872197 3.449780959724644 -0.9047665744708159 0.43419581769310384 0.02710122709216623
P 6.221004407930968 8.049754107709246 0.7415600718332356 -0.6059339389027759 -1.213037986854253 0.8817279474837976
P 1.2543883703169547 0.5925713251666674 2.26212606942867 0.3761778464174231 0.016070937419933613 -0.66603836039384
P 0.024616020408883776 0.6299937789469473 9.226198454774025 2.1317445684449288 -0.13056678917768483 -0.5318895102918517
P 1.3735232072933694 7.798838993407961 5.178014852830835 0.6409004276756317 -2.611361237474993 -0.009207634641197046
P 9.117764973793458 4.198613797768648 7.260924799529798 -0.7303421646782325 0.6295420652400191 -1.7294219453113375
P 6.145833770300737 4.568560788392141 12.323590959441177 -0.31060777382609733 3.009670882794449 2.560953474446402
P 6.823174474087525 2.4389974972603103 1.8158955301035684 1.4410362161082344 -2.1063035026640047 1.3657031505928738
P 3.6707438837113044 0.625656327387011 5.179850360493553 -0.3041324505143988 0.47347096114364257 0.4144757135563571
Ni 8.602793221690348 8.198522892978191 4.555007422274774 0.5956731804067161 -1.0135242381932095 -0.16455034521198114
Ni 8.30577045442349 6.295912963895946 11.554506696720697 -0.4147096839440342 -3.9008705172141083 1.5199451719003114
Ni 1.4389032227145082 2.9923829334419243 5.218646871004517 -3.97182756514896 0.4133621687772043 -1.4352579188635606
Ni 4.715186120041696 6.123715949765281 0.7156795073895063 -2.8472216430858706 -0.9539664332342345 -2.0801075609949278
Ni 3.830417138266667 8.961723422313742 7.3744651289590095 -0.46534293271986954 1.275477741346713 -2.440350995570281
Ni 0.7515360232198998 4.585811378001469 3.206877120326574 -0.5601577611089256 -1.0735386710736285 0.14948599467969093
Ni 8.483854945962872 0.5810378598836428 1.0420357650398009 1.8347361305698209 1.4959639784943655 0.903548900013631
Ni 6.3304983836498625 4.204061352382121 10.31276657477004 1.8495315437114408 -0.19757796509091136 -1.7634147573170145
Ni 3.846048437587111 6.791743394376116 4.975962056998123 -0.8567085426213246 0.22038236457993657 0.1492319696873559
Ni 8.849496309228638 7.631883612582356 1.1162909888535415 0.9835207498525836 -1.080152062625088 0.8441332770594754
Ni 2.324402289128456 5.54580715776357 8.832053838400105 -0.6709861913174187 -1.3627787778572273 1.7554003716529705
Ni 5.0899067409965815 8.241719567447563 3.3111023185679374 -1.194081500356408 3.1521081981574746 -0.42851136571381687
Ni 5.3316209168355915 1.3477643236227934 7.756897502913963 0.5130145277642196 -0.29570925944771004 -2.1966919198505908
Ni 4.207655615219876 1.7300946729294877 12.887320197346757 0.38301955192960485 1.370134704001666 -0.24556940536852545
Ni 2.9688891841638916 6.487560181612169 12.387114875068756 -0.758911491675493 -1.3124139522514302 0.2148382948332558
Ni 6.064803735440206 1.76542889744127 9.850712854905291 0.39044695474192753 -1.172324825405607 1.462740183444229
Ni 1.997221410238562 1.3594363177860231 6.993156898146801 3.010620648302228 0.36205040587710546 -0.02645588019868347
Ni 9.22305628280883 7.888864045422351 10.387222103856509 -0.2954328658578718 1.2430520167178398 -0.1462335491806643
Ni 2.638123402495716 2.4490782813130756 3.1508197241408613 0.14044085375828716 -0.3249882109174855 -0.35299755164621793
Ni 0.9191129119945337 4.352923738245799 12.699583612478486 -0.8213808138543078 0.32318072539510145 0.41951816107627105
Ni 8.258951436937943 2.359755233759185 8.909688043683715 -2.274848570857676 0.020356195058848815 -0.9565277662035077
Ni 2.1465892393137995 5.078983551591216 1.2477202639481617 -0.5293436039415463 -0.5270887464690986 -1.7031614689529118
Ni 1.1526819640798616 6.8096304680296305 2.8118554663800053 1.0667486447349885 1.2773806147963807 0.030904402888340322
Ni 5.46745409991241 8.424287527474664 8.688840248428576 0.905942339946472 -0.7062768961989127 0.9973676830380049
P 5.620481712241714 3.2946005337164745 8.508337117521288 -0.9436074585974137 2.085032251990054 -1.7119821525683354
P 4.020098743493493 6.934933584198963 8.60675346285351 0.574394473533598 -1.2231408796162098 -0.878939328995067
P 3.3139571367073 3.20554892788731 0.4892671567774786 -1.0836875865821722 0.5050083696302916 0.45118618160351326
P 6.7447558958200515 1.7955870090643065 5.973154713107196 1.512386385716447 -0.7464490975424242 1.7045022992515226
P 8.812421113654818 1.911913828198725 12.827481337133824 1.2386016942559699 -0.7576465089201403 0.27660673429030425
P 3.4959541331065305 0.6640119790967809 10.74643404227005 0.46590369031934603 1.9984320982013069 -2.112614018263065
P 2.227469513222756 3.6783910523010066 7.682413893649073 0.30018400738961204 -0.426816237399581 -0.6875510376546353
P 2.617306630227053 7.267374816512863 0.5098134233273629 0.3279120694324998 0.878683504230519 2.4975269305606407
Ni 3.4902538568872785 0.3354064991550475 1.0044775903971577 0.28901359259508935 -0.7358967759478746 1.699092698200177
Ni 5.012602009806432 1.4332403867331498 2.4508623086486905 -0.1598359704554473 -0.16066823654875556 -0.1346684700508842
Ni 3.977182870808322 2.927826603254438 10.137482613025075 -0.1807925181024564 -0.7359736519323969 -0.2613094418116016
Ni 8.179521972247352 0.9264343505145645 11.036696974585276 -0.8387198193533878 -0.30165005041217724 1.2852016535026962
Ni 7.974283948175868 3.914002469363413 5.120065788625565 1.0324845813457961 -0.6234806895372875 0.9426836612315636
Ni 7.8912602206475215 0.6474315697457421 3.682739735932311 -0.661057619349797 2.746379120445496 -0.8926638776700111
Ni 5.82217227377281 6.428994289487607 2.448547565940938 2.9598891833856316 -1.3685151661203723 1.3110936907781097
Ni 3.4116855176682317 3.145316945176497 5.823680179353962 3.0899993446418716 -2.7881034967674756 0.8602677207274926
Ni 6.956396200571285 4.217839359926847 3.045758672588531 1.9010955318316614 -0.21214197894801526 -2.1581179162321344
Ni 1.9202630012489263 5.4828233175675996 5.87177871696951 0.16149124667068315 -0.20698177490331449 0.09291838269729158
Ni 6.463804350668883 0.6827994904716285 0.14243951305308625 -1.3707651384968134 1.3647060767869272 0.7626992408526994
Ni 0.1353520760198885 6.949806718702068 8.465471789157272 0.014548587238136235 -1.1895370755188353 -2.04893730603971
Ni 5.6237764531763235 6.773144956202629 6.461990371142954 -0.2568781455131254 0.7710764091728011 0.5977223496262609
Ni 7.116209856018748 6.004534312491501 0.39366725334077934 -1.7895687900045631 -0.01221428267800477 -1.5560658288822684
Ni 3.5763196037444542 6.006434404564584 2.76409950694118 -1.5012308833202597 2.5140169577958638 0.862782002508914
Ni 4.696409840738217 4.115430949229256 2.652271132389639 0.21496864976353303 -1.831749280027355 -1.064731871415276
Ni 9.27386268563001 3.1350676800532113 10.673608099537885 0.4121874317428127 -0.6113083158408117 5.1228497724220485
Ni 5.7830940254717 9.110716849010046 5.6538353481689425 -0.7758422059925606 0.5211001329858316 -0.5517065450177788
Ni 6.552481554119115 2.6217245782984597 12.024450946721453 0.6811073389118205 -2.6415336472933153 0.6960906996945302
Ni 7.496162750219219 9.269201376012298 9.004597174731284 -0.24474176726090752 -1.0450968707931678 -0.5286532627427413
Ni 8.065993810895456 0.044153272547544226 6.485745266080292 0.36292766627573625 1.021627069806002 0.10484573026249686
Ni 6.747067830509962 4.963658258820444 7.398220023896348 0.8892746494828039 -0.925694839983051 0.6057033109492085
Ni 9.334777952682376 2.032724115820864 6.954524188676621 -1.6116078278136312 0.6469227226103117 -1.159592465440603
Ni 5.754489683721235 9.603046617247195 11.763052565810053 -0.24420414958988262 -1.1659297205125405 -1.8375622871647064
P 3.415139379613887 4.415093253267589 4.255250581635759 -1.022183199419788 1.7250125033897326 0.051439289616898504
P 6.844627730400373 7.788861170009403 11.01124322885353 -1.1106998535049581 1.0478399807559438 -2.137163939688287
P 0.5779537202871838 7.896595454547313 12.45904974013906 1.2761994500040859 0.1475890347672942 0.93350302317356
P 0.8428078351561359 5.433973167176344 10.71225391309133 0.9117846576598619 -0.7871123795897412 -0.1538283308087867
P 9.258924030710594 2.554210469317404 3.524429306036264 0.38635221584726365 0.020375221222242328 0.9298014059522567
P 8.869994839475208 5.315156572222023 1.0691434332804823 3.6084286156637595 0.26098985368865374 2.4287514636581395
P 6.551573628350203 7.307978754508124 4.390162734860402 1.110861833004119 -0.9773549873615038 0.9601314243943659
P 7.440423596055599 7.550114133023434 7.291392729121401 0.6663877733134588 -0.6858543666785026 0.6720521706880878
