# total energy = -381169.6823972519 ev
CRYSTAL
PRIMVEC
9.24800165372079 0.00000000000000 0.00000000000000

0.00000000000000 9.24800165372079 0.00000000000000

0.00000000000000 0.00000000000000 13.53538522255179

PRIMCOORD
 96 1
Ni 3.2287639896509988 2.990720432666323 5.79908692340043 0.1515719306744422 -0.87493843536579 -1.1049565232632776
Ni 2.5183140232688412 3.3004452487880696 9.521195722502096 0.2973732774136943 -0.3887294578301886 -0.14316776577114695
Ni 5.477711475068532 6.389296224700873 5.3403453609260465 0.07497953883068377 0.24181585186336418 0.19050691717674287
Ni 5.7425372442143425 5.802251589492123 12.282888474784535 -0.2516806604725859 1.904092923897088 -0.4556552731184604
Ni 2.7430034661786964 8.186580567943793 2.769908676758942 -0.5959760563591155 -0.3533474787864689 -0.03326159026660723
Ni 6.830314917221665 0.8180597111014146 2.6312515416158715 0.32216102588133555 -0.06095314264460469 -0.07559480381717949
Ni 1.6338444138493629 2.5001879404526033 1.5817180537505235 0.10850081051658088 1.1905367204279431 -1.6290067400163688
Ni 4.841291760188407 6.929527476636257 7.602054163526298 -1.6350516606588679 0.4425364763483153 -0.11784239963248093
Ni 0.7934498544777969 6.885359021773832 1.5418832123614097 1.3416288832524894 0.3088519674772552 1.190068522542273
Ni 4.467626262132238 9.066167232604611 12.253570460629414 -1.321515657442382 1.5851794584187733 1.807465981999958
Ni 1.0198511024536143 0.20963739577122825 1.4957005427860377 -0.7791918391910839 -0.4309855382859223 -0.12052945954634083
Ni 1.3119862198424608 6.479288526682919 4.003577271633243 -2.5493269459510675 0.1058893410356628 -1.1736494577543013
Ni 3.8102043359890136 7.096629614598809 10.960169949274603 -2.799681174302746 -1.1149380599560217 0.9772747689428717
Ni 2.2435466525784102 1.198235802169131 3.479338588582614 0.40908051068271484 0.11687875016763095 0.8246409726628184
Ni 0.9336874730664262 5.352743231652296 6.021716836390298 -0.08593629495250361 -0.8274966969440587 0.6499712796286483
Ni 9.259006558565934 7.241360837085607 7.811703581699395 -0.44072102040613137 0.13841019648150354 -2.8614840665421557
Ni 0.1421658268882137 8.581146549247258 3.418348019106548 0.11503295520814383 -0.5238234454542656 -1.2725968202544922
Ni 7.32503675408628 7.886603145336493 1.7692776956915452 -0.7034985621228271 -0.6207221529555439 2.013938935587654
Ni 7.687456682395234 1.0250854712668749 6.934908888672363 0.7524999317221944 0.5683099579024148 0.5678659283864608
Ni 3.507914913022499 5.257507312855552 9.02975322694699 -1.410857121421693 1.8352413523410134 0.31402142749333667
Ni 2.04237487732248 4.9811862779237295 11.127439476063161 -1.80090761205615 1.1962417412325204 -0.1644395306657297
Ni 3.9638413838595037 2.4344531462394303 13.35702904487307 -1.7886390791014422 -0.02637334778720619 -1.6667849872064069
Ni 9.162605391588146 8.641193822576763 9.646695726000951 0.23032482050462913 1.1741137989852297 0.297674610704197
Ni 5.8667379035113205 2.6167220065584265 10.929444389300793 -0.3755088453748565 -0.45964074012876965 -0.7342034474058518
P 5.60452931877214 8.115278476865633 10.792303926393366 2.2335718235960758 -0.32442951020053806 -0.9284880864574719
Ni 8.8573473601604 2.694183266593533 5.42065130620313 1.6997359882111307 1.8663121056038892 1.6432267402704928
P 0.21396176124310215 1.179675063285361 8.130489589628974 0.8431315752678382 0.4245930044960171 0.23785223922992588
Ni 4.067585463978155 4.268544535201038 11.241286072951436 1.883145889331776 -0.5302702295208739 0.6322136985349112
P 1.6110665863103864 4.918568060194778 2.4986046826066137 0.7543611533006492 -0.013443784209731685 -0.3953227947769901
P 2.654962492499826 8.128271918884415 4.944083296159063 0.21717902715129048 -0.24857322519185576 -0.6250601182092654
P 8.617158266842376 5.340258429712541 11.892446177321764 -1.012823355471443 -0.6115556559649274 -0.5871057504526792
Ni 7.134786868527278 8.095386025774955 4.135858834585745 0.17479979085413122 -1.3401078186222728 -0.1499048273846644
Ni 6.824322212290583 2.835021080475414 4.426991468618836 -0.15911683290123566 -1.0465032642223913 -0.9841447565898277
Ni 1.4767763574457993 3.2377530470476223 7.275188176741339 -0.9867359143557717 -0.21615367121056966 0.7320288083520361
Ni 1.4752689332115916 1.0431098260673073 5.933222710641022 -1.634299612984192 1.953412853178139 -0.46304230961115095
Ni 2.3311067301825634 7.089443917482373 6.895263631312705 1.3243533840014934 -0.5912470263145625 -0.42462077241015905
Ni 0.035711157548419734 4.501853115450043 1.0899167357396669 0.6131556534621957 -0.7944261396423351 0.15429678580477296
Ni 7.942581298033782 6.243159305995673 5.533414037323004 0.42910323366154485 -1.5056426392347102 -0.18601699972618932
Ni 2.249918525568404 4.825320461706958 0.15792534613676015 -2.329005516516053 -2.798136969744078 1.874317235296553
Ni 4.650237298504398 4.118560447898106 4.301842889174582 1.044941061941594 0.08441471610165463 0.45424168060038544
Ni 6.219660134344622 4.966694659672176 7.636920978543534 -1.0632750843640912 0.2718879886583963 0.3602606609665344
Ni 8.29354295256247 6.562335579585887 0.30343802474497206 -1.777923235345835 -1.4610005750453032 -2.339687164599616
Ni 8.241208512431301 0.7647005924110426 4.716039603128061 -0.4947864347919673 -0.8065632892255012 -0.03247329003735698
Ni 4.842512496378073 1.5725764043301913 3.792533254843469 -0.8349107300199428 -0.029521920718516895 -0.09727640255567117
Ni 8.335232943039818 4.204844301303973 7.844838246047507 1.6936345032990832 0.1532745151878457 -1.5723686798073502
Ni 2.5833829613785606 7.924954607295134 0.316486954772376 0.7923332616690484 0.1089363553921027 -1.0127935306747717
Ni 1.6097533701063527 3.650657815200373 4.209314785198549 0.13879560484538034 -0.3117650273589921 0.09076945467508885
Ni 5.156158465109047 7.666352743116328 0.7158184312162523 -3.3713777892892067 -1.2403104494169608 1.8273274968105755
Ni 6.302771923257647 0.7534781426674176 8.750734549996038 -2.1308048302394784 -0.6216757751180648 -0.6625002653335945
Ni 8.83628966088868 6.235890376866304 9.70010663349937 0.3317895501100351 -2.118132376978133 1.1062819269429205
Ni 5.013600522959911 8.24565680112243 3.13303515237767 0.5059054275232642 0.10100038837447767 0.2267576719786611
Ni 5.925453464633919 0.15537197294004418 5.619215145053867 -0.271355513193694 -0.3666693927063556 -0.009454460544680491
Ni 4.217662031295456 5.984640673829799 2.1519905135533914 -1.4629782675969643 -0.2626402448078831 0.2932543701493143
Ni 6.28940856118139 5.8777707692254895 3.1284065276585236 0.6375837045975729 0.015189049035612549 0.1664737874869391
Ni 0.6237212841071774 8.198196057748484 5.628080279231238 -1.1622273319602887 -0.8593662919591458 0.7478488061034281
Ni 5.807106790246472 2.8925066574069116 2.060586041751937 -0.44954890311040646 1.1122291456652909 0.11231221384287109
P 3.5712267308592156 6.039721770387713 13.083438019965406 3.5372694790204307 3.265500532438402 -1.4777181449103003
Ni 9.061321279851699 8.87279152255995 12.075566778573096 0.5980995304600216 0.27985789423775026 0.9637574511827274
P 7.308279375482698 4.770313349160538 1.6095600868763225 -1.3960959039521181 -0.36350256494259975 0.10251039726110088
Ni 6.029928136866082 1.6404104948695306 13.38776755204889 0.611508861887392 -1.5398406252726577 -0.19877069984743187
P 3.74720695020115 2.05734739164875 10.912971849141464 -0.3232529733939336 0.4065508022823256 0.8550244700506823
P 7.698212108066297 8.112781516477682 6.386684589095105 -0.6243486939645376 0.9488103429545919 0.8452833315035185
P 1.0901914013823415 5.225444491873972 8.334656792550302 0.41225967974164485 -0.4617937819160305 -0.2972498644619526
Ni 0.3234580982554781 3.545628262881998 9.943080300050035 0.37038360833314926 1.202268921263207 0.48076698058442363
Ni 8.633582717394232 4.545022786157287 3.9135942176526335 -0.25171177082083745 0.2820029656052111 -1.0315582128767848
Ni 1.8554450242793081 1.146456242124174 9.851120948162368 -0.840737878224681 -0.3576427637277131 1.442075713116342
Ni 4.789789640186557 4.429663216233944 0.3606554096348006 0.24976081774205375 0.4663659746677452 0.9629506390107156
Ni 5.4744006905541385 2.276867201755403 6.694209305675023 0.6437558948465558 0.8276134250275812 -0.666614030391652
Ni 3.5696915626206978 3.435096149708694 2.4204516720640297 -0.9553782259800965 0.05275775131800591 -0.6538803848750675
Ni 1.5012835612534678 1.1399086571068797 13.050479992444739 1.0551210877983892 0.19433940354895565 -1.269909503230316
Ni 4.083149850396384 0.13595394432307747 9.934958705188187 -0.40634897068416465 0.023414265158882255 -1.6456862575545788
Ni 6.608816034807525 8.36514097968661 13.012675087371015 1.61619236186052 1.1255348616352616 -1.9272909592801064
Ni 0.9356018093638554 6.685102798660151 12.364804497111777 1.0632992527338074 0.5974320720793517 0.19211668486602398
Ni 7.78818591404547 2.4974320360244198 1.0999785613029665 1.8748168006407904 -0.2395175427474907 -0.38314605020514014
Ni 3.6269274435134 0.601240317414324 5.653879428839635 1.1452038008190986 -0.400713112554626 -0.5537361738532979
Ni 3.480596316778026 1.6208139798248327 7.741292997959747 -0.20001177134338458 1.1313972339533094 1.3303461112498185
Ni 2.0034870312805 9.186317267272246 7.896962756546058 -0.8755292748722535 -1.8299613348889967 0.3334841642036386
Ni 4.64773109011501 3.349413416396223 8.779416301652303 2.407727553108305 -0.37219160807616547 0.31227667688808797
Ni 9.214227735608677 1.978055027329146 3.000591749400023 -0.7847284527385969 0.1348481901618581 0.7133044924696554
Ni 7.518699152175484 7.265683080864539 11.200639257036165 -0.00915569835733907 -0.716988626189462 -0.3192993880628243
Ni 0.5933415993871053 3.4985744315712743 12.445001315971904 -0.6898210646357346 -0.41045759353589956 -0.03759415620369009
Ni 5.467640401503796 6.016648006802757 9.782293622268712 1.1505442391954057 0.003784663853412837 0.4822469075640598
Ni 3.501811232074174 0.837049557251855 1.3200671234979857 0.3340824599092698 -0.8249831864935857 0.9044122764551908
Ni 3.3118942745668978 5.997624867847144 4.5812814253907685 1.1229287914709822 0.1265725804166272 0.6068412812083936
Ni 6.772274460203956 7.542780947917057 8.532747133727472 1.7695252410901265 0.6509231020189564 0.1559086103765831
Ni 7.869512838681183 2.3209616726063325 9.210572000640688 -0.24975104755004082 -1.5577403883712142 -0.6103243546609876
Ni 7.172361498365223 4.429829680259807 9.791876401357582 -0.7084816171597154 0.468051075679652 1.86090738964855
Ni 7.1746365067186915 0.5360631776877934 10.87072790337805 0.19154898528801204 -0.4275037503849089 0.7868665821275223
P 6.4447010013090775 4.4463466108260326 5.635363080362762 0.36512107438262925 0.4465574245822503 -0.3055735538362996
Ni 3.7212848021736424 4.934058462601511 6.861790490112005 0.2671106218744109 -0.0647858861271336 -1.36354368104771
P 8.092075241260561 2.472148000096056 11.449419743689031 0.1055062466646312 -0.132828588628668 -0.04675705364988077
Ni 6.7779989730933705 3.8246127222276356 12.691007402193714 1.7953738267221142 0.3480065261895297 0.6313906884129836
P 1.9343767165428747 8.440151519340949 11.300435365341423 -0.3779367380900588 0.8413654845063511 -0.2260462477339333
P 4.647916050143747 9.06790585687474 7.591767611528084 0.27660339185619454 -0.0784088762272069 -0.3651038479914486
P 8.10596573941872 0.07821589695235394 0.5300390295518255 1.6659002706086083 2.4709990594734412 0.4112813749887756
Ni 1.8942866303141035 7.079076907871657 9.243449570548854 0.6226345394869083 0.36464027809146876 1.5365904937664763
