# total energy = -340855.26828000345 ev
CRYSTAL
PRIMVEC
9.45432397672475 0.00000000000000 0.00000000000000

0.00000000000000 9.45432397672475 0.00000000000000

0.00000000000000 0.00000000000000 13.83735879764541

PRIMCOORD
 96 1
Ni 4.894579131160642 6.050890218948744 7.969861763779336 2.569464340130891 -1.0937321153023678 1.2064168819933094
Ni 6.512677216797745 9.004704643196622 10.618775186841182 -1.079113851168561 0.3491663508255858 -0.6960050819592594
Ni 4.610013435307374 3.893441861972485 8.227555434737301 -2.5286496201073745 -0.1790865911549432 2.200674815757739
Ni 4.035247266540849 6.539451862156609 13.20878249924874 -0.27211707395006685 -1.125787858186332 0.5189707453476546
Ni 3.884923516115021 1.7339513710281769 10.227413447918092 -0.9279216724310406 -1.2315219045910535 1.4611715534055287
Ni 5.301455415646549 7.458345967511164 2.0323761603247927 0.30755741703554773 -0.6510447151984853 1.0658788405355257
Ni 9.47597432794355 3.7446686206705464 9.081625022659798 1.0033575820728526 -0.6438394556992977 -1.0909679222936695
Ni 4.877750434572091 8.691180353157545 12.44300967876976 -1.3157476446103533 -0.6998799915336333 -0.9972391278799406
Ni 4.811976703017846 6.068645439282059 10.327277580685257 0.3235193396814428 0.8212201199067276 0.10154983312004445
Ni 4.502924308195842 4.342162984155543 5.629439148698281 0.02828033500193194 -0.372084650184656 0.8722076666981882
Ni 5.2944403072933435 4.517550147309601 1.9328438743274354 -0.9050637939962606 0.27192475543360267 -0.6115556559649274
Ni 5.090368725347338 8.214767516194787 7.743634919144784 -1.583165513312538 -0.18524206923337774 1.1365096154792105
Ni 9.041264513819053 7.8968469655300515 13.319122022926082 -0.8870696714116852 0.5509622106525865 0.4653213354533147
Ni 9.09484216750856 -0.009955403094238752 11.583155935469243 -0.6210168013778272 -0.19767129613566603 -0.35704369669113345
Ni 2.37809336876481 7.383117912030768 8.426771275914835 -0.7164746626675209 -0.06662910998345944 2.096487287904531
Ni 1.7380072759924963 4.494169604240225 12.79389745696499 -0.6052255999818416 0.28259329089104235 0.151953482383577
Ni 7.451160681327289 8.619355854290564 1.2061580652563488 -1.392894366295685 0.6634741992110896 -0.03083626865456625
Ni 5.29884602224293 4.204716022917135 12.822001380267873 1.4125666479136318 1.0993597459017905 1.3160952577577592
Ni 5.595418709482413 9.100032591344018 4.956320593560383 -0.8128619777500194 -1.0787788364266453 -1.5728857286530846
Ni 2.2398900616123103 3.5170463178244953 2.263874735980567 0.44772162009368055 0.03640836342570504 -2.8303937728952544
Ni 2.1328009345007795 1.8071089295687461 3.781569792386713 -0.6265613853451403 0.6187591156919022 1.2433155547918717
Ni 8.912260263846699 5.9145210506379176 9.393200776537693 2.3032579752383042 -1.347644236208634 -0.8291157206047205
Ni 3.891645540426516 6.031206316534495 3.832422709920703 -0.5100508171502054 -0.23217755744265176 0.11480232725457647
Ni 3.6519406116028414 4.150845285185917 11.015118409040962 -1.0708852926111816 0.22552277113029545 0.1612181955149546
P 2.83437795008879 7.270204921380727 2.4602136263873717 0.7216286960646345 0.12053691574550855 -0.2173075823093548
P 3.4922854434619013 8.27390431235287 5.348927466944546 0.0014920111644942046 -1.2015814082778788 -0.14619138308881918
P 7.224039457649323 8.095851029851639 6.035689556940276 0.0814278655591888 -0.45372154643085727 0.3236005865413395
P 0.7379459088671347 9.124557107608458 8.935640806916075 0.28295864465026105 -1.6809949601582017 -0.694806690775784
P 6.088490065203053 5.5612602371372235 3.575587491575232 0.6009573116237908 0.628804415743046 0.4976401021906784
P 3.512706783142391 4.507386749088987 0.13072682779169809 0.30396635725017973 -0.7445724493450016 1.2715802060645198
P 7.426768525597814 5.349322657684659 12.36856444131045 -0.3289232843058335 -2.0729439533669525 1.797056613741176
P 5.4575935752869595 3.0059077490809774 11.155651261608865 1.1057731056273021 0.05810616011411283 -2.23425959369172
Ni 3.375770355395996 6.508611857509499 6.610286493308522 -0.9367778372700898 -0.44278484491369546 -1.9351029991253577
Ni 7.041438645339611 1.6221539906014215 5.091109944343148 0.9803114988866665 -0.40658294107184173 -0.465565847363953
Ni 9.104466669265383 4.146732654278041 3.3555872646784453 -0.6545121049217953 -0.7170912132055973 -0.01055206448423344
Ni 5.862654629579044 1.9709523632089716 9.235952679268351 0.7004476911116453 -0.9340658376555656 -0.7310517891507474
Ni 8.503143304590296 0.27306829252667475 6.955943194075412 0.10312077715159015 -0.38757914627582923 -4.584284392771918
Ni 0.2025286362812571 1.4994652290117383 9.797624609397156 1.3361372640102989 1.6034211782377805 2.180466973351296
Ni 8.930592197939509 5.555540371161902 0.2542494607516679 0.9547351930794589 0.697037894099148 -1.4137935783421973
Ni 7.478020415601488 7.9905298613142985 8.459552253263983 0.08657084321270897 -1.128425038698863 -0.5014080538735429
Ni 5.516862731980011 6.496132149926978 5.4885470318211835 0.4036585683361951 1.3878925422057196 -0.17406111291589377
Ni 7.621924680081459 6.134144995442445 2.066788953983596 -0.427211930176103 -1.0690477251818105 0.0503815377763455
Ni 7.869429426144208 0.7667305434926991 8.799757590855053 -1.906761214757871 1.6608699072735524 3.438712152869807
Ni 1.0190248500564387 2.1703724177833097 13.90004201113614 0.857349261529117 -0.17656125362992817 -2.3519672675185497
Ni 0.1245900261312324 2.0779280384333894 2.063177402243806 -0.006536258456621001 1.9364320023494264 2.617765341229124
Ni 8.56424660012502 0.3727641383279546 3.3088857407804286 -0.8663275537683274 0.15687046006922015 1.0820616209429752
Ni 5.371058148390884 1.5730955037486154 12.591138135179936 -1.3439310490231047 -0.516384215567401 1.8951981925106198
Ni 3.374371115454925 9.178352210748265 3.2585320115497396 4.408045298368098 -1.2150408762168945 2.5978310641990423
Ni 1.6245364802308122 6.772690033414795 5.230811761837944 -0.8316153470981226 -0.7297839781819173 -1.473078846366076
Ni 7.2217326026113415 7.855711202127361 3.494002348686891 0.24315719638260705 -0.24445508925842419 2.2780146272904833
Ni 7.319915756584438 5.84523976490707 6.742778443377234 0.2103730599730506 0.010361031519349896 0.5378593547220415
Ni 6.901306656106176 3.8867387463088425 4.832282699946437 -0.006837334636807579 1.4004948043507621 -0.07005999004187934
Ni 1.0903104524596297 1.3586619827795468 7.501660952578833 -0.8871082379591045 1.2262244036375398 -1.1972526989955379
Ni 3.113923399937272 0.7291751325608429 6.1794595700204935 -1.0433248664944097 0.14400491696046167 -2.2907379883944228
Ni 6.032095022983552 0.5019461295901193 6.998382708747519 1.083797115576843 2.269429199614317 0.6378151038820886
Ni 0.1405555429453264 7.5891749020012655 1.967174415368081 -2.8475746555499155 2.8501370169604527 1.6716788249635985
P 1.0463289375551674 6.60761753766417 12.52902228155272 0.4055370163058306 -0.2929016147955859 -1.7110611834159626
P 9.434195670513883 5.9503623926419635 7.20663499273367 1.1165288014819095 0.2555491422890567 -0.3798416684222555
P 3.7092338145953265 3.5871123124412123 3.837390011711504 0.6613201289825643 -0.5282195176394322 -1.1417186704839757
P 8.708755941336264 3.629127327969035 0.8974535895548268 -0.4666670508479318 -1.320205680381707 0.2049709151208728
P 8.170171470235125 2.7878343134003405 7.439669896027443 0.49333324728520844 -0.6304689479296626 0.9258696749980183
P 5.865576015672225 0.7317533266955047 2.476666040883663 -1.0761313715014693 -2.005090741168405 1.263646810150056
P 2.6133169480474883 5.096135862942291 8.784606091331002 1.2497515402252026 1.5617623650464134 -0.9421779252397386
P 0.329665657278195 1.7268133564639316 5.095842778900581 -0.3050637040794166 -0.5304558631691186 0.04371929526482148
Ni 6.338330029275563 6.727555090991342 13.76151631153776 0.8195563590510595 0.02461137079077697 -0.7498606943271344
Ni 1.9068236840178783 4.569000578115723 4.254032612813125 -0.6196476889444426 0.1982654780762392 2.1656998423444507
Ni 2.138369531293283 0.6437496432936979 11.867818065426558 0.1518411251754288 0.010955984790871454 -0.5209381534866706
Ni 6.841857867258527 2.422112700964977 1.9462387604660087 1.049349732532251 1.6119873226402366 0.33940258657060257
Ni 3.7858327470450153 8.531666999875497 0.76253376910188 -0.48833759384282993 0.4815272557892159 -0.4363457741565711
Ni 7.322279337565976 1.587078448835395 11.292488418954036 0.9662632483237167 1.3877943260649583 -0.9757727304760486
Ni 7.166500442234759 6.834540220539686 11.073097050518092 0.4699174394644294 1.5551165775951217 -0.9724449516543963
Ni 7.543756329860027 1.7473765110033135 13.667325718558677 1.0591883158892275 -0.22008231684101454 0.3755286428691984
Ni 6.087223185796948 2.9774785970350366 7.009618227301359 2.3407955671724463 -0.017389142010724893 -2.0435493022549194
Ni 7.266366465866709 3.817854542182894 9.467867245176876 -0.9802400222187828 -0.10992931543299132 0.23734598901746864
Ni 2.281791625253019 3.1494716578996056 9.30713239324357 -0.611271034844973 -1.3730608765095256 -0.127224097957697
Ni 4.420974228403951 2.4648840624068913 1.0379883329875157 -0.45290753516999416 -0.6163919010113063 -0.369939321706879
Ni 1.1804101594758647 9.029446608911362 4.1118537624496785 -0.3250907979336208 -0.3023894996813631 1.750109041347044
Ni 4.502924308195842 1.6020540979344209 4.305134179066373 0.8742408950781331 1.1791387630036465 -0.4804453355789468
Ni 2.8225884081528774 7.2988326142291164 11.345831605410172 0.24177805664689325 0.3438791342847174 -0.44668238019588874
Ni 0.5436510432931639 7.3180721634188375 10.423031918841724 1.3406107264006202 2.8600288221528682 1.399616515510867
Ni 0.06999603261966385 3.8533460742016716 6.062381949680982 -0.6847811882189819 0.2279360085574784 -0.45288079569711676
Ni 8.939290175951571 3.7781369273691268 11.940685376222595 -0.009855038417208833 -0.4199945864920573 -0.0703878056949433
Ni 1.7784528737485774 7.036314401771636 0.6795058963824073 1.349010263318225 0.4374567478325627 -3.5721547209333897
Ni 1.9312536570430567 0.30772122601320206 1.967492080652 -2.672340348261527 1.1347219274511684 -3.931213905392656
Ni 2.2435583392956575 3.469453251180243 6.89871238962084 1.138848290914716 0.39866959976203603 -0.02724083799382405
Ni 2.9888899660139026 0.4125309156261379 8.373054643663613 0.629716128924038 -1.448401912444686 2.422740224467053
Ni 0.719222565763782 8.188673582158605 6.697959275372915 0.21033243654310224 0.09835626588341126 1.3533603127568046
Ni 1.1529264398225387 5.75532914436936 2.3030903261938556 1.2035727276762949 -3.2319206396004274 1.3265177386426639
P 4.08930709075059 8.769320340407198 10.113794219270765 0.3484772951783611 -0.05035402697251973 0.04093299076893595
P 6.86143777210959 9.169181516539899 12.915693730376045 1.3396100530502477 0.08656415834448963 -0.27566056832695107
P 2.939264219725527 0.909545669856376 13.840126178686539 0.9247682144037236 0.6223604598899152 0.28415369339962676
P 7.040521575918774 5.919342755840256 9.083450652609939 -5.880809955927866 0.2247216153852388 -0.861932252914109
P 4.296470236620447 1.875180061837045 7.452483341244557 -0.12729634595652917 0.7418411664567676 0.7009140892251026
P 1.6016948336252272 2.7256815879098126 11.370600043231908 -0.3171795135063441 0.170004683458333 0.1900024667364986
P 9.26708104079521 6.218789557553289 3.9416957858591757 -0.1913803209206317 0.8553993368915978 -0.17860039554714402
P -0.14697786518836192 0.22575601930302897 1.3060874328586045 -0.09472046890303687 -1.214668323368824 -1.8391679410889294
