# total energy = -340888.76267784403 ev
CRYSTAL
PRIMVEC
9.07886365856393 0.00000000000000 0.00000000000000
0.00000000000000 9.07886365856393 0.00000000000000
0.00000000000000 0.00000000000000 13.28783466991583
PRIMCOORD
 96 1
Ni 6.56219360408414 2.4259086963121126 11.046628421850365 -0.4240186200497859 -1.3756013835431924 1.3282064391989963
Ni 4.650075962328453 0.5442370239771026 5.8434580961182965 0.07242154829552043 -0.6890548758936713 0.7108159217198468
Ni 2.7978788209981333 1.8912090186527142 4.796882096256974 -0.7012771289914761 0.6093722751603634 0.671928757736346
Ni 3.690721513927214 4.426790388470651 4.629919977026278 -0.3503094632910935 -0.24077532641399182 0.5920201570351611
Ni 3.3946325320525905 2.517841270146548 2.619470978299822 1.3892395431519171 0.7498604372168182 -0.10932587752103752
Ni 5.467482376767476 4.561547962381822 2.8628371828910826 -0.7064828415621316 0.5873836867044142 -1.40687653950739
Ni 5.67727675916587 3.367922515044798 13.24126123636159 0.1681905130677297 -0.5692306699444712 0.9028300195697354
Ni 5.784961161521216 8.052552632618546 12.52313310437733 -0.13007236603976954 1.2649071649197183 -0.8798788100902009
Ni 1.7434777485130806 6.752777110891612 0.5341195382689163 1.2892868793156635 0.6276037105667255 -0.013963661268943694
Ni 0.8025070912196184 9.03050967274275 12.980128603394208 0.2793357031856931 -0.7184664962865691 1.335697605369719
Ni 8.185494433789556 0.09219132144990849 6.707592514139035 0.31765902424592385 0.30165236440502247 -0.21545715936417734
Ni 8.704741885430169 2.524169238146015 0.9879655794679818 0.4866098125184458 1.1087733259062065 1.5429007522552203
Ni 7.002836253803112 0.9674709525497659 4.64981176739476 0.10874095155184497 0.5941544297693445 -0.022497666881883833
Ni 0.8926801812688361 7.873635465666619 2.664383209141375 0.29689248112253386 -0.781397588593151 0.08821146413992549
Ni 7.948018595967382 3.96796277475895 3.591728307792656 0.47218618089394804 -0.0035864317996776945 0.7795998732627799
Ni 8.015792313493954 3.9750170518544814 12.38012919856671 -0.4009198292487934 0.6267390485735851 0.2575864844340596
Ni 8.354433929534288 7.86873287926818 8.698960465025491 0.15564172986844163 -1.3371168543147487 0.3075291349007736
Ni 7.1562599714831565 0.8415707180651077 0.29663916101489285 -1.8305791709786539 -0.38207929950352265 -0.6766719288482863
Ni 2.364916889970049 6.683659721537321 9.12693537622272 -0.31277701356327425 -0.5421980913067114 0.055663612110891235
Ni 0.23222643883036279 4.918274674914178 1.2107127767083254 0.4837926547846249 0.26765698129618415 -0.010841570700194232
Ni 6.531270994319169 2.3699919747788036 6.7975912900051965 1.2514356127958446 -0.7229412442284711 -0.051534677544182214
Ni 3.795763966945624 4.849229916469493 0.8861461230633608 0.24769982144796693 -1.5099469230370188 -1.0744796948306592
Ni 6.517661777631651 5.984287614072572 4.545422992562808 -1.8353719643816069 -0.41083811680376986 0.8707663062659714
Ni 5.662623473152757 3.338080290060225 9.07524577362851 -0.6263446413486439 -0.34187033138480477 -1.5197939910344278
P 0.5856974708396068 6.096166451457693 12.200690904838357 -1.337490949824716 -0.8176781681917401 -0.5950540587654783
P 3.979601878023392 6.519468471508112 12.864697206642957 -0.010072039524021364 -0.08316567418590194 -1.5462498712331112
P 2.4471078430535114 8.924132626760322 1.2151441700806924 1.137510545939899 -1.4604868686336783 -0.9812666637110843
P 6.373961522975178 8.151839086050641 5.69000986550626 0.11249939015301269 -0.2792367157139836 0.41344470118868154
P 5.064934639137116 1.2249202905137282 12.335721752546922 0.7816940367876473 -0.11233149711658073 0.6283177059146148
P 4.485821160253339 6.259903758301861 8.206912381146143 -1.5815256637162698 -1.3096680140751769 -0.40180120341248216
P 4.698003283805046 1.308318732469399 3.8167706417765657 1.93868583138061 0.048643986259948487 -0.9424710310001253
P 0.5828784836605042 5.833778211640489 3.4438744729930617 -1.276319777632034 0.09950477766555765 0.4118349334994004
Ni 0.7320360432875357 0.4770507089319741 4.740116500967639 -0.22894079567290893 -0.40704933918529895 -0.34330346428690556
Ni 2.2961081819815847 6.471414045939708 4.767688102140639 -0.49560455981788837 1.0158225473090827 0.1946862453654131
Ni 6.563137805909024 5.941653270133552 8.593030099137142 0.13709970520019615 -0.4643013788292326 2.6237686100004103
Ni 8.889415051968413 2.4235663494773028 10.262500582306673 0.7551898198495317 -0.38819723947580237 -0.18358036526023866
Ni 2.808210567889659 5.192292939132125 7.199587940608918 0.4062774940162809 1.2180603797695086 0.13611163025531398
Ni 1.0432613067241552 0.3507673463991417 8.929079699590895 -0.5083068378759052 0.19871747801199324 0.5214806562537019
Ni 1.8097262169379151 1.1294923541544797 11.305263459413654 0.24462761028054644 1.1774796301336687 -1.2211012234783616
Ni 3.8511268777931833 7.184259187136465 1.7939371650758305 0.459071497888861 0.10775313371727895 -0.08245887792686443
Ni 5.618482037839403 8.003118219767618 7.871806074630904 1.60636329158524 1.83256251995727 -0.45216371502543423
Ni 5.624946188794382 3.1669164727087917 4.676972096042113 0.31843215496652255 -1.010047078277886 0.24071439126906932
Ni 1.1692850137551443 7.191186360140185 6.894937590264428 -0.44428996870431225 1.1063127801808559 -0.4162600591502895
Ni 5.37643045271202 4.685220243714301 6.777832051046747 0.36280682442715584 0.7818045942235826 -0.07160625148307667
Ni 0.9005624507338822 7.794558562832536 10.739865419922694 -0.349942566869978 -1.1405542178622292 0.8783397477378551
Ni 4.913671691017865 0.24973230381827097 10.105225610644744 -0.3090178036311581 2.532941562614509 0.2817229724709471
Ni 8.114797322151322 7.666746319652486 4.569420245096798 1.9049205620047063 0.49133550012888927 -0.666764182816271
Ni 7.539006707382043 6.484088139666044 6.624796000846728 0.6788352550481922 -0.09533419122763581 0.4141900639951383
Ni 2.4629323024840293 5.305678867891582 2.6554541466916253 0.8251631637148757 0.7041356814861938 -0.6595766639288964
Ni 2.5415552621330724 5.196768818936626 11.474218389226678 -0.12002475199578037 1.4509077095856755 0.5102976430536889
Ni 1.2876098443678439 3.551379113847132 3.4261888465038774 -1.0185926538550523 -1.245215342917746 0.9587412289150584
Ni 1.3012644553738673 1.2329187694341448 2.187031081934534 0.5128867439371038 0.9409085716090118 0.25797292123920085
Ni 1.2672822685417229 3.4743267976183296 8.130879621310942 0.389488190373084 0.4115647105571492 0.545940331957963
Ni 4.012004342571595 2.8115879051863613 6.845839095370429 -0.547394033685354 0.25187323609936624 -0.6810875414174787
Ni 4.3068767567103095 6.965830805358598 5.9796846301762585 0.5585053131071671 0.717482535106745 0.005250449765661925
Ni 8.213775094217588 7.351791459007572 0.17026591773142238 0.4584480053722491 -0.005845403037183481 0.39307205106960047
P 0.27825900145259636 5.914807070170247 8.237833175138373 -0.5467695127274776 -1.4139825544245521 0.8731795436931543
P 8.82172304421515 1.9154041904153816 7.843822293045888 -0.008193848664702017 -1.3219257483966071 0.7446724652579756
P 2.1139861761432703 3.291133485863319 10.251245514976775 -1.7867742579785613 0.05766393037037165 -0.2790999330258032
P 4.378572543355632 6.356502868078514 3.8158545844291534 -0.18680787105860086 -0.13153275263537992 -0.8497123138091496
P 7.029564428538308 4.402168510114046 10.26637998076603 -0.1475844067816039 0.6063807966322073 0.9621289144403689
P 6.593760813171868 8.013804042343475 9.92467061668119 0.840359926059972 -0.6351442419181449 0.9485694305883793
P 2.4071517639062323 8.550746199336974 5.825373907512645 1.1875444705688387 0.4047708275637674 -1.0619494235741325
P 7.22360698241579 4.215025892649181 1.5502123453683878 -1.2440385490008254 0.2913738652971498 -2.06355865549731
Ni 3.363292294557383 2.032657715111385 0.23088276700264243 -0.09619705344856337 -1.042679776711243 -0.1437804596544814
Ni 1.9547610645584073 1.2073345315252528 7.01998985887943 -0.9499819946651898 1.3809029982617635 -1.4981956960383618
Ni 7.248637409638932 0.9494857235584547 9.112199472549928 -0.9855701761824446 0.530176384255487 -1.0860193200391426
Ni 3.2717319541346814 1.9904773143574066 8.930275385940293 -0.41090496548596334 -0.6208705056079501 1.013519610207519
Ni 6.532442167736575 2.2217704459993257 2.413097511743895 -0.30697634772109716 -0.13725988492714425 0.14255712877034157
Ni 4.577690182041869 7.087687313950914 10.300463850871624 -0.49424007537019404 -1.495393450702876 0.4223162926466985
Ni 7.421662394049031 6.500021545460971 11.347478359849696 0.0795509602514501 -0.6489017007135534 -0.8309144643763561
Ni 7.922334490557781 3.9202987403296796 8.104556363896805 0.23387962773542303 1.0271487709551796 -0.13316283203963517
Ni 3.4172116660765135 8.666410922885335 12.275872975144791 -0.18532845829959696 -0.3251249936056658 0.7883123134351132
Ni 0.017781862444412898 4.80711306776142 10.307598929854093 2.023405994537825 1.4525614431390144 -0.5320566319973353
Ni 9.00525227392709 2.6683960668971345 5.842288738473631 0.15965650745478957 0.23181194657311688 -0.8441718436068945
Ni 3.9063808422763326 2.813176706334004 11.271325759013644 1.074675355781233 -0.2636270342011847 0.4560154846713566
Ni 1.3517520164140897 3.320866764483483 12.289625637878784 -0.8322452673726376 -0.3386777925894361 1.3793191987144116
Ni 3.3736240414489087 8.65327380711026 7.934870585555864 -0.17830677556612518 -0.08420851362811949 -0.0006198929721860292
Ni 5.789890984510757 8.321568442937345 3.3496240652558087 -0.7453718053178454 -0.9993191503374209 1.9022371016352726
Ni 3.06017627217833 8.93539041774933 3.405499024016094 0.28443908585052946 -0.40184671193843696 0.7365107553827897
Ni 3.7520129227714047 4.540820916552866 9.575665477726377 -0.08610058844450978 0.9217222284885481 -1.8197797663703046
Ni 5.146208626986796 4.942024982355506 11.40959957683614 0.7021070810919392 0.10371110243742139 0.4638128692285883
Ni 7.99432080084153 0.02720209142037676 2.363294497026714 0.2947664359184665 -0.6492565129498109 0.2678230745604032
Ni 5.032632042089623 0.36963867248765214 1.5072121232222258 -1.7049005631312055 1.4472348887197786 -1.0284870301506288
Ni 5.985331683398164 5.962779785965345 0.20696631635559 1.1233491668378524 -1.2491103070967777 1.5571644612630862
Ni 8.120862003103467 0.062714974672478 11.20908560891272 -0.6569263707902429 -0.7276911002086307 -0.41593430037975465
Ni 0.3048473616867982 5.183295785204618 5.638599891914035 0.0839071803376168 -0.4394730069316431 -0.18159084563403566
Ni 7.5787358149368025 6.260130729894382 2.543238483463203 0.5410832609759778 0.3456210566764886 -1.240641350393818
P 8.677941079785368 1.8033619334836448 3.2499254314116977 -1.1349024188930907 1.3689874777711004 2.026602904208568
P 1.996687257128763 3.3585077333870546 1.2542967697904497 -1.1937613980128279 1.4278320587131343 -0.5839710614784395
P 5.1904499298008595 1.382665547315359 8.100197601434045 -0.3861377858436124 -1.1033737521571902 0.2278696740959172
P 8.665139881967221 1.6594982592805576 12.424231594766152 1.17198723956053 1.6150014268762123 -2.2843997048812206
P 6.491042549260866 7.883749319829325 1.3693513936981163 -0.04253607358999771 -0.9086862212401964 -0.8391566497804903
P 2.093640442589748 3.73555294288183 5.968669244848062 -0.960613763347423 -1.9668016157802193 -1.2850921245080256
P 7.289637558111804 4.254555265202522 5.766708106050731 0.09627187255055678 0.3703100747827364 0.336040354966589
P 2.77383798991838 8.6637780524121 10.083459942808416 0.3122224266113849 -0.06002420307243211 0.12006563253604484
