# total energy = -381172.874984973 ev
CRYSTAL
PRIMVEC
9.16328039429936 0.00000000000000 0.00000000000000
0.00000000000000 9.16328039429936 0.00000000000000
0.00000000000000 0.00000000000000 13.41138709562951
PRIMCOORD
 96 1
Ni 3.693709071553279 7.274434898662261 4.227712051807429 0.10117573761007738 -0.49994252507161 0.7403995489142345
Ni 8.644052058483856 6.099968116531679 0.06559809005091954 -1.4881347122579338 0.254812007012716 0.4343724524802842
Ni 5.7633550196410654 5.112633841947038 12.315301014022747 0.27105340857224286 -0.37636965071325507 2.421242556875604
Ni 4.596457106927433 5.84033573631394 8.003177741655996 1.7091999618375082 -1.5073315969013588 -1.0700633109305184
Ni 6.643607202208183 6.540401177700792 3.422760040330778 -0.6604726933806044 0.37649589187847415 0.4224057670367113
Ni 2.9991415982659055 3.7971441780648147 0.1409404122301494 0.5372155504904554 0.4627296634667386 0.7500504417404372
Ni 4.845808286799146 7.996281457003217 2.2497731279469733 -0.46442556311192273 0.2680752997805254 0.767380962599085
Ni 6.2698461675254205 1.0393817059263777 6.874234135389103 0.00854506135653367 0.5762752354960785 0.027922951662513202
Ni 3.111721658382908 8.24258126457972 11.742272539870477 0.19780370794847224 -0.31371880865125323 -2.0468230879101847
Ni 5.798954363085193 5.446259709503602 10.108149051110953 -1.2098842717166196 -1.0400251126972153 -0.6806311706063504
Ni 3.4440555034360947 1.6830929742935687 4.213173591496373 -0.09333438718878764 -0.660257749156321 -1.469223734286044
Ni 3.162367107859277 3.2713093457504576 5.815686512667941 -0.6677486582167275 -0.9671363949572893 0.599651962548806
Ni 5.5675998654591075 9.176933453245713 11.782949256854474 0.06575596334988675 -1.11249088396711 -0.9460950009059578
Ni 7.494005417995128 2.859520698379631 8.461404976579075 -1.2502397927155304 -0.9808874259947945 -0.6349416389890354
Ni -0.01927129451669119 2.13325743899876 10.066425887532022 -0.684681429416324 -0.4367070141507317 -0.2876928169011368
Ni 8.29793664006131 8.678240256782452 10.643383576219387 -1.2778855794572572 0.6633772686219092 1.210974933677637
Ni 2.406524780103208 1.212219496413672 12.871645903977148 1.6335473081991996 1.2492756290300484 -0.5912652811470075
Ni 0.7492942477495895 4.401938995567859 12.562593204841207 1.7071960440336018 -1.2919772816636328 1.0356745490380033
Ni 1.1408833603229296 4.4057692466771625 10.303915201229108 -0.7082453327791931 0.24184259133624156 -0.5901972448938093
Ni 4.853798667103723 4.962667598753577 4.540787430936156 -0.8320624619378703 -0.9387362465480413 -1.2092970317545817
Ni 5.530836785433923 1.0943430603608382 2.670207330154231 -0.7519520296385243 1.4390109581480894 -0.5103747761485274
Ni 0.11497075991225937 7.394400562592897 2.0886359299033868 -0.004137419207141261 -1.7744352767972342 -0.5198374642233241
Ni 0.25840541700353914 1.7127178590695957 12.359987582407298 0.012137920914114579 0.21192806316499632 0.2619031095315425
Ni 7.704531779804354 3.6326174826878996 0.5707660602793341 0.42446393511732056 1.026950281791128 0.41851645928463405
P 4.319112106149205 7.8669051043423055 9.946166082308062 1.6189935787547407 1.258975629926632 -0.4866483790658651
Ni 2.9102394540973267 6.538009561577519 9.145787463962163 -2.2390171629813636 2.6471666772093765 1.1229038517703176
P 6.7574426317078995 2.7858570891267758 10.488871429735672 -0.18258174879239522 -0.5352157464516073 0.6022909428335499
Ni 8.877843988634044 5.6268954514119915 3.84248317199717 0.891306335200852 0.11359750831319791 -2.656979035314108
P 1.14668371666788 8.730141075641535 12.361248449758111 -1.7896680345865885 -0.5215035390718373 -0.6437903476289171
P 2.11696512686397 6.2595099874984 2.9631922175194445 -0.4471639478179976 0.3778513774651041 0.36739521512878665
P 5.200674637780031 -0.2772157985278907 4.379099519754606 -1.004578084743515 0.5266133494945769 -0.7347937726916829
Ni 2.772506189925207 1.482087260576609 1.7673795742426346 0.8342160179457632 0.5188568454776097 0.47523550924323316
Ni 0.8565147052976164 2.703048526268453 1.1560082705645969 -0.25935206097491464 0.382973786293334 -0.2036578527364041
Ni 5.18700302377266 3.283963835659426 9.056025804114032 -0.3784255048010192 -0.20913738779373658 -1.2569729976743063
Ni 0.676169439370483 0.15289116222238402 1.0197631230914026 0.024001762231236082 0.37767731378108504 -1.0568123594578833
Ni 5.633722095135511 2.4614494814170054 4.694521614933794 -0.9698170271132459 -0.21970924977231196 -0.7471515229260874
Ni 8.149271582651393 5.020973550448554 9.709937635961792 0.4340258677741428 0.22714693699727978 -0.33848033186664933
Ni 1.2632772934975025 5.184473958446899 1.2810687182674172 -0.8902511544634603 -0.6623825088088076 -0.14037786173083566
Ni 0.9092429683556718 2.343912086730306 4.764650030698685 -0.35732883203172006 -0.27216643913076355 -0.4123987764226704
Ni 5.976382956935552 3.88875865316247 2.5065877995137296 0.639717206000808 -0.5558329084813265 0.7056893991265588
Ni 7.8734751762211825 1.5228363674739156 1.404494436788659 -0.49242924741370037 -0.07005484783555677 0.8114722964913443
Ni 1.5478612856067118 4.045322458075306 3.184439617122653 1.745396209252407 -0.47461510205041485 1.270856697634934
Ni 2.2867973614568826 4.733429818845792 7.709173897536347 -0.5393176844351228 -0.009767878020041242 -0.0715597145158574
Ni 0.4572751701138512 3.310885552786542 7.9464213006370565 -0.4072941082062534 0.40811943232102615 0.2634547702893786
Ni 8.792827075255763 0.7219867565274929 6.087079962978484 0.1933122478360219 -0.17153654672182717 0.6070842504571351
Ni 4.213826017044178 1.3319194252195004 10.24510618545303 -0.47961538347848365 -0.9829833892918748 -0.08930829674853005
Ni 5.3929935618998135 2.861087619287983 0.41799310437108883 -0.4770591927155332 -0.7091614168355593 -0.18662352296193666
Ni 6.235960357472297 6.790705338709749 0.8201080768708818 0.08966002366099397 -0.15539258997211303 -1.073283360529713
Ni 7.727100938852716 8.185943029874919 7.373124342375929 -0.3157489517074046 -0.9142806846088383 1.0912260610510627
Ni 2.410813195220802 7.038397964871454 0.7312031837182532 0.2160449135468473 0.4579263285408242 -0.594355490036557
Ni 1.5959135267961602 1.618720931128833 6.939695692565552 -0.17074336139657048 1.5770825403432516 -0.7351894654682047
Ni 3.9345200743104685 8.808477957778948 0.27710309018185136 0.17853046154115704 -0.13545574183886994 1.3376621852952575
Ni 7.2227356719668245 6.69870600584513 11.62596943902211 0.607953540435966 0.7417383223303161 0.044050453351995096
Ni 7.107663199644725 5.136174308692975 7.622576318329466 -0.17109508830903436 0.5774985663802183 -0.7277232389981467
Ni 5.393341766546115 8.056475044412348 7.68522108318295 -0.5809209617982061 0.4911876616971153 1.6346192011071397
Ni 1.247415655530505 9.042764705058088 10.001367514682869 1.944111373271555 2.044522721911782 0.17622238223327072
P 0.15311382993041292 5.567022578808662 7.749112970466998 -0.2332067700381145 0.6083420341236362 0.0036566229159807995
Ni 4.521822189977003 3.5007303912615595 11.350378290067615 1.8600162452928484 -1.1872904455765034 1.419025516165098
P 3.881290579827344 3.318133707397689 2.24114956498294 -0.012575522672165438 -0.3848710033160469 0.08973972785899383
Ni 0.58875541190083 7.072531183489053 9.35505937271669 -1.3228819416622895 -2.042681040717353 -2.101850351988658
P 3.5348086301981643 5.276024290583394 6.100746079017756 0.3694407848039057 2.687119049232598 0.20518431668325954
P 4.261850768393129 6.241980632541227 -0.13557531169307427 -0.340617175703994 0.5362722127405797 0.7394441269795007
P 2.515155466468751 3.064292520244734 11.601869095858044 -1.8654073344014326 -0.6356731178384213 -0.8868560127389824
Ni 3.1393397848026257 7.622740341044435 6.681458879917064 0.933254911718496 -2.853780527250311 -0.03949908653588681
Ni 4.283576905666237 5.611968468021905 2.260556476046085 -0.9895584714062312 0.05649947774862528 -0.841043582390558
Ni 7.0178080743389035 7.115992621315436 9.309178828926536 -0.08177239338280111 0.92166232178489 -0.3922369567628148
Ni 7.191901234208912 8.612851089519312 2.250215714378981 0.4780902050832089 -0.32513990600400133 0.6575629759329772
Ni 0.5708338685525609 6.755866547519383 11.562237909140965 -0.9311777174744931 0.5415607148330286 0.5506508500597549
Ni 5.666737393572884 6.627727237680854 5.884420277191597 0.10706562073195108 -0.17944860248005223 0.16117474387152889
Ni 8.467704731693061 3.335846327958178 3.009944189253366 -0.45659346866201367 0.2068298227064825 -0.053400269998011264
Ni 1.4056838305541797 6.795002917107508 5.1274545312872 0.9091266512117246 -1.1843012810411926 -1.0228833108106061
Ni 7.223560367181746 1.6299001329311074 12.451815561932817 -1.6810188714176015 2.1541224219194963 -1.7875535593467473
Ni 1.009958413313998 7.970752558461302 7.02776764355111 -1.9745162108156575 0.37208902106003017 1.7923748919947904
Ni 8.900165739117929 8.252376811076958 4.160118199336399 1.4898429531982922 0.8871966839078528 -0.7877014193239917
Ni 1.918149437106636 9.186554897419802 5.187095572902335 -0.2509124148479937 0.1482294965647705 -1.0465922243917716
Ni 2.5522300980195727 5.8848234615188915 11.945106327980513 1.8277175331601425 -1.2854623633632505 -0.34346390112416975
Ni 7.6136595304001276 8.795704345227826 13.305222082598192 0.7975916818545102 -2.180438434106206 -0.2927157240370249
Ni 2.3327603747685286 8.481458815221925 2.556612894922874 -0.11822189445908672 0.06293083519626581 1.5590938170753148
Ni 7.54152618893496 1.3560738317365457 4.094885724164095 1.1582284952135407 -0.8590577595797916 -1.436282760583649
Ni 5.545488870419035 3.6461883006134475 6.578017359109412 -0.9996053141192719 0.6244939612931503 1.3377596301050703
Ni 7.928015019768017 4.080875985118605 11.787978981337481 -1.666985276142671 -0.2808706517729808 -1.1780167335840617
Ni 2.756635388678044 9.525138099546062 8.161217751003544 1.0239613743661333 -2.9334507866884447 2.418516930414325
Ni 7.051162414142411 4.473440070701586 4.662066192914552 0.6336321761489926 0.3671255064071678 0.6153693732840627
Ni 8.18290998414004 6.566892220660116 5.7245164566583275 -0.04813850737843967 -0.6503538597790477 1.5068970804671018
Ni 6.41870365381882 0.5042479768997683 9.251683827526232 0.5404808515052885 0.38542404760603943 0.5556213066911528
Ni 4.110528359735129 0.3643668398567853 6.278862835208567 0.6867007738391979 1.0474741127760927 -2.2738399270875034
Ni 7.031589647708264 8.489009358078544 5.26132730552547 -1.878951134524138 0.6542907329396087 -0.5183220560200622
Ni 2.24076104190391 2.3962985594381765 9.348796270723366 0.417478504938423 0.07022659752673066 0.0617373291087969
P 5.744496989059852 0.6111119828493456 0.48042528112472493 1.3962866798066855 0.5353113914892071 0.648709125086773
Ni 3.286272982261207 4.496769782003709 9.843153403012172 1.3782938427736908 0.414061508837074 -0.3371464435465742
P 7.546465196944326 5.399398694735707 1.8340067006561733 0.935550392620892 -0.3687825823946165 0.7459503035291347
Ni 0.31450301817855864 4.57657278896765 5.821668301960175 0.6626259922781814 -1.0269788210362183 0.06836126218321775
P 0.7576639878530301 1.007777552634538 3.0222697174043813 -0.07091076807794884 0.24939083599714468 0.5936715765956551
P 8.754313808718912 0.43251140546578026 8.469143366679091 0.8013830305761425 1.2017325891437627 1.0929528139341822
P 3.97493013984164 1.9940580500001124 7.6420098029050925 0.6766611302150088 1.68255176312236 0.3053015311218355
Ni 7.580955783488393 2.7046062838966387 5.923997400555699 1.9998688306478332 0.9631473284025541 1.3225376709489933
