# total energy = -381170.06604701554 ev
CRYSTAL
PRIMVEC
9.22446969662640 0.00000000000000 0.00000000000000
0.00000000000000 9.22446969662640 0.00000000000000
0.00000000000000 0.00000000000000 13.50094382469969
PRIMCOORD
 96 1
Ni 6.705903335651939 4.161038253308225 2.7459566715814203 1.5246266365363808 -1.5633039985019204 -0.41962229075430313
Ni 9.444749786176999 1.547589240562288 0.4498801426893661 -0.046381929698649155 0.1607785368743747 -0.15468656504402392
Ni 7.591415505509586 7.014554083635573 2.2011668851105597 -0.7009500846693606 0.17365539283704287 1.3952222430979133
Ni 9.049914820069903 1.4235846976709554 4.329279661920725 1.4709749126491956 -0.828964796849153 -0.31863527211626413
Ni 8.107524571549163 8.672357285253103 4.38206853327416 -0.7509819524157711 -1.344961290059832 -1.425531949825048
Ni 1.7197916363590142 6.210475530131767 5.893229421509426 -2.299589011027149 -1.4359194637069594 -0.7599692435160461
Ni 5.669119091192272 4.84913755234705 4.484311630272839 -1.4206183145735145 0.07056212648927848 -1.156445435171189
Ni -0.014898440617703708 8.335249048999014 10.608757913367995 -0.29900875613458827 0.5152593579343384 -0.7142629997281827
Ni 5.324622054904263 2.2627254595754125 3.0430860572150364 0.04764074180641473 1.669180484021777 4.0386651915988
Ni 3.900410093310329 6.288966540729278 5.459349121090759 0.7590184495670025 -0.9238721849520153 0.15406178697583142
Ni 8.229056956626401 3.105353070934078 11.962713548247415 0.2857727170602885 -0.3713706548367669 -0.14599829324140662
Ni 4.9546931563272265 8.026127853073145 1.0570522487474627 0.01794295763166587 -0.24365059107925782 1.81622367358793
Ni 8.941379712455575 2.317804766694668 6.482666562592229 0.6223915702381668 0.6110319222509735 1.186901437668201
Ni 2.875940515573858 3.8654216806653223 6.584099751172707 -0.362567197612524 0.9227085036612174 0.11453441830517049
Ni 3.438190377830236 4.482963012838433 3.860000459966279 0.6008359555545781 -0.9930456586238834 1.6094468156065702
Ni 8.554699177347208 6.245417820429496 9.379173032817299 -0.052067153008884516 -0.9288169305518004 1.4632510616423768
Ni 2.7855499393786514 2.317897011389223 2.8457562066213167 0.6832521531689653 -0.7711694831072397 -0.4728649521285276
Ni 2.32055365859243 8.726145166648578 2.120808841895239 0.8031514353304748 0.7462660349973406 0.8508960497046055
Ni 7.854986271263811 0.6662179350432501 12.164971110424304 0.3460175207839589 0.41548949953285214 -1.7560976548303109
Ni 0.24505448821604323 6.369413138851372 0.9172351203153787 -0.09995857737352462 0.13316411759121582 0.3159368993484946
Ni 5.013305435247969 0.23706794256140398 12.717402447392164 1.857382664324743 0.36486730650061033 -0.1336873370845375
Ni 3.913379697364871 2.068983927599912 7.863422048580936 0.15746669889232234 1.0250898315436217 -1.9612351774360353
Ni 6.053281346139266 3.4767394356850962 6.09262463081425 -0.7798757526319858 -2.165827883281883 0.994430969007184
Ni 0.4820633941729315 3.9813917106608465 0.28777669605260625 0.4874243379999411 0.06020315185245761 0.11066542226806748
P 1.6441417623538208 1.104058300199196 12.335488195651497 0.7261849479767494 0.1826524541293306 0.7787946037526652
Ni 2.2983595850823098 8.375624551806077 10.879506238805606 0.527648989847943 0.4322320090985137 0.4833051736252451
P 3.675342263063686 7.0463877277267715 3.3082443541625666 0.9855354662897672 0.5090146625762072 0.2652218894921303
Ni 2.420565356429804 9.185163991227586 8.716816460688152 0.38014917236034534 0.049952677769043004 -1.3065086425105887
P 4.020595705847052 4.392286478090104 9.96796261614432 -0.6804074846313185 0.3124697667355006 -0.05272098454279953
P 8.750184134049814 4.9899214051780785 2.702402416599964 0.5834887225253822 0.4348092829073866 -0.3505393199137124
P 5.183395427539367 1.1840805727263335 1.4371216065970158 0.47798761806707357 -2.3165125262553654 -2.145706687051976
Ni 4.246124759566474 0.12084792944363366 3.9967652114555126 -1.5205352400758265 -0.1381515435034782 -2.7851061047020487
Ni 5.839891694223383 7.301684144379343 4.598516096814565 -0.02673458778136686 1.6759314295923653 -1.9345743803153974
Ni 6.771756823095309 6.7927609400456594 0.0025330393125016647 -0.6215330788926134 0.46547534453267575 -0.21263203121055635
Ni 1.1041505448937519 8.51057853994118 -0.06527880299628744 -0.7709923340994269 -0.4048662154910511 -0.30360383170443844
Ni 2.421976700256508 4.388753506288618 1.8992721385561915 -0.6744949758016254 -0.32774263373417106 -1.7127036041153922
Ni 5.890367991084306 4.020069911088084 12.574035743113575 -0.05607730260954213 1.1170743895727342 -1.8768880813475224
Ni 1.8679181668766827 6.2290536116153 9.896515410423087 0.40890336167490227 0.3311678573656361 -0.013436842231196212
Ni 1.048277933401317 1.689147948827585 10.43286757468293 0.021119555587434596 -1.0451984293680385 0.23953399780772297
Ni 1.9461877902072604 3.9171894032500245 10.422768625522963 0.5392971156098325 -0.17192889706423942 0.4297796909032792
Ni 7.5718965281415835 4.3706458727473185 7.687409946899057 -0.6310137646895391 0.36956496908659575 1.4985469087301933
Ni 6.7678271991072325 7.8564252884988806 10.972999926525668 -0.9854945857495028 -0.4306546373090648 -0.18476667225885596
Ni 1.1943474072303917 8.301017042849365 4.089489578422981 -0.9168885545453306 -0.24857425363312027 0.37816119539603904
Ni 4.518938443715187 5.803685651610241 13.474617006273855 -0.16301976750006764 0.06599353328198958 -0.023462087677682177
Ni 6.761121009813028 7.366569062529877 8.358907045811733 -0.5065618301603405 -0.2575263206200855 0.25294590033825465
Ni 8.26921107216653 6.076001214408354 4.644526828012043 0.3149876480613478 0.3010062461805913 -1.0154525655641737
Ni 4.900517847214618 3.341554835813603 1.0563041442746153 -1.875733913138421 1.098693058852069 -0.7489276409899036
Ni 2.981597588718046 6.6503535805904495 7.697036603222897 -0.6888273332638976 -0.21871011908383625 0.2507452931425101
Ni 1.3593178189739448 5.855241211397465 12.41240274441905 1.3371736756946133 0.6035371565358251 -0.9002206069713463
Ni 8.808270618211587 6.488076713927924 7.066204655458189 -1.147764105347107 0.37735721143750495 0.8635669603040547
Ni 3.270683236986399 7.965901291997678 12.898639288573683 0.3689466187763065 -1.184963854325856 -0.07085523224966507
Ni 5.004376148814969 5.434337894608906 2.2561696291333333 -1.045061132459226 2.1724878118005617 -0.1273955905385548
Ni 7.250903440026388 9.210466710944235 0.6624478943767553 -0.5401666626989794 -1.5889525523079604 1.2187646049253849
Ni 5.821193694636928 5.556599012773134 9.710918162529914 1.6745106379854384 0.37552735731761777 0.48043787937977905
Ni 3.4511692063542343 1.658402792132144 9.9462666639848 0.5211160738254316 -0.14548124439567203 1.8538309424177428
Ni 7.11132799269404 0.8004745532875116 9.807112774906571 1.0099578609981898 -0.25867380396096745 0.1356442037005922
P 0.8608874486459818 7.732937315897061 8.548040955294173 -0.02320034937586327 -1.0614920243217396 0.6890654174166326
Ni 3.4653010935601793 2.5380297504771323 12.14374745110091 -0.18890871945168755 0.771704272564787 0.9503643177052731
P 2.8463022952130865 4.499834567472686 13.218543889293121 -0.42841932022064283 -0.8980449394762662 0.047467706563660186
Ni 8.744649452376468 2.9119343953895225 9.282209099688046 -0.15317655615740072 -0.49041221698367155 -0.5123645528850467
P 8.424265179245339 7.741589868246392 12.495420202178414 0.1167082860280377 -0.16832729575591007 1.0250780044690797
P 4.5232093730731195 8.893689205370238 10.746197896021378 0.09264096066618885 1.158640643050295 0.543193108230129
P 2.028294792831358 1.0497630729836651 4.348816165780693 0.13194104381739213 0.20696249162960487 0.2226523915610359
Ni 4.3400390830937114 6.498361997370894 11.241114665933711 -0.8337349645442866 -0.08113450268848607 0.10221317773565623
Ni 6.153717369571597 9.210678873741713 3.0419781984334215 2.2138054396024263 -0.6050844464182868 -1.145860203456175
Ni 3.856520067640689 2.3040787561447678 5.132599964035283 -1.5125036280206017 2.0954786441343587 -1.2654797495937367
Ni 7.879458788729459 3.3348301975804873 4.543324251167952 -0.44938332406681963 0.949574731924442 0.12215825339901541
Ni 5.438249069658071 0.2944838077937569 8.281505445056926 -0.009244401416403434 0.6076072128401406 0.0818631533243945
Ni 1.982329261534214 1.1488338749365707 6.596911616799559 0.45450804688789465 -0.24419977871450846 -2.0470575725184936
Ni 3.2676760599438808 0.8274552039981311 0.576599446941475 -1.2898862034625591 1.3468837038935255 -0.30516731953681636
Ni 9.202616687437539 0.5692134142483939 8.541763703829652 -0.39402387345990847 -0.06560426826337089 -1.0094223002096938
Ni 7.452264383772195 4.746782839267959 0.7993759189753523 0.191322985320135 -0.4981327255563809 -1.193485518643622
Ni 4.918560909469729 4.987486145241807 7.624320110504577 -1.3597109375651808 -0.3877640085931257 0.48585005153428584
Ni 3.0161524512986406 8.520882272323062 5.580749596254782 -0.6613990618496157 -1.2547101697820584 1.8930538924741072
Ni 4.906947302425157 0.7400026213245259 6.009040790630314 1.8960865086528442 -1.924038770891396 2.4045103317225878
Ni 1.1464724107559428 3.548930133644448 4.719133414521809 0.9155196992222621 0.7014555635508694 0.8812332672355663
Ni 4.469781245986413 7.679001842990297 9.099527706589782 -0.17187593233911688 -1.7787665571827365 0.7796695501584507
Ni 0.45276740162896195 2.9368958097363165 2.5876038942252984 -0.14392881230688762 0.7461400509424376 -1.1204816154820703
Ni 2.6796622544980737 6.673064224390082 1.399359395986717 0.5930583684916884 -0.650402710739112 -1.532464901633877
Ni 5.70245632380473 1.914972185569585 11.235295870601133 0.17325147253040485 -0.1334248274517702 0.8263690110975187
Ni 8.270456375543034 5.510043115430833 12.151524601298908 -0.2999508083328834 0.1736232540475268 -1.1016914793587607
Ni 1.0977764364999476 4.546473485040087 8.259998594521246 -0.36337015312979354 0.00446574908083747 -1.0510703147677833
Ni 7.363691028059737 8.365357717302018 6.423938055356347 -0.7411410550659494 0.892273841320444 0.5568248400809507
Ni 5.683712201870996 3.1202044667575586 9.340505901753406 -0.07000316866201492 0.497367308145266 -0.35667988559381153
Ni 6.418247480149201 5.9222662064616935 6.161776788534935 1.3403710995859885 0.9061981647110199 2.9228254457641145
Ni 9.243287373267181 8.835510476513909 2.06320110769821 -1.0619404247130677 0.10721011672961538 0.4791399865039619
Ni 6.9910593599322155 2.0048738648836464 7.782861989484539 0.18591158449657658 -0.9426715770467057 -0.9107562163953477
Ni 7.7635256566117565 1.6717413749649095 2.284197257127161 -0.4772332563995522 0.22838132362501315 0.6303933574967208
P 7.621533398282048 4.348211963031353 10.257098998994676 -0.7996809602833712 0.9592785894757674 0.6036024625561217
Ni 6.730624913792887 2.254940007354905 13.71061306548452 0.9106793404108251 -0.516228149605511 -0.09470581361501754
P -0.25186399156815076 4.679204376036396 6.168864870864601 1.5587253779923025 -2.1487583293941057 -1.5344762756369508
Ni 1.7478709213817931 6.068077395146012 3.5147276457970564 -1.5292209407752824 -0.3316291132727708 -0.006574310783408032
P 6.913324755830062 1.2241239946329965 5.580304054380078 1.59187538238171 0.7476526309322221 -0.2719548373405897
P 1.5197682406842654 2.2719868269088126 8.171054415136675 -0.1600329169576018 1.8231317135616734 2.187089877984453
P 4.799989579087732 7.748572791624265 6.930804203001436 0.949594529418784 -0.03354132629055514 -0.6785861151518636
Ni 0.7362150541660655 8.275077834740278 6.472135908261741 -0.07163067696310889 1.855974214012991 -0.29131627258633697
