# total energy = -340859.5651482676 ev
CRYSTAL
PRIMVEC
9.39188973247888 0.00000000000000 0.00000000000000
0.00000000000000 9.39188973247888 0.00000000000000
0.00000000000000 0.00000000000000 13.74597997024449
PRIMCOORD
 96 1
Ni 5.050873636630604 3.9231988583680444 12.348536122523118 0.1566172064078335 1.7751914382369687 0.46597336721501686
Ni 4.481696958328579 6.4217044335925575 7.76885639879148 1.300185271395722 -0.623073683906856 -1.756295372663414
Ni 4.152858731881228 1.862993981508281 12.519095653090387 -0.44095601923507277 -1.3229187084374958 0.30455076899874
Ni 4.959274538508734 4.4603398016455955 4.866516481224736 0.19803973521867826 -0.9167173190747889 -0.8363001541683016
Ni 8.64070737782078 0.7329740484419658 12.37481838605067 1.2206942178479299 1.4446478447188926 0.20774256432873897
Ni 3.7789300440288636 0.963495158220685 2.0679588208164352 0.00696846089803316 0.7627928290077702 1.129016649536275
Ni 0.6565193721104701 6.850491147911634 12.729189403244881 -0.1378206425266207 0.215182565546552 0.36340640568436766
Ni 6.215242527100909 8.266233960378436 3.410445834509448 0.07566653759537936 -0.5659617693852124 -0.19518015428269608
Ni 8.966981618439435 1.771920829197426 4.314175704008866 0.34898560227334735 0.49391997302661395 1.8953758557390648
Ni 0.6503169682962915 8.700777902950225 8.16637657383469 0.3313198095624681 -0.10917084000041198 0.04446980027760083
Ni 2.5186605700537488 2.7952892828684255 10.529461433801394 -2.1462031670724198 1.0322814641960545 2.0807066280315065
Ni 6.5226578536389 3.0228078055796206 8.701356443342341 -2.0335284276838075 -0.7215412785571509 -1.8187068450211
Ni 4.710962372483501 6.912374307711183 12.438338552187002 -0.47289889069025653 0.027048776587675998 0.29371408339455224
Ni 0.8665210817480368 4.653831508762048 11.127796172190486 -0.2681439482349317 -0.5040100102727644 2.064500193474973
Ni 3.6471994021486887 4.142922112808846 7.56885235550793 -0.5025411390367216 0.1535038575898324 0.5203676256951812
Ni 7.518404760342155 3.8026257811929645 12.202773058567285 0.9350893938240735 0.052979123300192624 0.27766062947611536
Ni 3.3709369730238263 3.289687737111564 3.1389497892969036 2.0358555331550874 0.6115947367329789 1.8669068017650945
Ni 5.9182240222199365 2.404333099384466 1.744557559190447 -0.7605798805168514 0.852504788952622 0.28604756798822994
Ni 1.1049464057151457 6.690735107815971 3.480069789620392 0.6469121810873504 -0.4919322531726238 -0.30110651920388143
Ni 7.972540184374235 1.0626829030443354 7.683700136854538 -0.10238441320619786 -0.6059254542623436 -0.21714406014829699
Ni 3.7649267368106014 7.041907247452475 1.8575626518206076 -1.1000570290791314 1.1413306910169376 -0.20297779595024398
Ni 7.169054647265237 -0.09485244863857357 5.377289694780443 -0.037706256301522155 0.5435355791712123 -0.26074971265338964
Ni 3.9062464978523086 2.0678686586774044 9.067892774983108 0.2957282856111036 -0.2243917428496458 -0.737273344580427
Ni 7.448782683609107 0.8364567043259189 2.99392962379913 -0.4384129410982449 0.7745857078776403 0.7652636591457659
P 2.536251579054288 0.38799773829700296 12.073698443032734 0.06938378991046115 0.5237049175985303 0.8441800711370108
P 8.18411127874431 0.7658588102756491 0.9648410159835132 0.5260003985009264 -1.1744413575279773 -0.9780445572293608
P 9.019698294104158 7.035267181588417 5.324340100256556 -0.9547344217485105 0.5731798844002064 -0.3253044566063236
P 3.642935484323678 3.0118286867746926 1.013310679224295 -1.008111037597438 -1.4474290070084554 -1.4474588318051265
P 3.391852710901136 3.2774407132265115 5.635700020377156 -1.4143895600549834 -0.6609133804624489 -0.6878328305611121
P -0.22492636121405218 6.879652964754493 1.6155101801353948 1.2976943866530684 0.9993865132402465 -0.9541790634656728
P 8.308816787291649 5.893279163754676 11.658336495539803 -0.24184104867434478 0.7189511492324715 -1.5872592237659373
P 2.584084472188163 8.89518062334647 3.191073836735288 -2.659923976875045 -0.8850269299500435 -1.6526937992206634
Ni 3.121375685697432 5.261449190715546 11.03550583100271 0.414611467803273 1.8611341609473753 -0.1529559555061624
Ni 6.79401771645395 0.6896220257801451 9.709747650855753 -0.694726729467468 -0.16432614501631698 0.933784816080037
Ni 0.8771743019879256 9.088268479215177 13.900484812208457 -1.4793662220366846 -2.6054361302398097 -0.5302869416914222
Ni 6.4166703808299905 6.720319559685539 0.9581361460820262 -0.9766502479849954 0.26776625318053887 1.0225300412362455
Ni 9.175913591864957 8.34861961491807 11.0743384764456 -0.7120492799063156 -0.6711682254212376 -0.958088425822408
Ni 7.925345939725163 6.1286117385152306 3.121423584333793 0.7370802547330145 2.9961882749269817 0.1451986801582467
Ni 3.3755014313122733 6.216961242876189 4.366135393381308 -0.07519859682002535 0.3000140574706511 -0.23988701027176754
Ni 7.315173663832452 7.4662140304884455 6.861649651805676 -0.7622030179425712 0.7125133640269277 0.706819398965944
Ni 1.314376149283234 3.2602629473631977 6.337143617448801 0.44248942516046375 -1.3159337924792303 0.4199524204002122
Ni 1.8843511381912637 1.564810882331491 0.35284013920857826 1.8190220622686737 2.5512796988020643 -1.102321913853908
Ni 4.1849883858005255 -0.26863527567620415 4.39846603373553 1.184708029561308 0.13377089793727928 1.7691066654954695
Ni 1.420250919418355 2.875683856837789 2.3187269659413174 -0.6486304493300378 0.7691611944279592 -2.291248352371938
Ni 0.2636453647942038 1.1011614742537377 9.975745683965298 -0.23377112718201673 -1.9947690475274225 1.6594830542283547
Ni 3.6343700811157276 8.994612557296662 0.23353027116888092 0.06550605212260976 -0.6880233493053635 -1.2535025226272023
Ni 6.665029506302637 1.5611574373228365 12.983820432513875 -0.8276782168272456 1.6094578713501637 0.3185663665515417
Ni 4.737034257686649 4.705158184783376 1.5478660353273408 0.40335749215600863 0.9582043825749819 -0.2832640917058218
Ni 1.0269279797848299 3.98514776139397 4.175877313813648 -0.05866306105884736 0.8050545658904588 -0.32375896649607466
Ni 0.14563627344781918 2.7849206368798534 8.384484423284519 0.2557152355532757 1.1725906774724837 -0.45894705649585477
Ni 6.960911592556238 5.89176706954801 9.096319206879492 -3.274554929331186 1.9359080115251561 -1.606013878665621
Ni 6.06207020153241 9.468809057263153 1.3619498262673946 -0.25967062065659796 -0.8921067196149605 -0.27040137681054077
Ni 5.631527203880125 8.399260683007183 8.890610529924333 1.0360105922211835 -1.8137091346961927 1.6401630137435044
Ni 1.9426184205400874 1.6304132303660708 4.3368289414404195 1.8307177534390469 1.2657052353409814 -0.44734495348055214
Ni 2.46209321970124 3.9432411505234914 12.859652140044933 0.31997713085613927 -1.1578135191633092 1.461243801404361
Ni 6.5815262169145985 2.3125743391413955 5.910235281026205 -0.4094942011813657 -0.019519043869534125 0.043337743555686654
P 5.15696442022382 1.1433498418086887 7.865999529274811 2.8117129086562995 -0.4588593818780549 -1.2427391134631114
P 2.055978526592683 1.034535410265576 9.170657890510604 1.6094555573573186 -0.7949809837045405 -1.6719053391521077
P 5.6872492841792175 9.148113598997046 13.130792232646092 -0.7781963080470339 -2.7304732478485167 -1.9409399175221091
P 5.389000441776051 6.33355215891073 2.9364850709689647 0.7976688149493488 -0.620552460146899 2.376291188975894
P 8.671663045554778 3.457069991466937 2.8959477975850203 0.12144965736776504 0.08463531675289296 0.5273314586075241
P 2.818975628143044 7.429350864270017 6.1333048656895865 1.3904425623210828 0.6166657234979831 -0.8207614351027542
P 1.7567998871307582 4.51446526073268 9.09099964067666 0.19807804465578147 -0.36424304265305013 -0.4907516026009613
P 2.6176229095298216 6.214453608384387 13.04071462062037 1.5024475293361803 0.23304581898021803 -0.2863969809078487
Ni 3.530899634688102 7.5837535273607095 9.294976453211266 -1.506215995239677 0.8759673908509367 2.0029726663841374
Ni 1.361091407568703 9.070160916293107 5.209355197323505 0.47415101792980274 -2.316265700351882 1.0944520241875282
Ni 9.039111329664285 6.232007049826997 7.500219244737379 -0.45094244102382347 -0.5988338375228848 1.2535881403624731
Ni 1.9975140145647288 6.398910317818768 7.714450122208872 1.1692112194772897 -0.348225069958239 1.2764370199361887
Ni 6.706381995693653 4.414939407887664 3.069834874595905 -1.5441377099861149 -2.136739964776991 0.06327896256430393
Ni 1.010069538163918 5.469911569666947 5.908365355830259 1.6370306387621096 0.9255552290813932 -1.3759559386691336
Ni 1.0112435243492182 6.6233576926692175 9.751109532136253 -0.7178946829434992 -0.3255052597632201 -0.5025015440480378
Ni 2.802530429659358 1.126435048850882 6.589960133669795 0.5141640679876306 0.3739265884894012 1.0323182309712609
Ni 8.997439516030866 2.740788148202045 0.8050502258967657 -0.627398536534455 0.48003293063187646 -1.209135566476053
Ni 8.524736326492077 5.553649656292045 13.763849725640574 -0.8990980633311291 -1.5185192380870622 1.49883204407078
Ni 6.7151446285807355 7.584063459713629 10.998791056638105 0.9357578806460078 -0.38465811597429234 0.179818070004329
Ni 2.0329026541344204 5.42203171708566 1.1931850857802115 -0.6044784374031719 -0.15269473142497572 0.5870846674067567
Ni 8.715626480221903 4.93971123271689 9.578019826542423 1.3104974519550074 -2.2898391307292374 -0.0885405653445701
Ni 0.7763457940716995 0.7319418797878497 2.3518136533988723 0.1680043651988526 -1.080668083029558 -0.4229544404513296
Ni 4.884515098228813 9.226620403180446 11.095699389884375 -0.9812244976192392 0.3503308034473321 0.6024578074287172
Ni 5.08568937094187 8.745539648223355 6.913980320812673 -1.2950242960200729 -0.8628375383371978 -4.37292557184683
Ni 2.0655864295331803 7.9093515519366315 11.204678179493431 2.1482104273104357 0.9013683474225445 1.0250754333659184
Ni 5.748709808952058 6.6222964091577055 5.338773556013112 -0.40523722567722464 1.2524008049225914 -1.220620684297517
Ni 8.278264970805393 4.962965551075318 5.046011455445564 -0.8851336307312369 -1.1842812264365346 1.3077322305050447
Ni 7.821030223244121 7.9584523501506315 13.399017082751914 0.457271982786277 1.3872718779025848 -0.2287605613413028
Ni 8.01908638864902 2.437984239399913 10.207572266382071 0.9333844953178249 2.672064726002637 2.2343526676261583
Ni 9.106479352921555 8.547295645028807 3.676540604080662 -2.078107242735447 -0.32036305344064825 0.05963853759823922
Ni 6.109743432545083 4.883115706695934 6.786169853602454 -0.810399889362772 0.07011244054636957 0.5042972024958798
Ni 4.696442511343706 4.081827871725819 9.882534937608249 0.22950412437554668 0.8157089602805113 -0.6205840847157829
P 5.906587471151241 2.5932133887650584 10.797302155627387 0.091281618424817 -0.7019957523250555 1.7026251368334677
P 5.087389302938185 6.232918063106791 10.249524897511016 -0.6671681031229091 0.8697805453139342 -0.09875452976309444
P 8.09399609916066 8.346196507431609 9.090408890828218 -0.7157727515044898 -0.5661615441008443 -0.09800711007410863
P 7.814155360143002 4.0953146250225485 7.495710198596878 3.1955942943655673 0.4048821563306511 -0.3074509733646705
P 0.4680147583091739 1.0436643268424708 6.671968234252236 0.20229362539902582 1.2434312544341295 -0.5055357028886712
P 5.255814057026104 1.6838906490788694 4.041854111710819 1.1715090143725309 0.1299461248745504 -0.7830204689085547
P 6.473970298562127 4.77167154609775 0.19365982193818676 -0.3824680503015091 -1.5077882248228034 -0.7149440849556075
P 0.5856707146110202 2.7778673278785693 12.272836554106007 -0.5416712722689638 -0.8814533536661723 0.02106196287662179
