# total energy = -340856.1287517172 ev
CRYSTAL
PRIMVEC
9.42678564672237 0.00000000000000 0.00000000000000
0.00000000000000 9.42678564672237 0.00000000000000
0.00000000000000 0.00000000000000 13.79705366806979
PRIMCOORD
 96 1
Ni 2.950140816423394 1.8692373055653557 5.139429746036564 -0.03687553287011069 -0.8512020109807986 2.557039741214293
Ni 1.76298800569634 5.452679001635662 5.917335630574854 1.7919105507638622 -0.5012535305735497 1.1650414043703161
Ni 4.717615972038788 2.077899203586886 8.442513183950146 -0.5604081865568348 0.28077989183138746 1.4538413382927027
Ni 9.122432346148937 7.553947206586694 3.0069569955770223 0.041352337694541684 -0.4031248073199122 -0.6556058522066063
Ni 8.527894408659899 8.131705465807002 7.58897242827628 -1.0547361936551447 1.828499919852122 1.9692606188436728
Ni 5.313803596998066 7.117166525180344 11.675604624554927 -0.6399128669513817 -1.6176527484561303 0.4446236978946472
Ni 5.232441010965818 5.407138200671487 8.295740961062148 0.42822931569702377 -0.29866782785540175 -1.5943451840784413
Ni 3.3347065327002547 5.822482371750258 12.672689871746446 -0.35191897387005844 0.3810670561889244 0.3126649134654422
Ni 3.3568783323002838 9.139513681555082 9.263548497710397 -1.5341155498634225 0.6623488273573948 -0.05784262204008103
Ni 9.24909063672121 2.267764091233221 4.600834124681204 1.9303122626049336 -0.4286360642171391 -1.9227339360370437
Ni 8.042810878124914 0.6630706683955901 12.989083903003099 -0.488387473244159 1.0657610840107385 0.848791601767093
Ni 4.171399737249472 3.2302483220846425 1.2929411407829567 -0.564809143838008 1.64027022874533 -0.2543767192475103
Ni 7.221605882224867 7.6467916174118145 13.225152294637368 0.050113885937255624 -0.10695017820000935 0.6199621348610678
Ni 4.929228453935662 8.355261684988417 0.07535112489069322 -0.7131617962442041 0.25017887911607883 0.07449540010541364
Ni 7.598771571849507 6.4950175328322555 10.224099294846697 -0.36822388167766906 0.2229789216625192 -0.07004404920227937
Ni 4.4845009923155255 7.003168407593971 2.1557069487904053 -1.9989548034739961 -0.7605366859837418 -1.6888406814548658
Ni 3.1664007035935735 6.334064596450074 8.29593326748725 -1.7667453643521445 0.3689003389194034 0.1829288477191688
Ni 2.2883144837196423 1.383314791116935 7.874006372062943 0.14617184270479341 0.10487889749327745 -3.0199159575612247
Ni 0.7450356260241151 7.756953033281685 5.428795297780801 -0.04555223470850219 -0.13689890204329971 0.2653758985714913
Ni 9.133386270951332 1.8726686555034555 10.314760462139775 -1.6803380433004933 -0.28624091494595866 2.0362316855475835
Ni 1.9901358301701049 3.8880965512887293 4.10919049408599 -0.03898332324173286 -1.2915306810445177 -0.974025922988271
Ni 8.245778997677728 5.502339307882665 1.4477110485266784 -3.468125573034917 -0.27767579898476696 -0.3425174780505004
Ni 5.089201004621243 6.316012302132873 4.150691917444462 0.8339388530249767 -1.1135825743693917 -0.24402905746459908
Ni 8.828476892523215 5.479960119000664 5.998848102497257 2.7035131743199057 1.330334798395909 -0.7410325545125431
P 5.486851099233496 1.827391804534519 3.8068829084680798 -0.031669820299455136 -0.7383886891317928 -0.057633077132436226
P 0.5342790962546574 3.003477569032647 2.373286585936776 -0.3077042270260572 -0.41318733376223676 1.5183076362968884
P 9.42904797276056 2.601990772703894 12.512534441421304 -0.4343274581749616 3.7795216470902645e-05 -1.0146064155137946
P 4.950287892841471 7.996261411107507 9.7929143533394 1.3524460284726514 0.1636759130268278 -0.16700163496595108
P 6.242794458810839 5.692854643731553 0.18189642582579774 -0.4799467986759734 1.748771039261911 2.01120765269942
P 6.609232466486145 0.3149385355686238 1.2003399410248772 0.7797405126057022 -1.608129382346727 1.40207423302274
P 4.763571551566908 1.2444016793371626 6.495183444257834 -1.468426435195729 0.21709752318107772 -0.7855581477287438
P 1.2667054539348104 3.1251302364809344 6.210136302971409 -0.006902897767420369 -0.9818099378090638 0.25643668710033257
Ni 6.7147653306538 8.86385561867071 11.209056982435563 -0.26336426745810126 -0.31180102280325006 -0.5076980006473127
Ni 0.6165193160210738 3.0797308372999233 8.787702274330202 1.2209045340865232 -0.38653450706139886 -3.382321947005536
Ni 6.102948095262188 2.927507104331698 6.654263278352378 -1.5550096197036123 -0.3813858729809238 0.5811626454953669
Ni 8.102388162764449 3.6929997976653466 3.2236128077400594 0.7415588593296584 -1.9863096039061594 -1.638000973095179
Ni 6.890763416764573 4.884027017251079 6.048062521788017 -4.184339268731567 0.4749709427279368 -2.2279043408976533
Ni 7.00691084145503 2.937754020218276 12.305040522128706 1.6278019210749899 -1.552503565452307 -0.7204411035144366
Ni 4.7912485939247675 2.4059513405260877 11.06032493083292 -1.0686204078364046 1.7437558454355064 0.3381525162135854
Ni 6.554359147833183 7.119391246568781 7.205207988770679 0.21966605523920232 -0.534501236883086 -0.9074361508831792
Ni 0.4749233410754135 0.8325039410533616 6.435884249791855 0.22882046804496076 -1.3072208380862649 -0.5146474353819523
Ni 4.537866025281411 3.75569734832002 4.122076909924952 0.2876694198623691 -0.02932960220205271 0.05771946619865543
Ni 2.139474966761796 2.3908213497275987 11.831070229071814 0.1696421579125917 1.1257017262304292 -0.30867867512418445
Ni 0.6000516643538585 0.07435282830155926 3.8606363249983873 0.5777921863612371 1.2059144884355941 -0.32873225134094997
Ni 2.4964956156784166 7.8073014948734185 11.151026633303838 0.8789259592586282 -0.31700776381517015 1.5447861422033913
Ni 2.88964913358607 3.880130917503855 8.688501382012607 0.7383305822003478 -0.167137389212867 2.008680772512508
Ni 6.335657723207048 0.3799079415394566 7.629287962013288 1.726642839904304 -0.19683980137330614 1.015723045616741
Ni 9.147083390347099 4.1317318236793525 10.565232039407071 -0.8540929593753485 2.1566426172381887 1.4970595255513897
Ni 5.864855772771572 4.574215710339962 1.9822503240623566 0.2784862107012042 0.8566578918890472 0.6625311185715299
Ni 6.2209525967048585 3.891631595867816 9.743327576019643 0.20585023240203257 -0.389368119855452 1.4342019667952204
Ni 0.7489995893454637 6.8309221821298 7.574264757470172 1.9736741745303366 -0.8243764061475221 0.9836955848675512
Ni 4.50452348481147 8.122712312397807 7.430293232567367 0.10330846768236403 -0.07636202100050721 0.32724898192720414
Ni 1.0144540995567612 0.7029073214269514 12.971658489924588 0.2088093150303565 -1.5027699456726054 1.520294327709614
Ni 7.258964233336651 7.416089894787874 4.271761066867562 -0.36055813760229516 -1.0007144880230507 1.0910234581219533
Ni 3.0813993783412514 1.8141377440593318 2.954887202944914 0.47805215275642177 -0.3125492138231843 -1.382695314275496
Ni 0.7269852170640235 4.539317750255223 13.676798074168413 2.5298765505359397 1.9922079716684657 -2.5744903325905724
P 2.7716163517867676 -0.2854326968151841 3.248985001032354 0.18190374888876415 0.5151012350899193 0.593755651669029
P 2.68981070683394 1.8667297806105907 9.760752989098151 1.8717219637655507 1.0791076805209738 1.811021046341068
P 4.591297045746106 5.456100924788218 10.342036866112002 -0.8139811789561272 -0.5001119607699387 0.8284438913486765
P 5.890732299090484 0.8345900886942995 12.947541001788231 -1.6160203550590297 0.9894916227240379 -1.7882030200052879
P 8.081375857786359 8.913695033843053 5.738263469698108 -0.07703770691129312 1.0313342697914367 -1.2366193737186186
P 7.844273347777888 2.9574465752201724 8.563086484453619 -0.6924559311554204 -0.7928767928773441 0.8416544765016795
P 4.498047283142584 6.013148536167853 6.108907709083249 -0.6190679051815726 -0.46634849116624844 2.3243675035234097
P 3.3357623326812087 4.820028570191302 2.5281997808207706 0.7546599154879906 1.1977255248668985 0.2655355640778072
Ni 3.6712616302003522 7.909497276958414 5.149074290326865 -1.0961857190491833 0.77434530973206 0.2505925696147297
Ni 5.009525813201413 9.18167026650888 2.9223534806746674 -0.29911468558483323 0.9540564218448794 0.17420740868577095
Ni 1.4373491258564608 9.89228021440402 10.735639099011562 -0.17811857081471905 -1.8921478357200707 -1.0080159067804704
Ni 0.7776815270423378 6.089005879442271 1.5562114647836565 3.9571712486883652 0.13337211983696387 1.0373537365126393
Ni 2.159092107479338 7.13997934619738 3.486156326575298 0.30281193193076233 -0.6153431480318177 -0.9382906743701904
Ni 1.944670443490284 5.514169923740674 10.672586158541872 0.2864525167361325 -0.03143225036735232 0.6485499738010895
Ni 3.5623068428801425 3.7520114751722256 6.5930051978503075 0.7711075195210526 0.6742818313495549 -1.6318089853518543
Ni 0.19434261077984455 7.978934979277213 0.4510038154354844 0.2225837431066296 0.6765387457045317 -0.7148674660814011
Ni 6.585090468707373 1.375613107327299 10.144628664673174 1.140069822026643 1.2982304616621962 -1.8374622712517321
Ni 3.9117483562192024 1.2053465068274178 0.6988707718569122 0.035547300976990395 -2.8393887773050133 -1.3686699465306815
Ni 5.435258301949925 4.4295899665203855 12.478510344356515 -2.830163402052003 0.34175925972823723 -0.44789645510864795
Ni 0.45781749602685384 7.582048454294044 9.9748004097011 0.11643703464452206 -0.9252250994354839 -1.9069280793530388
Ni 5.773387672635909 9.098610859078669 5.428865055993828 0.46342823219565993 0.21740734111201265 -1.1248033827858757
Ni 1.7185972725685614 2.3760495767797907 0.8796529516313819 1.0913553875400752 -0.03864830849981731 -1.6594218619731163
Ni 3.9163392007792424 0.44608303338139643 11.59124997679094 0.045708814891024505 -1.5979655544398481 0.974038264283445
Ni 7.506360793159421 5.413275038060781 12.424095167481003 3.0859938230269046 -0.3200370375597972 -1.594730335332002
Ni 7.486281739950211 0.21030310138478026 3.3185914428123935 -0.07828083528977486 0.4491588667608393 0.6471762333820145
Ni 8.957265636628485 0.9098959650143804 1.4752636573153537 0.2326655528226638 -0.08487031558183449 0.4103969155012932
Ni 6.652284596066643 2.3788399053008824 0.9692074143015664 -1.9324894727619106 0.14049047604929996 0.24511457721929403
Ni 6.720327134124895 7.673827638352666 1.8482259432658217 0.9476803431152065 -0.49197416215415274 0.08115430018282799
Ni 8.989656071758459 8.408249646532532 11.799640383388796 0.5960058811557865 -0.46897024505981166 0.629861910473283
Ni 8.227302498011039 2.449908441518832 6.473425480543196 0.4118974113062197 0.629334062994271 1.6737467632362208
Ni 7.593567986229092 5.021469550485951 8.118434437117836 1.6592300576772845 0.8112444967512544 1.4731665209838756
Ni 8.643598774429778 3.2415039040244533 0.5348032255309165 -1.4492305789935687 -0.9589803415090581 1.5453497280163448
P 2.5933652639309237 8.084383002374969 0.0795026812443721 0.398665743107294 -0.202863896080199 -1.0464711254328751
P 0.7683131875684821 5.596692004394863 4.091695322794453 -2.1712058597643447 1.6496640112554042 -0.8314909057051165
P 8.476537281014934 9.460910507900058 9.716685594714539 -0.4648767917167284 -2.8317754837341296 -0.5684742513944209
P 1.13009247782783 5.118772830873493 8.767792903260789 -0.4768023395097208 1.2828902317607003 0.04196323180566321
P 2.317377263552503 8.570314943608933 7.227641853008838 -0.8072382038053387 -0.1279848873831215 -0.45080488700469457
P 3.3717537998890785 3.5856475638876555 13.034655812359569 0.8041780768227764 0.7449545152747686 0.8816420726382107
P 0.31970283298267765 6.348138787267608 12.222050872911522 -0.08575348951773618 -0.29474998085823434 -0.31271093621202917
P 6.934428287405446 5.1035485722195615 3.860954007671228 -1.6165829124307192 3.1619529521620384 0.9911702959780414
