# total energy = -340862.89872524346 ev
CRYSTAL
PRIMVEC
9.31611729609686 0.00000000000000 0.00000000000000
0.00000000000000 9.31611729609686 0.00000000000000
0.00000000000000 0.00000000000000 13.63507935040785
PRIMCOORD
 96 1
Ni 1.5285139692800684 2.13401500195693 2.2622364484242694 -0.482541298876027 -0.5128556335888522 -1.0482089340595884
Ni 0.7219245484144222 4.130263263838079 3.4280767727808756 0.2709428511363076 0.6508413409384276 0.6066926714456713
Ni 9.12147549197852 7.114252844121632 10.973607148350046 0.47251939586365077 2.1579934748391287 1.7207398441563075
Ni 1.6581756874552598 0.3043817684473888 0.4828031120541891 0.48377388573154745 0.9452663343570753 2.527352241452189
Ni 4.899532319492502 4.621371694311091 3.0997441988113863 -0.15887129254933285 1.1071337334202547 1.3051295027748748
Ni 1.3984982386540468 2.478152368632571 10.61081891518592 1.2683439585154093 -1.3629896083164528 -0.6859214724710123
Ni 0.6197435125407955 4.266818908687336 11.505143800707888 -0.5249701574641992 1.7274910468372118 0.8173279839411729
Ni 7.859793749453291 0.04428229954031736 10.642601780376786 -0.07785711748879494 -1.2088167496840536 0.5743245395276109
Ni 8.934864349805274 8.851634159391626 13.107333350676036 -0.3416070504210891 -1.8293815511261269 -0.7861631283025945
Ni 3.5686784072984388 3.008258065399688 2.5347477801797966 -0.6497460509917198 0.6479473072200842 -1.0489044174647162
Ni 6.8006537093886745 9.446170122209873 0.35747804640166997 -0.16856460857769678 -0.5275566872444527 1.0541055020496815
Ni 4.6889042273655495 8.18730184705703 2.3240852184194756 1.2255096369587022 -1.0872274814146308 -0.6634145496177477
Ni 7.408772570978256 4.812817901273311 11.556411324870117 -0.5135032944751801 -0.4909477777721674 0.04782740389592408
Ni 9.232654033773516 4.659959051451603 1.147923567897738 -1.1246897400261469 -0.5808489709096899 0.5327027502217664
Ni 8.063378857032143 0.8736710538511532 4.31997480979123 -2.7171544192524237 0.5061975048423862 1.8601633123936736
Ni 7.966155858693567 0.05474429907406789 6.940909715960822 -0.14887355790667264 0.16332752854847357 0.08009886233512012
Ni 0.3658672098746373 9.277986259714059 8.63167318112673 -1.341471531739019 0.3803767149901191 -1.1572483906884585
Ni 6.468329179230216 6.83115467686285 10.24388500990023 0.14019479918575212 -0.4401479215114807 1.0748219086614264
Ni 6.414808086334939 1.8714681890805656 6.03678148038599 1.954878381980072 -0.14765639767011993 0.19316826605898993
Ni 3.3437873398498743 3.892739541565146 11.784116791302782 -0.3840341092370483 0.9939110919479722 -0.019610060921443646
Ni 3.079312090728197 8.436442767387476 5.170121736284704 -0.1627901679877648 0.8103237847091981 0.705923626624552
Ni 4.4487999406484064 6.581808801955608 9.055915180919873 0.578047754015469 -1.8125045728651303 0.07091359629142625
Ni 8.746306139152459 8.046218569283996 5.011096548536559 -1.326693859209212 -1.1618848610192054 -0.3382795287097529
Ni 4.49377815413812 7.751195772102507 6.9044902192757895 1.3839371571023973 0.28695799561764124 -0.4255419986728477
P 9.249423044602324 6.458128030976025 3.4973430352326913 -0.7230942248665676 -0.3542859314403382 -1.3796773533847788
P 7.937881443212771 4.724025988934775 7.232018812337209 1.216019695190396 -1.500847531838912 1.4678235115044076
P 5.7145341941239325 5.989825455230191 1.8533893321836854 1.230921809113209 2.5493629413953256 -1.8398307714839088
P 1.675643407068601 4.624306271206132 9.437097155739774 -1.6560855985110314 0.1420310810635425 0.9540996163779891
P 0.8872874906441449 8.551310491564807 6.359550469207167 0.6184539257466575 -0.30782789708811503 0.3020567989322927
P 4.672265642176522 0.7306658611147944 6.204056089850196 -1.8001154551721579 -1.1568686387515366 -0.4577412091132117
P 5.9939990757031385 8.860354045022605 11.845270578960305 0.05646091120120599 -0.7479650199663183 -0.1468434148505213
P 1.6422171788165112 3.0477956664871657 6.2211548912253045 1.7287501160552934 -0.4707653892870215 -0.5361940512044766
Ni 0.7507309141831755 2.7633839267134612 8.392063580229037 0.2681130949969963 0.3373251352162836 -1.1297015914184416
Ni 3.994145476493796 3.025763049481538 6.868452683392969 0.368477649559688 -1.12696748031673 0.03128029817052032
Ni 4.930303454363363 0.4065739836615678 4.045446538677682 1.8968696666757716 -0.7159663555725346 -0.27537774697920964
Ni 1.9124032077371103 5.265888625516312 7.07994624280103 0.916907580708724 -2.1037719944914026 1.8316117260082263
Ni 7.996638193933488 6.673190594855482 1.528942510667916 -0.3044497246445015 0.9197687043066032 0.025675807499549327
Ni 2.665452903473225 7.184682689602623 1.8419901312669473 -0.6801647724928932 -0.8484267622285067 1.849578594899292
Ni 5.311798450718737 4.368998081337536 9.522916295103048 0.4045204021158581 1.0253592831549245 1.956553969910282
Ni 5.348746171244875 2.8202401895402467 4.301227055684623 -1.140312019944436 -1.279888211709583 -1.2713575485307524
Ni 6.120428101235221 1.724990879490931 12.40447237273883 0.8087489840229103 0.23837674427482813 0.9969933304177215
Ni 5.606411338746632 1.346737891895794 8.107309007345055 -1.2932885442758886 -0.4722867110275544 0.5960423908206768
Ni 3.4011559891186507 4.353850074888847 5.113931575832508 -0.825019953268792 0.7665903483769895 -0.19821019935827153
Ni 8.426455889827208 5.170016464161168 5.255559846457479 0.00954239227279647 0.12504148848408142 -1.8381107034690085
Ni 6.4186649588255635 8.79904467820906 8.924800148472851 -1.159248451837623 -0.437717200582801 -0.35468265265812465
Ni 8.773537149515018 5.378455268763246 9.809348700681625 -0.2672453476800623 -1.598452007157963 -3.438418789999104
Ni 1.3588581602781709 6.7287426012844715 8.853052072418372 0.582698622523919 0.27326018641557454 1.087798266316436
Ni 8.072294381122791 3.222212011341019 13.227772112895384 -1.2869150366493771 1.9143176869488905 1.4350658574574124
Ni 5.718102266983618 2.2430787851640694 1.970500377365227 2.4181063252394677 1.266505876865406 0.041811279608831214
Ni 6.751688197768557 7.665776294163987 3.6193366574005537 0.7855059543345697 2.0633280275437436 -4.345357432420575
Ni 2.288681178501299 6.355781168217536 11.525677454467763 -0.6655454799178216 -0.21627245617662108 -1.2462880071566342
Ni 1.3656775580152194 8.246077230012 3.7262353749873514 -0.14671665946466989 -0.37865973229901234 -1.3255216932779816
Ni 4.137045397106619 0.9321799958562883 1.384546421644479 -0.5280734789798712 0.6790687112152368 -1.9097719765597365
Ni 6.895808529725031 6.883977060973595 12.846208177273269 0.5601101957004417 0.6089950943266028 -1.0329931455510983
Ni 8.4990843389502 2.4790932964624095 2.527153281497772 -1.5825091106754616 1.6177779611800849 -0.2890110214919281
Ni 9.147858735682512 0.3511514712606459 2.4442109591033514 0.3331193246650521 -2.0253091250978086 -2.1416741688538146
P 7.414092073857838 3.199350259911078 4.497885630179464 1.8226385759753385 -0.5591069512469081 -1.238999186804705
P 6.774372942973082 2.842664083465213 10.567254888276103 0.07840501957246497 0.7423816123412699 0.36009122526820564
P 3.5612534619481275 1.1973166892939908 8.823723072478789 -0.08264502579574154 0.5770311398254966 0.4313632333403152
P 3.8020191929812963 2.1746425887482803 13.08189010319017 0.41238926334097364 0.16389677078838227 -0.03253911027828589
P 2.411495550588061 7.749360497028466 13.613194784231549 0.5888152769446182 -0.5482463543833204 -4.523186239909016
P 6.814208659808627 6.875499394387919 5.364326445528263 -0.11061091488104821 -1.2796311013934543 3.2253874664675997
P 6.830614342069477 0.4668669620965456 2.5644177500062333 -0.472234003412748 -0.42082376726157206 0.00496351465286242
P 1.6524183270707025 8.612852761306533 10.03316841466057 0.87940135623315 -0.7635590177498334 3.255051054970304
Ni 6.065006520446012 4.542352388838899 5.500282132434533 -0.6835447447087196 2.084934807180242 1.3332833395012715
Ni 6.413475881585762 6.179762451217818 7.3674835398708804 -0.9643197514441005 0.7688878861619146 1.0808082081518482
Ni 3.806248710157007 5.106079952317775 1.010823861808258 1.0220104212873495 0.5709458528633651 -0.8919622236172959
Ni 5.582534130549836 4.26448056328843 13.186661951236848 -0.17598275541863886 0.07544979359888296 -0.413213816124798
Ni 1.374127276249513 6.039471043400589 5.145278446741825 0.11965297047865844 1.47796188548999 -1.6598445513328317
Ni 4.7369474433900844 6.8791047317161125 4.409761683438942 0.5624362727304572 -0.15472487448112707 1.0311396372821273
Ni 4.054830663459826 -0.03511337706381044 12.938817834410498 -0.03601087087697023 1.045670998129083 -0.2751018676100036
Ni 0.8790026676830013 1.3700747652992178 4.40816676418678 1.2510851714349616 0.3355081366122028 1.3872603079383592
Ni 1.534848928926507 5.44807461205418 13.409963689103527 1.2133547467637233 0.608685533505984 0.4392313232344823
Ni 3.3026380504994055 8.349514078474364 8.74416250060151 -1.0788803950015162 2.233053489198761 -0.09005520221688361
Ni 6.514388062306674 3.355711969772582 8.003846073754737 0.7677033789355101 1.206905905814586 -1.1436639671358046
Ni 7.864684710945026 1.7763599493298452 9.062159774230178 0.663744679263657 -0.3797185125808299 -0.22825096869473593
Ni 1.613775073227428 0.5304382821485553 11.884320947122035 0.6530571176428237 -1.0333916665410976 -1.5264523768912097
Ni 2.2069788312964973 0.7433413700779475 6.98571464967197 0.986652610613346 1.6585757119227371 0.1016724747408378
Ni 4.651155320766478 2.1745680598112633 10.784434073966843 -1.1790341191049825 -0.6066273654253745 -1.5964354909485667
Ni 1.5746194329421623 2.7352026724039376 13.169468125467043 -0.1448135289046861 -0.10998433704064284 0.8016756221158968
Ni 3.3164538521989178 3.352348851489693 9.1211587439962 -0.5853576574133209 -0.48764776686465694 0.15028406510095407
Ni 3.889180784822588 7.884910001227994 11.14756327701782 1.181443242767107 0.2917271348715105 -0.9438429716469875
Ni 8.83821895072858 1.6779351718818714 11.922499326720667 0.2533518775274217 -0.1749795109651051 -2.1883612884977084
Ni 3.2638177904307164 1.8619378012595267 4.39466771046959 -2.145301481193757 -0.6112694921830764 2.000314402825684
Ni 4.819888834172792 7.07908450196677 13.528357563613474 -1.5188056589792296 -0.27969205808384734 0.9221873410504247
Ni 7.304329581866166 4.8372633926148625 2.88552381192022 0.8533128866762142 -0.7075146252607557 0.571055638968352
Ni 8.881091721747564 2.9025853488268187 6.1611600285383945 -1.2111232863300432 -0.5501368865378138 0.33680602948801996
Ni 9.130437596654806 6.599937965884975 7.094904200460325 -0.5836172776834465 0.8165887917823033 0.10269808779187474
P 8.931976353495868 1.4572922538432718 0.39792583213246663 0.6785961424541926 -0.17211478782280035 1.7605286940184712
P 4.06573052049855 5.528901244249032 7.0980679538366935 0.6076892310309856 -0.44297639209921136 -0.04573529725358575
P 8.867462242390594 6.290829199607287 13.112133014219925 0.5792988528137507 -0.43294986110114475 -0.09062084491236652
P 3.023583078073793 6.022692716454653 3.6665814821872935 -0.9646329118091451 -0.27323936047996816 0.34632682449426155
P 8.027195058110427 7.5104114088350835 8.758588507972847 0.8727339715153035 -0.14414067120737756 0.7021289354688102
P 2.0178150730304205 4.416938820073672 1.635200279396368 -1.4203084966425796 -1.9707451738089994 0.7818380185646794
P 2.805753627407582 0.2293767778452704 2.7262116877645584 -1.200691035253126 -0.19478703260933553 1.775825986497174
P 4.572387550456718 5.778442757615943 11.62361872543684 0.7108182357126919 -0.35997989650132195 -0.43128275781136693
