# total energy = -340888.63935095427 ev
CRYSTAL
PRIMVEC
9.08787526993246 0.00000000000000 0.00000000000000

0.00000000000000 9.08787526993246 0.00000000000000

0.00000000000000 0.00000000000000 13.30102407406106

PRIMCOORD
 96 1
Ni 6.803946651042457 2.0526783396879855 11.011319271898781 -0.08751649495542992 1.7310088301824833 1.6438116662396849
Ni 4.987789347652871 0.30502180334684403 5.821751834299958 -0.22976663400831399 1.6506227756242478 -0.6259355788356832
Ni 2.92406015189254 1.7479437131930216 4.5376041896182056 0.10528153224833481 0.30306415715088453 2.197524185943899
Ni 3.4943697512511074 4.281625104029923 4.455843304070453 -1.2507375582875557 0.8696211369179345 1.0863214246605937
Ni 3.817189249114465 2.79897463957366 2.500911422159871 -1.36264045250715 0.6090691420976478 -1.2797110627017703
Ni 5.244312796957217 4.711108991466566 2.733679166058699 0.4690540630228696 1.029613173335272 -0.5425837567809042
Ni 5.391263736669241 3.4400424341454503 0.3759244957735129 -0.33355075577551585 0.19201924005621124 -1.2622285896462906
Ni 5.749953077392423 8.091198713844532 12.247582902892058 0.2756250871033253 -0.4877066451270503 0.9271631969984614
Ni 2.152017901963318 6.756962336984871 0.36453738832396654 -0.3172905851629116 -0.37682627863469936 0.3300990497814896
Ni 0.7029244161642381 0.5896295129475461 0.6469376530727172 -1.0180552932943434 -0.04185935923794726 -0.3470127948176927
Ni 8.101404397536344 9.379050576400534 6.76488696403675 1.6052934555598288 -0.058645834667666735 0.8615136773194517
Ni 8.548927716966084 2.694591306640308 1.3557864549882397 1.0783011254592785 -1.1190811355901178 -0.27316556981923923
Ni 7.025045563364894 0.9786278257816475 4.756631975214585 -0.31683524279304787 0.33005636946901223 -1.6186912170229737
Ni 0.8823717795140013 7.7877000383576584 2.2705646881768917 -1.2227598421277073 -1.3712803875703352 1.2839189301355307
Ni 7.952863079688909 4.006089820101114 3.413095975806544 0.16625575793886208 -0.36455234636335276 1.5967635637119468
Ni 7.945156561638458 4.387616990848805 12.385022472566815 1.0251155425752345 -1.0016513980150235 0.46508890772753453
Ni 8.251926872146749 7.467470584886257 9.002279090671475 -0.20869618649125993 0.2797879602317633 -0.5298323706525068
Ni 6.976979792175229 0.7874271136174402 0.34639344576768605 -0.14383188171770714 1.6871656077452881 -1.5351434769073047
Ni 2.0887117642988806 6.848604469084812 8.928750911140119 0.39902209800544824 0.15320843783660065 0.5123462980526015
Ni 0.44203878683133424 5.05645733160241 1.1238647922574503 -0.2909390917525764 -0.31002927561480803 -0.2810660556132385
Ni 6.5641448918475795 2.153199325721052 6.833586755548998 -0.10908573648577341 0.7985545599884118 -0.16924569380512142
Ni 3.1538107212716167 4.393896712514916 -0.0741388847353548 1.147233686764934 -0.7801444329123403 1.9084270324960682
Ni 6.434051960370918 5.884380925272463 4.703375209790936 -0.03777516186624462 0.903773100209295 -0.5498188410767627
Ni 5.806125233135157 3.475148895500277 8.76399137146151 -0.3630096844665813 -1.2290148218984835 0.696144435750601
P 0.4929463365521036 6.145093884979236 12.400863547583018 -0.9542759940548533 -1.173941020852791 0.08344412465826918
P 4.234522647596564 6.307167048790258 12.650563820292696 0.036014470421396036 0.017979210186240005 0.22653450022426147
P 2.4895052301726994 8.688980959507951 1.4227041142013204 2.87991990464984 0.21416389447405051 -1.157321152907923
P 6.877567526899421 8.015478538848825 5.715609088755087 -1.1835600319997939 -1.0228254609894771 -0.9246900528676204
P 5.131105137341096 1.5221463694648252 12.516050546387097 0.059014016640362876 -0.3682467644958045 1.9885829733213687
P 4.100558281344558 6.285410675897829 8.116297607183842 0.202763880167225 0.03853775106388201 -0.28777714908482693
P 4.799615806670981 1.3419519827851714 3.697977230446536 2.3048080933342434 -1.0543898660593198 -0.032163986327054285
P 0.6321698561010389 5.818939136969044 3.375546693635725 -1.9184155111673475 -0.8295594930103584 -1.7133980590792557
Ni 0.7638304460254631 0.3240954355217108 4.834735899838398 0.3048963252636168 0.3234020973772882 -0.01666743335335194
Ni 2.0147546370647156 6.749355785560074 4.532949380012733 1.5780207358868048 0.9402963919463097 1.4475210525016295
Ni 6.130453318258391 5.773590640422167 9.127534546253969 -0.20820639133903496 1.7730898185129336 0.046982796507441665
Ni 0.05542331483783215 2.8278559065127333 10.289618397074122 -0.1374205788747246 -1.2652565778393372 -0.424734672280204
Ni 2.4522903818040707 5.551791961720149 6.763184805038107 -0.12956225917257042 -0.4942408467011424 -0.23376007143842323
Ni 0.9202200527742774 0.1914070069280578 9.260730987063448 -0.030095790944115915 0.7656179571613911 -1.6740987472590008
Ni 1.11319199178758 0.7087206628771835 11.658200580146131 0.973680366723394 0.6980573365025978 -0.41048124768498334
Ni 4.220409177629169 6.793677352225228 1.704925347811399 0.55648751134619 0.8369372735316682 -0.41091165035418264
Ni 5.988182634202007 8.385991205024409 7.7500680565238 0.0789413516919092 -1.2984700884768283 1.2050616535169956
Ni 5.520202508013346 3.3833795331495033 4.798250807837046 1.363649867608271 -1.4947645588696257 -0.13628877926312657
Ni 0.8450006196943487 7.784564721462134 6.775820586520828 0.8306918068425887 0.5028265314876244 -0.24102678030316552
Ni 5.24875676786131 4.918585179074821 6.665595567499232 -0.8506299405274125 -0.5463699632962139 0.6920365842298145
Ni 0.6653696812683837 7.679254425272713 10.881075481696133 0.8198942020064524 -1.7584401869205586 0.7395641974971328
Ni 4.7726702571195805 0.5978649453264598 10.65858885085211 -0.38370655069430043 -0.8750639052000607 -1.6575094754417519
Ni 8.708492627260686 7.504203775876733 4.565430354262872 -1.4508997391658753 -0.9701651544812838 -0.28347620771662796
Ni 7.262648056795374 6.198130723826446 7.046177599240737 1.4774787752059846 0.31648762964564203 -0.5815421403219726
Ni 2.500910513372365 5.235561173274924 2.409613720524685 0.48471362393699746 -0.1437812309854298 -0.04548050093030232
Ni 2.432560605049908 5.638644783663736 11.51014728118939 -1.1053421887374706 0.7499810219550825 -1.5275183562618788
Ni 1.2763193491055036 3.323999357510767 3.430427462332505 -0.5875420666591494 0.5176779946781601 0.9681609795670617
Ni 1.7243788531637525 1.0776402245548382 2.7347033695779044 -0.5158026320323181 0.27678928261475555 -0.7687575312316373
Ni 1.5848981467506336 3.3563885442228045 8.081409254830445 -0.2598058606828816 1.3891778366760463 1.2218363018721732
Ni 4.065351853364077 2.5648073629156696 7.045379683810513 -0.33598199092482783 0.7417223814907161 -1.1213915288908494
Ni 4.3230385506760385 7.195824911482912 5.987615550798295 -0.11174477137517529 -1.0132321608740873 0.4543452960577853
Ni 8.105857456315496 7.612767531337452 -0.09149127337395327 1.8438933715890566 0.5346117943190212 0.17843481650355722
P 0.4101648826351697 5.962200399406913 7.702861998314762 -0.3657232267430024 -0.9777555652340323 0.9703158211265355
P 8.989226175723525 1.8744832855214206 8.163476401767703 1.3544484036146611 -0.488593675717694 -0.988752430565168
P 2.257818943405951 3.611666954644001 10.323882412410933 -0.322483956438393 -0.6340749201133661 0.625774884888103
P 4.237594349366673 6.349471107192205 4.017840442553041 0.41363470571230054 -1.1761053754939617 -1.6537572074881712
P 7.472650673670169 4.338578817027774 10.096647366848325 -0.6719871217781072 -0.2727883889854786 0.707117389822337
P 6.275995637336194 7.97872717210823 10.111172517555914 0.7785585764824592 -0.501757981013794 -1.0252950055758923
P 2.78226203733925 8.85088145369284 5.641270270768424 -1.2555030979969992 -0.24962300661260878 0.20165547759439464
P 7.218826323258493 4.314913990372851 1.4255767915076265 -1.1705980725224872 0.9471951759486719 -0.5821990571796812
Ni 3.0246084015507857 1.6296377556685242 0.007303016397809648 -0.04204833532030178 1.4595173056315573 0.7033319546379757
Ni 1.6887180314302968 1.4297681194850653 6.778560580851265 1.122076470773016 -1.7622143092510105 1.1593754643337906
Ni 7.2892664428446325 1.072914529523901 9.013172726505292 -0.7855087825480472 -0.7913937805739145 0.10531264259658636
Ni 3.153983390897747 1.8200650896651684 9.168090097494467 -0.5043090295704218 -0.48140127173431285 0.8119276388612082
Ni 6.138668757312175 2.477118456466609 2.2669468051157073 1.4422461772559354 -1.684594504584002 1.5695803184289354
Ni 4.206822804415225 7.108363201910339 10.335347675585993 0.6379151197950627 0.6451892848589726 0.2027800781171411
Ni 7.514436723193724 6.46366934518981 11.242477553124573 0.6095987893488727 -0.24966183027034422 -0.856409523323667
Ni 8.151205952862373 3.8289853109416887 7.978925287784527 -0.05303465912847641 1.3542373160451193 -0.31875817084737357
Ni 3.404436139662351 8.52057354678046 12.689961576250617 0.006556827281911288 -0.40655363049580306 -1.0951055986111269
Ni 0.5577955954016434 5.12655211193629 9.934455151874024 -0.6166006745880025 0.8775866716219144 -0.205593122085904
Ni 9.063301445333462 2.4785906922262466 5.760753108113126 -1.900749204235836 1.2425316254379957 -0.7319264784462168
Ni 4.420296989562748 2.9838947212842513 11.101167457461978 -0.8565614755204991 -0.7402797355069186 0.49169159791672734
Ni 1.2450116195255454 3.25744884845009 12.40331091233654 0.3322886012336406 0.3240785546190225 0.0865037374201994
Ni 3.231039483527199 8.789483769790898 7.748165964273847 0.7136431067559967 -0.3192726485899469 0.7065831145854218
Ni 5.938653715127763 7.96722192228291 3.3925855505847706 0.41021899516253224 0.23159108881156243 0.34731027145345345
Ni 3.566372985347481 8.412700469824264 3.581899619886627 -0.42583330466102143 1.0257138382808657 -0.16866796692478048
Ni 3.9466187657117837 4.820681501058889 9.93195416865765 -0.05693116596940518 0.5411650220565066 -2.179806456949162
Ni 5.731113912394091 4.900418516830892 11.548534465440694 -0.6344762693168428 -0.03661996521587887 -0.537050742777817
Ni 7.986306459907849 9.170665601286329 2.35341702751929 0.4125309311251605 -0.6703989513553809 0.7831107146295159
Ni 4.730938734846382 0.27989019365731843 1.3973925645856167 0.01433441434480112 0.2864437749853841 0.29506828342960145
Ni 6.283275025258848 5.9013207243833605 0.30776997676483514 -0.47349924327841675 0.7899627045543428 0.4640584095804911
Ni 7.874053027172974 9.043144538451504 11.145726217666184 0.23888042338412407 0.26664190976810853 0.38069938843686046
Ni 0.4436482495043707 4.878035080559358 5.289896669468135 -0.5553454273219468 0.4573061784583221 1.3881241986005513
Ni 7.705927338572329 6.294734835708871 2.434193696198099 -0.14695165829361145 0.5559650631838167 -0.064904671093185
P 8.669360237254502 1.6850647056563801 3.48252734126108 0.5848748042396313 1.6230785474573919 0.5432969807978449
P 1.8473287148436517 3.1389338697992244 1.414550472697942 0.7033219273356467 0.013217012910906269 -1.706070929290223
P 5.136039853498402 1.2042979392590107 8.362180972368535 -0.47101170096987266 0.8509556992979473 -0.24156414086387432
P 8.619740439429663 1.9581462633191253 12.47722441777042 -1.2719383607348869 -0.5261868034801196 -0.47637476505399895
P 6.5547934684113605 7.97422867395378 1.2338480738024624 -1.846649594177955 -1.039528632676771 1.2391282561834014
P 2.069799896300073 3.430209353331077 5.958299883431378 0.6642491297039012 0.18329163037522625 -0.9930217473644833
P 7.324900000952909 4.255252090607271 5.804739332188584 0.0062984314142020565 -1.0844195796521905 0.4274124762226833
P 2.706314665467056 8.688017644751644 10.455589350498162 -0.628498454466853 0.6921746524695757 -0.483097171379497
