# total energy = -381175.5283995314 ev
CRYSTAL
PRIMVEC
9.13979895473819 0.00000000000000 0.00000000000000
0.00000000000000 9.13979895473819 0.00000000000000
0.00000000000000 0.00000000000000 13.37701963529041
PRIMCOORD
 96 1
Ni 1.401231722270958 3.692917500506396 4.010591321806342 0.3936772887537672 -1.4193340485444523 0.08018730828386836
Ni 8.972001415957012 8.732301047762439 1.8109277816969405 2.4577331956024704 -1.0280108618451584 -0.5672750888799973
Ni 5.601170431700778 6.3124844275488226 1.3384778624362925 0.32751534821471334 -0.21665092256196236 1.1827010264336082
Ni 7.729911873622144 2.5162140801140267 4.905701191374052 -1.716326031359328 -0.15839486713354656 -1.1604576416543757
Ni 6.046927568024179 0.28181290600031184 6.985546536682617 1.5363860910651541 -0.8498742933083104 -2.549133856103655
Ni 4.592876947415829 7.886376092455473 5.455322089389145 -0.0629963983268786 2.2213048333032646 0.24925919551528683
Ni 1.0177074772400474 1.421969926169131 7.598816080853059 -0.32382144430289395 0.3248344589484406 -0.4067886293247446
Ni 1.3175020237644957 3.167333359843355 12.851021675447022 1.10975600153445 0.4376413530395431 -2.2374490471632953
Ni 1.6227530302833069 8.299129414642117 10.983456387396533 0.23868116288912442 -0.21866203945472018 -0.41606131287592213
Ni 0.7459675437016907 4.833354198524172 10.600605745550856 -0.9477811303591288 -1.0715123846722192 -0.21385664764627688
Ni 5.0370254791177755 5.773090050618642 5.898850942719872 0.5020950526382385 -1.566262309799296 0.648232956781303
Ni 3.766227828169351 0.7714154860171086 6.8102141168235555 0.4854340470427897 2.8297862212182423 -0.5450070215104162
Ni 8.853174889346105 3.6495308747220734 2.2727956416921393 0.10254356449188147 0.6106783955662967 0.46682980167804117
Ni 2.9877911485715565 0.8547284096898307 11.759443600866206 0.7237498561726955 -0.3113757623403734 0.22992501396304918
Ni 8.502654458451952 5.914034890774538 7.031910908976426 -0.1406948787506222 1.0595819517832203 0.34211844283986886
Ni 2.1223253030335223 7.047397384377511 9.055519985106908 0.7030799865281697 -0.34103729396054816 0.01057366175078824
Ni 6.31672529427811 4.200139785007502 12.580203947626305 -0.03212027757331242 1.5461483126582403 1.0352593158774557
Ni 4.19032364089704 4.000435177173619 1.0784487533380986 1.1581978990859214 -1.094797837562721 -0.652181914126722
Ni 8.497819504788605 0.4795725646100735 5.984731235927631 -0.042576697019946035 -0.7340365828106842 -0.12693202063857495
Ni 3.0610283578426274 4.775764325116333 9.424445229218229 -1.0739171374589698 -0.9582753450222337 1.3783118404958197
Ni 4.746791162332195 6.776831915008796 9.090848964105586 -2.0830666436232517 -0.3317080461398223 -2.734896059506561
Ni 8.815811391093249 4.8314439805361955 13.388122876811732 -1.2892418850103409 -2.258736752897478 1.5485216979864234
Ni 8.780467788416194 2.746628412539298 9.632885656922483 -0.6487530909508311 1.5574182291451049 -0.6828042669982693
Ni 7.313429513449404 0.6168596572119586 0.3346875571115153 -0.795999654777042 0.3311508880847716 -0.7217549372298538
P 3.318423376873191 2.1979662794377886 -0.07522785749012009 -1.3682835097255404 0.8960353652454053 3.0882453380652426
Ni 5.221722537017414 2.3859353853742475 5.922768882685113 0.07807771814003328 1.117912054982681 -1.4073514222612795
P 5.930322012566757 4.105908457466663 4.614082195042163 -0.429131515796319 -0.5300948802852742 0.5427344234261556
Ni 6.6372123457058025 4.396736861186303 2.612732185361046 -0.6818401033127869 -0.7445590796085629 -0.8282999095716445
P 6.1658272130269705 6.803565827041479 7.53583738196335 1.3486176558654968 -0.6390739159898542 -0.4726291819686376
P 4.097828875163453 2.783196748280414 9.620605423005522 0.232497916896548 -0.31766159534908517 -0.5616510578250005
P 3.239674868813844 8.161474902121013 7.513457670167375 -1.1702324616529522 -3.245406332791688 0.5735051289501091
Ni 1.12625172999223 4.769275067836604 8.08273004998126 -0.28185049918774685 -0.10921377742320545 -0.0264651361700641
Ni 0.22771169386524992 1.903646472505674 0.83918161161544 -0.5306080724762668 -1.721140936249468 0.10315522993395139
Ni 7.194685245029367 5.284247901877442 9.437929174661583 1.0760480677590436 -0.46209691497874605 -0.15871342681522987
Ni 2.466758627803311 0.3149391934434755 1.247277292239056 0.8432704148385477 1.1962810791108882 -1.0141868114778727
Ni 7.862996486650482 1.378537601389881 2.5911558618958996 -0.7366123139576605 2.454382533962683 0.15029023574854117
Ni 3.5156967981769225 3.6591276636568826 11.59098705178396 0.3844377724333702 0.1822603608972345 0.925173420261942
Ni 5.194659592221253 1.3023390972474975 1.892179680698425 -0.023822813451210584 0.2546577408230388 -1.4007699123890198
Ni 4.799655759664514 8.408295173725316 0.31486516107169266 0.10939195487228258 0.6488698190343535 -0.1731666261260824
Ni 6.0333458267316775 6.800522273979297 12.350226497592542 0.9129910192631373 0.6717773197601462 -1.0548858318591317
Ni 4.940079631278234 5.34507326412616 10.747378121539926 0.8779209150328816 -0.5652022655113687 1.3880648061175256
Ni 2.659434730217319 7.5654777500734305 13.032963083952524 -0.4156964733373357 0.8520628163191971 0.0983279837486371
Ni 7.790792074664775 8.180577082000775 8.12613769730325 -0.985128974879968 -0.11581097102474894 0.2229598954991257
Ni 8.103501157155781 6.5022449340864465 2.8817173834851633 1.6933876773955998 0.1475448117929201 -0.9056633752534725
Ni 5.250896775379235 2.0699816742433783 12.667743114349937 1.7316937720646501 -1.2196531781779252 -0.3510656247308276
Ni 7.89139384209853 2.4274574921655216 12.156165715632225 1.0205747172820874 0.20494648964084058 0.006671498482904639
Ni 2.0675687673111978 5.160303087834637 0.39367764772393854 -0.20038663818430005 0.5997828316997154 0.07426065838678825
Ni 6.982075241027912 7.642663352506252 5.606268611574908 1.0473211321379963 -0.07090254054783274 0.28581565448308194
Ni 7.226226691328439 0.919692272919198 9.528277001613471 -0.37896029425856675 -0.13596584870606906 0.18189397869675125
Ni 3.9391528249756242 2.6142018650379195 3.422872085699957 0.18318312982182 -0.23937021853634904 1.1357799364020373
Ni 3.125518779484544 6.846925033428845 1.7907946324916098 2.1453058520691313 -0.11685303913601812 0.16458916886971653
Ni 6.085396981954284 6.297979566558783 3.940669117627324 -0.8272521850334205 -0.11723536217610131 -0.9810434919566846
Ni 0.37252084103222816 3.293517424637615 5.9632746438291955 1.209846990720781 0.22974092297670112 2.695867484849189
Ni 2.0978306417522954 3.203261909655483 1.8215217227010712 0.23229017176111608 -0.4503760269973921 -0.49949541023186234
Ni 1.5055168286958827 5.639347372063346 3.0133204350979454 -1.8453532439640348 0.39786278759002447 -1.0143045680026594
Ni 7.927313252111673 0.011349802380234135 11.469509983467248 1.7365811820639385 -1.4971651978913183 0.5416460754579833
P 7.8100222117303355 2.233547516888466 7.140907581778393 0.4371546432111117 -0.024559177396602863 0.5366128839094501
Ni 3.4621192965237317 0.35408312453871366 3.71114682958304 1.413235134735566 -0.10649329316824886 0.1364687564844166
P 7.068464621039164 2.8876555108860633 0.9280798664482209 -0.04321561615552557 -0.22261793877867467 -0.38954578308389687
Ni 5.190893995039215 4.398775036360077 8.540210806463403 0.08037139927021643 -0.1865872704073625 -1.0443983020642464
P 4.983658192841252 7.964877825942211 3.1125110175683344 -1.519964455174021 0.24147492358417766 -0.09579750401729954
P 0.7448077032104267 1.3340085007323672 11.719219345530878 -0.6097299156100984 0.48325220890012255 -0.23498725897730496
P 2.515089884838806 1.9347583482524264 5.109727096168295 0.1340472915271175 0.669079461213009 0.2727973878465431
Ni 0.37934095903523246 7.258919752299688 5.114623286484845 -1.1531755061706657 1.4811659942495845 -1.2094641534600654
Ni 4.196493005212274 5.769424991225444 12.985835538443421 -0.709172986799785 -0.09332410277614249 -0.27194969513426714
Ni 3.728818630921567 4.7931665023847865 3.1981107189472366 0.7935136551303947 1.4905389508240523 0.011880810597985991
Ni 3.134430083495438 4.225521006790325 5.5573761708817 0.016365842952533103 0.05719084738869505 -1.0447867957519166
Ni 6.399842626252541 3.1684209959226335 10.474768079138148 -1.0807691273837967 -0.31201108193152716 -0.9797093465262934
Ni 0.37553149081806253 0.59582806576635 9.67847406028242 0.2609754555109506 -1.4215575385583323 -0.6644203651744428
Ni 0.3315142189037385 6.60761767659065 12.322255056777218 3.0741767757873184 1.4491853275779298 -1.171621628690995
Ni 2.8070150644367113 2.9946094386147637 7.435870830559089 0.6311006679763905 -0.22846179915396136 1.2614099503997371
Ni 1.1819131058141226 1.3397208750983247 3.1169255404783467 -0.14945539855207166 0.34175051797748884 1.0343815412581927
Ni 4.261705470974048 7.9641100828274265 10.963177001407434 -0.826209602701519 0.28743853479848563 1.3494388662152115
Ni 0.5876543435335884 8.76329410612238 12.977661816210661 -0.23256990778506398 1.1911180468527098 1.4773828730580685
Ni 7.787172714266505 7.139499138754721 0.3464459085064028 -0.036808684187917246 0.2995330040691745 0.9119301820987906
Ni 6.762985119545714 8.33222462676873 2.0626963404720104 -1.665319201294158 0.32587884105255494 1.215761299322687
Ni 3.3398379258962936 5.595330100149023 7.402548037437736 -0.9285477360508139 1.4527036251438337 -0.8735580100784955
Ni 6.870487435213547 4.326013096636254 6.706555086629139 -0.10089111649012303 -1.0881458794638421 0.09538509907022928
Ni 6.070645346391635 0.9441412352054971 3.9638650134727067 -0.8035381292459323 -1.2946152335071122 1.7881032612026302
Ni 2.9338114957630017 6.74032755786058 4.411941830778636 0.21713994638323894 -0.6248688281340659 1.3844457213076995
Ni 5.868116540671223 2.078920397651229 8.211603957616962 -1.1036984824864604 2.773484718413036 0.39903418219030634
Ni 6.587418720832623 7.4549501609413875 10.0585425473169 1.1562988822909956 1.2737831272531095 1.2775132837195031
Ni 0.7055751160650289 8.12107699060496 7.445956598739624 1.377976311533272 -0.37907136591513424 0.11053275334494511
Ni 2.842925334650868 0.3953145857222474 9.186775724358242 -1.134973124230026 0.6312857874040031 0.22100791397907743
Ni 9.046673573668812 7.0103811984861055 9.941453496493143 -0.5572449583375049 0.027172703760049977 -0.7153842578168197
Ni 8.310645561363888 4.802032107400753 4.536856377493805 -0.14443634807092542 0.8671994148503194 -0.06009079464430942
Ni 5.042326562529385 9.134735536894416 8.937935557178136 0.18808853754323737 -0.45054443425445634 0.9997045587012976
Ni 2.447839243903259 6.118574452271767 11.345826567675429 1.444010725355526 -0.8461706192044781 -0.7638415819872586
P 0.7499780874965424 6.743855520268995 1.2522575687062727 -0.15011411518199308 0.16076516713793604 -0.06322934027329111
Ni 1.8509006925601665 8.168768461711469 3.048248176921158 -2.9755726555591595 -0.41783460272626105 0.508872223461072
P 5.90764617128365 0.18840233240837362 11.403507839073125 -1.620943246281944 0.22329388179977672 0.1714380734707499
Ni 1.96314656390149 8.983252508508203 5.641704526221716 -0.2480302082041922 0.07175357569421836 -0.5448794947936164
P 8.302748775040389 8.915864770587872 3.8547083941884934 -0.12517492873815217 -1.097100774664285 1.5385347619770406
P 1.133408192597902 5.490697681362648 5.730046167296278 1.1989953927182577 -2.353244591569076 0.5078998322454736
P 7.824426534931535 5.67604366499026 11.607333582269584 -1.8372714953971647 -0.8323745938616504 -1.6539114736778484
Ni 1.9295760822276296 2.5183436532776557 10.222129411499655 -0.23645767287524436 0.2643243173785254 -0.9155706070648555
