# total energy = -381168.1469422633 ev
CRYSTAL
PRIMVEC
9.25866095596679 0.00000000000000 0.00000000000000

0.00000000000000 9.25866095596679 0.00000000000000

0.00000000000000 0.00000000000000 13.55098618884606

PRIMCOORD
 96 1
Ni 6.990270275968467 6.376161832152144 9.782334203382465 -0.3355508169246802 0.45917999844226726 -0.12709888523374238
Ni 0.520896877688582 1.1124558534836375 13.31225783290565 -0.6758910848182037 1.314263346755343 2.3831943438536314
Ni 3.6627446717920815 6.162620082842959 2.0767694330491904 -0.9931035084450122 0.613232272336402 0.5155285524353249
Ni 5.980631849040437 3.0574875075603742 10.2799946204293 -1.4398198272026301 -0.6045100619720557 -1.044061744660434
Ni 3.14109321326025 2.425917229751806 8.624769229329573 -0.3478147218936978 -0.5797878766350273 -0.45733960279941877
Ni 3.260242917208391 3.3347195835040506 10.87943641990463 0.2653609861731559 0.7954846628138365 0.1971449913185508
Ni 7.492395219182354 4.372708029352681 11.026978732612376 2.392825182075176 0.9614205755194345 0.9866472112967072
Ni 9.075839140102614 0.5242096264703556 11.39560675132967 -0.1458787369444068 1.833313282080365 -2.1308225708512913
Ni 1.787652940290856 1.7480814246583787 3.6053076445628727 0.9352220627471958 2.111929333491214 -1.834982442252672
Ni 4.986825731829658 2.60361870367182 12.437881031194742 -0.5703267312221274 -0.3163732155549648 0.5154179949993898
Ni 9.172508815984388 8.746147492896979 6.675499886271792 -0.31566513374434674 -0.5625589143512505 -0.9956761542681949
Ni 7.837493277715189 8.049498089355916 11.444918377969485 -1.9695748076499822 -1.0735690100909316 -0.3550096969802402
Ni 0.5312693552185456 5.602322974743987 5.599077814184982 -0.7531653332203351 0.25642974512179706 -1.094240165287038
Ni 5.5301331976297075 2.848149190187815 1.6500359118035157 -0.89871214074662 -0.24392158535245737 -2.616749755480416
Ni 6.96165175588892 0.6579741262598311 9.52215565449622 -0.7855038974520407 -0.9037939261449015 0.714771306823169
Ni 9.12159544105154 6.0595341551284045 1.9046722264226577 -2.9769469101988664 0.5830351799277314 0.7645954294341476
Ni 1.427926197925707 8.039072837460228 13.058569605137412 -1.06931074903521 -0.24181250942925453 1.7822763701082078
Ni 0.3810272170642782 3.546687360502164 7.029018696668861 0.19960168038915946 0.3690227234298806 -0.06289252575916265
Ni 8.324906209150878 6.3378587530291774 13.032498142603604 0.1523471182775699 -0.782149379157511 0.3588524677650981
Ni 6.01088915205563 6.486839861602457 12.169882617520665 -0.2964528224819539 0.7939008632664843 -0.25442325621472955
Ni 3.1238258111417263 1.3759388183570684 1.6406717024187036 0.138371115713452 0.7838262526393017 -0.17817333531205443
Ni 2.7224721304790527 6.577491408059544 4.339961072487799 0.7330837319791117 1.2440004966740381 -0.0036471098342840415
Ni 2.8053464019873138 3.922644534992661 4.649234595354572 -0.4641196018357297 2.492704312361017 -1.0979695504224833
Ni 7.40857656428745 3.9072288650048095 8.426869987194246 0.026614003043102553 -1.3522156576294002 1.3870800736067532
P 1.2162917327111142 8.22943090049339 10.974685817242177 0.2139342949617477 -1.3210621148447312 -2.2380085192111907
Ni 3.5045882305113185 3.9998062128777954 -0.04433139307437188 -0.5906088785099313 0.3325871063106659 -0.09748594746331599
P 0.34229916541732225 5.029758141279307 11.853101246730079 1.1291529180038231 -1.5809492223875095 1.284567362352807
Ni 5.454712147947405 0.34890984912382406 12.34658785955438 -0.41716868700748805 -1.929750990784825 -0.098633687914514
P 4.831826493831692 4.756257305578936 11.999885275130316 -0.9479999312381544 0.3752144540628893 -1.0742657790476402
P 9.292917697781387 1.698482779538308 6.130710108901139 -0.25762273698863375 -1.8362813635697535 -0.6284426615282531
P 3.4874411909812886 0.31089378848111177 6.795616194392144 1.8174904561154959 -0.2666650496965601 -0.7573222928115021
Ni 1.0213506326545363 3.1668045138946415 9.249957512349777 0.025279343392079042 0.7840895336030173 1.8590839632865659
Ni 3.7159356772456573 8.460601139686581 8.921522265394803 2.742124716044516 1.8280468914751034 0.34744216904562747
Ni 2.166230315746254 0.8745962319683912 10.432755114281283 -0.5251370220593666 0.2158510523684863 -1.014798991140575
Ni 3.8734254949593776 0.2716787312837888 4.448720707450734 1.461915887770721 -0.29353179218041703 1.7925589829811388
Ni 3.192099174799632 3.686233893869666 2.19019172951716 -1.213042357729627 0.9654006432131053 -0.1527736642920272
Ni 7.456341994598155 7.1478063869854545 5.341730563726536 -0.6066515337950906 0.23285504312565058 1.0813766790608088
Ni 3.295259171799413 8.330720648041192 11.81794981569352 1.7883608857393911 -0.29057270955209313 -2.6174164425301374
Ni 5.292713362495496 0.5497098296418506 2.4200296474423317 -0.5125967235005108 -0.11113541992595054 0.10164804926080558
Ni 6.382189220237484 9.2665305149193 4.592320682452279 0.7804529652916945 0.3194839932698046 0.14123018242880195
Ni 7.410132019277215 3.063292687790033 5.59773623425631 0.14374677820306855 -1.3717149040045924 1.5458649770898665
Ni 7.632719480044738 4.958216470410764 4.143525624601768 0.7223810008496269 1.3575856636920618 -1.023157133297283
Ni 1.6894926200438916 9.44975940924937 5.025288059915862 -1.3517729136650267 -2.0470771129025196 2.120975759964199
Ni 3.8165588012264164 4.122770485015122 6.82363938259168 0.23220609668774206 0.4591527447487576 0.15263970981732422
Ni 1.2446417516317143 2.6440420160844074 11.801268486794353 -0.25393937459977556 1.649740373019294 -0.807466517766061
Ni 3.2067371172926005 8.580473019165684 2.572492012421276 -1.169327690450496 -2.1504668274447805 -0.016699057922235756
Ni -0.14167695118384036 1.4489063229662296 8.342014362306166 -0.08760365535259752 -0.40866322063963817 -0.11902510708667242
Ni 7.475961096522633 9.090477082595584 2.3237636491650457 0.9204487610927631 0.11895543019100156 1.680909599533247
Ni 5.39780841957183 1.9614935527184174 5.722039308724113 -0.9660416192312138 -0.07155302964763807 0.6923690278685688
Ni 7.969438450686279 2.3328306555428853 1.6343841459690043 -0.9949631873615704 -1.7318968892143913 -0.4053922631978502
Ni 1.5015881020838704 5.233735694133568 3.2028836627286705 0.05503626293953748 0.22827565128508426 0.3770977871285312
Ni 0.939300381944425 0.1740026389889952 1.8402513914626166 -0.7241182952557077 -0.325017264383208 1.1147434274467123
Ni 7.247290695705851 0.921627450489284 7.087287151624742 0.00015272352778038212 0.4988130394528571 -1.1390341816732772
Ni 6.693400580779006 2.9971302987610944 3.4794731876230034 0.5968299197189786 -1.4876094358820833 0.8711352595696158
Ni 0.08496950641411688 5.375578375343103 8.48100630190053 -0.6913837811371641 -0.6366007718590133 -2.407680244810137
Ni 6.553983668660652 4.228235888517591 -0.20365257386532787 0.17466429371753145 0.8931210198120876 1.191094649813942
P 7.0443315955234596 5.2838806002321865 1.7834448790239021 -0.29013485068372613 0.15621817119720194 -0.17256704486887053
Ni 7.096726356160846 5.073505312866451 6.546467487942252 0.8398099670937729 0.6248276904834852 -1.3897625055349228
P 7.699641079247253 6.812226231604279 7.790760188067335 0.03702259997093624 0.5942660156465444 -1.1313419552353419
Ni 8.696678469026056 8.41154875554506 8.96159189697043 0.5813647342038439 -1.0412713263994906 0.5344477579373312
P 1.717101946112223 2.867092409884598 0.6760461059891322 -0.11578320311060705 -0.4585534206018618 -0.8543737238405608
P 5.546196973863294 8.447231633703124 10.517895905917486 -0.3317707810569577 -1.4772463474802042 -0.6922605273151626
P 5.157675796866183 4.317517153197979 8.545048457639849 0.42698618731854204 -0.48781360301855986 0.8098846402892503
Ni 5.437500297792802 7.5090978430010225 3.266464737167451 -0.1172901266734367 -0.37819899061250994 -0.2974082444166878
Ni 6.596240195882605 7.408400649735036 0.9464443645045606 -1.5083361269064732 -1.692576494348214 0.4443686444610476
Ni 4.5996840952698985 6.305601579312858 9.742196983584067 0.08728252456775291 0.51745816535787 1.5315267060903237
Ni 7.124687511334005 1.9156539238236125 12.400398269405663 2.6458708412160883 0.4575347495293604 -0.7506988739577136
Ni 3.4157606402029446 6.49400606494816 13.431249213756617 1.411405537725995 0.0221996760254908 -1.5461480555479243
Ni 9.286251462110965 6.318091512534245 10.2912688915069 0.7369972081009049 2.4496905278036523 2.716686992697702
Ni 4.442416485411859 1.309146840403701 10.439259323390269 -0.09847607929072717 -1.4118166571214845 0.04918340370318626
Ni 8.181776574110526 8.783256204795661 13.775389926777892 0.7778641215185957 0.3290968337692203 -1.4755707595499943
Ni 2.5880271191315556 5.9809836781452645 11.251017951370345 -0.964936301982177 -0.5515237395830114 -0.16987175742489455
Ni 4.303684714181854 2.4394441329663707 3.6706228661420286 0.46430729236650364 -0.45256866377333665 0.29606767122839334
Ni 1.5911563852445134 5.386438784289499 0.5767451187496733 -0.6625362607778525 -1.2935158297953466 -0.8232474347494017
Ni 4.740721273002592 6.763386796657784 5.498448209141766 0.13077967651943928 -0.5145265935333719 -1.1606149931678464
Ni 2.0976421576261344 7.09871696820132 8.770930149867839 -1.9358956702299823 -1.0787646953592582 1.1294457666538937
Ni 8.825799750497868 3.4418793219060846 13.291849893093504 0.6533826193030425 1.2185231783385402 -0.043702840204589255
Ni 8.814837496284285 1.1120206964329293 3.978908489917088 -1.1643510631715108 0.2722019203543893 -0.01928815880565065
Ni 4.026721139397124 8.61863721837885 0.40887912004172766 0.7669729285273887 0.3636899983630575 1.3000348618607869
Ni 5.49141347877734 6.248429349778335 7.556896604490079 -0.35079925844331844 0.7888206205300995 1.071270186754426
Ni 2.9692987648370823 4.848871688094535 9.00626956395324 -0.5573058934824273 -0.8448313315677644 0.46485725133270267
Ni 2.086059573148776 7.281047772448016 6.386728741555829 0.4774235180334874 1.3762899249697844 0.13991840559591387
Ni 5.308582706855362 1.6946219180458553 8.263797197106546 -0.150663817037876 0.21742585305477394 -1.449443209225007
Ni 1.8064017281139182 0.21747575422080023 7.960296449157146 -0.4359583089101653 -0.041030949799380954 0.45630139134289155
Ni 0.20243505998941053 3.2703348573205573 4.6515659261070885 1.3756144961693146 1.5430370207227684 -1.2556450228915021
Ni 9.123956399518148 8.12703937232784 4.168364759402613 0.6848408378123239 -1.059453910845788 -0.9567583941570749
Ni 0.4293398342195966 3.5975081488284792 2.2054361142829237 -0.08325077770054048 -0.5161751848803885 -0.061827317719441915
Ni 5.209255795366074 4.827493440645918 3.0085221548289933 0.7097607409824551 0.7317999801706816 -0.26509436277533055
P 1.50243989886398 7.363440593602301 1.632135217296302 1.2100202830738516 0.07131777370838041 0.8032221406674103
Ni 5.558122128784826 8.594046215683516 6.783339210365783 -1.011964349905257 0.490105227266214 0.09045860830288938
P 1.8414920519901674 5.3300165062679 7.2790340137559095 0.7167171176956302 0.0012698678513591033 -0.780365804894527
Ni 2.717361349798396 2.199589270080325 5.899787075947393 -0.44504458748214965 -2.1021881949440506 1.6124562918568552
P 6.401993495375029 0.9007547259123403 0.618720182687764 0.37170566957868245 0.04034215126247246 0.9112444688856758
P 8.222718371519703 2.203885288623485 10.125581455650691 0.30088668988359146 2.3498723326627338 1.2216249571923152
P 5.046821852863457 4.2313190225151605 5.007766970495436 0.7520939545330274 -0.3075365910999413 1.0502611886029267
Ni 2.6991310469719223 1.0671624855673811 12.887352897139014 1.7656007092247399 0.7439294164443641 -0.4468273904141853
