# total energy = -340897.4711379749 ev
CRYSTAL
PRIMVEC
9.01290699300396 0.00000000000000 0.00000000000000
0.00000000000000 9.01290699300396 0.00000000000000
0.00000000000000 0.00000000000000 13.19130042286865
PRIMCOORD
 96 1
Ni 6.380128748333381 2.049372831653512 11.406781132816695 -0.2715023231842034 0.019971815136236575 -0.20524165228375618
Ni 4.630894734470608 0.435639763724726 6.114827520176785 -0.2791873505332869 -0.6375315112033988 -0.24906353456471297
Ni 2.70025794034075 1.4009212078707354 4.85433281194481 0.31892914920759907 0.22978463173044295 0.21803237629052127
Ni 3.4384150280276495 4.504128196762229 4.821881840098452 -0.05158327139393052 0.47485935685073705 -0.058361470658028526
Ni 5.114220888125036 4.530977646874796 2.707263672993485 -0.2796282947254475 0.07191169853863745 0.08199505091656846
Ni 7.27304646303703 6.015872109763588 2.7029374776077746 0.1904747783872268 -0.16559755552957284 -0.8963017315329144
Ni 5.03303262138653 4.558133535827185 11.435946900042028 -0.23344459708053344 -0.39991041414767253 -0.0883796142866736
Ni 5.680168360739486 7.764132729664578 12.128253526966038 -0.7655991881083136 0.3476239460391303 1.5130888111001102
Ni 1.8484210559872465 6.401606505842025 0.5696400606342956 0.021282306417543993 0.024587202421060883 -1.365351680790726
Ni 2.731289379326171 1.4548544436792632 0.41152933606573666 0.17363868066649452 0.24576892297384126 -0.5042190409597768
Ni 0.6521937827914159 0.04054726625257416 4.681790620602085 -0.8749111816722803 -0.7191550377131615 0.3809971221829374
Ni 8.545831171327245 2.2193923103119446 1.4109417579328882 0.1670880240321703 0.7086957900530504 0.17759792242455866
Ni 6.8150375652960635 0.9693021019826045 4.752403142203938 -0.44439024172760233 -0.8804812195608901 0.2958732958294001
Ni 0.794947415031407 7.347844578674559 2.4886051401297884 -0.765251832071224 0.46734453653093067 0.29740387354131365
Ni 7.622819359971746 3.638970235783558 3.896631222630848 0.13500579878564492 0.6016659076550412 -0.7357206553813266
Ni 7.502479024992558 3.930258378847696 12.6602980484078 0.8549712482152436 -0.40433888223267134 -0.1294560726120093
Ni 7.9256530369715 8.914143618071142 6.9924575419361785 -0.21709675185012933 0.17820136033651246 -0.963172782323851
Ni 6.774912103093596 0.6921876565509012 0.3754768065607749 -0.4350648505616184 -0.062252321072002466 -0.4233305928438258
Ni 1.6385915668732207 6.56596587887082 9.163271184520116 0.8745705105034098 -0.25621197268403617 -0.2476273163388187
Ni 0.03927734764872698 4.774596524532634 1.343098902668595 -0.05917625324984003 -0.2943797420030091 0.4381170071243809
Ni 6.264403021765618 2.029778771719063 6.954875522104227 0.9088728833297056 0.6205169789232733 0.6160661422407713
Ni 3.2697474854272515 4.366699390009484 0.343841502802765 0.6103930031153939 -0.1983600946725745 -0.6002721126313081
Ni 5.941921207389095 5.729036342783911 4.817067145150439 0.3580394849454995 -0.4641851649663425 0.02136278194649224
Ni 5.321941356988528 3.105243905885599 9.24115261566067 0.09941401772396427 -0.7193699819374451 0.38038442829960295
P 0.36101199203050993 5.4977651477894565 12.42493859877385 -0.4456323416648197 -0.07417915441657548 -0.4148737203257242
P 4.013483562580307 6.180456805468722 12.455173296775735 -0.3227060997515281 0.2720844209399185 0.4098790953246102
P 2.3706919810201255 8.403706639999593 1.3597592613571083 -0.010415796016685287 0.5888471586238181 0.5622300702569221
P 6.377280669704455 7.9362522156664905 5.70461767370369 -0.4725062832375282 -0.0037995762517482948 0.878311722713397
P 4.716859841947502 1.0525362986222688 12.582257990103104 -0.057994317126596896 0.23711613239484974 -0.15219079520536372
P 4.208721155174612 5.988671156275933 8.114496873302008 -1.475626552488594 1.0493448474362443 0.4997769460280232
P 4.698680808420464 1.064072819650831 3.8841384321639034 0.15187043575146747 -0.2338778279632101 0.10305624246224186
P 0.3278661250503226 5.453232374037796 3.4872127093970566 -0.5215212796836501 -0.5391721599961941 0.6195057640499395
Ni 1.492861872724143 0.9873369289967863 2.655434950981965 0.09134435334195236 0.8083952002279174 -0.9810676603264007
Ni 1.8151454031454877 6.570859887400905 4.602734807672452 0.2719347827359317 -0.7123830090966505 0.7813291972490608
Ni 6.151038676845889 5.5744559739082336 9.243157086189383 -0.8375525385181639 1.341617827508896 -1.016811136474597
Ni 8.554465536284559 2.2099648095339166 10.069948904422443 0.5819103222946688 0.7744527818442016 0.8827908415306731
Ni 2.3341266171038155 5.221834998344592 6.927147313553936 -0.19407098037891737 0.2745238836193466 0.5548571748316187
Ni 0.5192984682866133 -0.06981668190902357 8.957868835350803 1.18771904847349 1.3059121465771704 0.92329342963041
Ni 1.4321599437183885 1.0382147893141556 11.410356553044844 -0.1466366981563539 0.24929184852543518 -0.6091568167154477
Ni 4.050445494406973 6.862751895237632 1.4945481876338647 0.6626524746407426 0.5411925328603324 0.0763144555920234
Ni 5.668460594476907 7.736787569664063 7.798775640506363 -0.5056064082256065 0.6560074585203993 1.0463852505872882
Ni 5.239311025121453 3.075086718884374 4.878828992025692 0.39998420480840147 -0.9574389651638671 -0.14749210417811373
Ni 0.6099313603265485 7.298201486623528 6.712788838645495 0.7481676228954276 -0.22911794468072155 0.41164312920356844
Ni 5.1471270117776 4.584685560006985 6.921343902702147 -0.7357715632239199 -0.35561313489219404 0.30012744312006373
Ni 8.150876571333013 7.283095854401754 8.986415415861556 -0.8872838443050203 -1.2110453819042561 0.4408174367746795
Ni 4.719194184874375 0.3459541282161204 10.4445812015923 -0.7014054270392243 -0.1937472784909115 -0.4509689233863846
Ni 8.104478125821265 7.206810609100389 4.715560180750379 0.7212836540203901 -0.21645500450107238 -0.7645164965670963
Ni 7.3028521466631675 6.260248071613925 6.8886946469006105 0.16106675753875488 -1.542950631656549 0.053451692061236976
Ni 2.4990177516487706 5.036845081070188 2.5617638079742733 -0.582902511004609 0.4520624135608795 0.24408227930003767
Ni 2.4074105643563453 5.157581983959733 11.252152995533633 -0.8546112937726636 0.03375344230136122 0.8408466358884035
Ni 1.2904049415799326 3.2465662884854845 3.8350280029197377 -0.9248682303166975 0.35947878849518733 0.032401299148840976
Ni 3.580539559355302 2.694615860525219 2.9369107421368876 0.1354786246570054 -0.0349690598760172 -0.5933226778966685
Ni 1.0201619364858665 3.3171734023431054 7.995946501663657 0.3879288163057642 0.6968106085796902 0.26163211525834296
Ni 3.717887249944565 2.7375353239142908 7.42959074435968 -0.3589974779833946 -0.05896002347397588 -1.8430171396316906
Ni 4.020666849501998 6.8605527459165625 6.005510871814812 0.21657276102585926 0.12148153904696497 -0.3481903600655616
Ni 0.968049307902159 7.457612773679916 11.446869642100243 -0.16622439048029436 -0.9350282015688348 0.40355700976132436
P 0.09381805339266476 5.545064884006561 8.030771473227924 0.6292368752947745 -0.6263934923087082 -0.9036777122820114
P 8.531771036323686 1.7571563591628563 7.9670042545332524 -0.9166972644701309 -0.9318217788163952 -0.13677883152566767
P 1.6308855313424233 3.1750578839225065 10.282566085688137 0.1211758348810881 -0.4065700855560353 0.12848342428609485
P 4.117961181145222 6.278805647237214 3.6614304001610396 -0.7671559910724722 -0.3413306568312509 0.3060857175860277
P 6.943119987434263 4.03716046941002 10.49222883602167 0.16979462433005596 -0.7347744894179733 0.16342291647575724
P 6.385013743956414 7.7355888530259405 10.114983697096987 -0.2836114477429116 -0.32717724814900423 -0.07123935506196119
P 2.4030302915283133 8.382580385866039 5.815938792594377 0.15758882629248344 0.24716940286579367 0.5079296570421445
P 6.823383517227664 3.888853083843623 1.5725215504263637 1.034646107773489 0.1589517680782811 0.4282460278675721
Ni 5.085253404854882 2.873567130073734 0.6882814626338866 -0.27248936968782106 -0.26540186671342036 -1.019115616238058
Ni 1.3790198437305747 1.0151327343499779 6.993025355080553 0.6153135803454629 0.32628533246235425 -0.7133052638006038
Ni 6.900452885442691 0.6259608155213123 9.132442535943403 -0.5487322928808034 0.2884736609312193 0.20403863311459053
Ni 2.6598260392984616 1.4521776102843544 9.101746377100373 -0.06457916943296621 -0.3325642234925305 1.0278560814348492
Ni 6.237616662002426 1.9431376962131517 2.5737410601577544 0.8830554080459695 0.45008600656079906 0.3446214117673807
Ni 4.099421631336041 6.742690960377105 10.197033597749813 0.006779999036310905 0.8114622691890154 -0.06564823412742887
Ni 8.102170821615552 7.089877152987447 0.20678583040203716 0.09488373395377851 0.135609750918231 0.8150114199928544
Ni 7.5567006738268 3.834919848035095 8.370540043333182 0.8020782568709541 -0.25173156831517934 -1.2637450262908172
Ni 3.0877588662016846 8.319426946141714 12.483006956338551 1.0180635208244597 -0.4790029467054654 -0.8560649955000547
Ni 0.09175229509598785 4.880741530902458 10.242345987961606 -0.11081814579584784 -0.6158401422728942 0.06845356478670792
Ni 8.527426815123867 2.3316931321993533 5.830489229741651 0.6263335856050504 -0.03294585879840133 0.14215218002243907
Ni 3.511581807488483 2.6667299261014916 11.198596499239944 0.5483677104525331 -0.4161361319779156 0.8219497989839005
Ni 1.0274443653851464 3.171569888892777 12.723497453958096 0.053748654476365496 0.569858019115825 -0.9927142434263937
Ni 3.120421641363801 8.306304153471725 7.960686206688703 0.35097820722334394 -0.4784750992264533 0.13157620427880565
Ni 5.7324251958360515 7.838444148321213 3.652592343504315 -0.5426801731494525 1.0142037807587374 -1.10993135077005
Ni 3.0797914563663342 8.308620470584492 3.562310954839469 1.0458131801339021 -0.039812246900931436 -0.2721260728111313
Ni 3.214137848906761 4.238085206355124 9.15719017613108 0.06577576084422865 0.8297045032286549 -0.006454240265775981
Ni 7.240816307413485 6.079286923792466 11.3753332975254 0.5988690616361944 -0.13829861060430376 0.06901535082744889
Ni 0.4670362254458165 0.09822806881397367 0.3773767273676662 0.1384464490360777 -0.31385841955291105 0.08629187851970946
Ni 4.559629678398077 0.4427951106345505 1.6850828453276203 -0.058400037205447806 -0.9780257881762835 -0.07636716320682978
Ni 5.90501335300475 5.582107931996709 0.4328989386897371 0.024315179706596832 0.6996596479927112 -0.014005313140156524
Ni 8.058449209498713 8.7016192697481 11.395937704340552 -0.8998866206706952 0.4789055018956527 -0.5076113544707774
Ni 0.09846781214159847 4.676860560443785 5.754586131699355 0.23144016505599496 0.9548475502876071 0.16433257277422023
Ni 7.914062438500617 8.92956470203979 2.4397443684110067 0.029234985605717394 -0.5015504929886782 0.3973408536482834
P 8.578899527306772 1.6336254550867069 3.6369207007195774 -0.040378918037678846 0.23225803297160003 -0.31844835291643864
P 1.9242556559359347 3.0798905983439235 1.5286998950412296 -0.9573577183039705 0.2874354494746921 1.0136085703768996
P 4.816659761751617 1.0774659995324272 8.298964041967304 -0.250655047421549 -0.5005091962083573 0.18109925070959781
P 8.3931074613046 1.666892095021412 12.287261035786424 0.10479250842705824 -0.2571835925686861 0.9257326351995218
P 6.2940915376000595 7.755651584127174 1.3496413718987772 -0.09159400745891323 -0.6216773177799616 0.25134204618624456
P 2.1068571528411435 3.1741295544959893 5.978640692016021 -1.0492769703127864 0.17448457360655756 0.21669720241886553
P 6.916225472786428 4.0460021312295655 6.041997823439755 1.5628304012996117 -0.18011786063293495 -1.0074289239287488
P 2.4068878157472384 8.401273155095131 10.148001580797015 0.3893264679842392 0.8590107083919399 -0.019727303225598285
