# total energy = -340862.2488470553 ev
CRYSTAL
PRIMVEC
9.32926008742258 0.00000000000000 0.00000000000000

0.00000000000000 9.32926008742258 0.00000000000000

0.00000000000000 0.00000000000000 13.65431515400633

PRIMCOORD
 96 1
Ni 4.496134380415317 7.97507152238381 5.852171285936442 -0.8275134091146071 -0.555739577436572 1.586340825716726
Ni 5.654473997962612 0.435426431901133 9.055856066119212 0.12524846228856493 -0.34340527997209247 -2.7468041237980563
Ni 1.307523819027611 0.7994224493782665 11.39758436512317 0.8608583031236401 1.5729212098767105 -0.06373353360321928
Ni 6.647965585983479 3.99469596847326 11.522863270007075 -0.24787748467641185 -0.4229744950559877 -0.7631435274789695
Ni 7.106340132374092 1.6182068455861398 1.1711207041602683 -0.20497785709940824 0.8476950262688047 -0.6470163107653825
Ni 7.279257972061267 2.478719157270291 9.584729033829712 -0.7803133543900367 0.45238791522109834 0.32716182153003653
Ni 1.8089529017093662 8.112659453309435 0.9496785828672164 1.5290587041658052 -0.2674597776837136 0.36325959569385824
Ni 9.146929238107893 6.884788858735513 0.6996170897474395 -0.7160103214365927 -1.4457644748218392 0.5684025176162211
Ni 1.2983158391100906 6.7220585712975085 2.7713481992934743 -0.25216839874228186 -2.607365743162355 -0.09980791072827327
Ni 8.830359448299156 2.3494249387526445 3.247378370804561 0.28741899441445984 0.31504549788247677 -1.8607374397295888
Ni 8.105961044413002 0.4724551989635754 8.670422341395401 -0.1457614946402522 0.73278034180608 -1.3190607681439863
Ni 3.8405859175537853 0.08638055405705587 1.2500182585295396 -0.5028221606122502 -0.39250897947727886 -0.66512253344779
Ni 8.759914203762987 7.678848849292511 3.5212565325478824 -1.33837463798125 0.6721843253905778 -0.19604327361393978
Ni 3.8942851398488694 3.2854576125769457 3.5936245376321767 0.7732240516434231 -0.16137220459431564 -1.611603714048573
Ni 5.862861685315861 6.103771174079926 12.59652958813248 0.012205540927256397 0.20400366611159707 0.3763580807490292
Ni 5.290007785766287 1.4164802500881195 5.022562149000808 2.134573810363608 0.615094008135489 1.351565939860543
Ni 4.631362008484677 4.534319042829107 10.180726029409065 0.19582061608017245 -1.7214882922865578 -1.745656147782013
Ni 9.148188688248586 2.6633638771563755 5.468881425229902 -0.1145804410517575 0.037785446278889766 0.9966909686859544
Ni 6.758797198364577 7.7197016801525145 2.0301095476371938 -0.6977171795543596 -0.18375314339267707 -0.3268530320403661
Ni 7.138003641837176 8.401344084077172 7.0827940122992885 -0.6543537249670601 -0.2116611826568548 -0.9187824291339338
Ni 2.0467091004915448 7.957000745179922 10.586122505325894 -1.3507462721727252 -1.4264380065790854 -2.083935676491766
Ni 8.603434520726948 5.110391537182677 2.5656053572356843 0.4313136110493024 0.2569110556335898 0.6594450234470385
Ni 8.727299109749156 4.792021200135762 12.745648484790685 -0.2970794003223593 1.972593796981964 -0.02366314794489473
Ni 0.2964223192617489 7.698076454773779 7.461810138861739 0.8014992444390325 0.15587055804979608 0.9243923191215435
P 1.1064782595315958 6.2110203505052715 12.605459556093017 -1.1290762991296168 0.5670403471613717 0.9110475223835213
P 0.6415405785189201 1.2113204867991698 0.37400164915042705 -0.24938363690829307 0.8737323308728306 -0.9903943370439652
P 5.206268345300568 7.262521279080485 7.942551586825053 0.5150243591053969 0.437789191471317 0.5084366785855502
P 7.328273905685029 0.6450091974989952 5.655139174222105 0.20039486571441617 0.10952668067793396 -1.0401577816203376
P 4.610072636476793 7.303290146597774 0.7861347839309265 -0.41373703561811975 -0.1664226225340295 0.517128035711961
P 5.063567979729753 1.5026919445337195 2.2848720550228663 1.2847005454965617 0.33578195909887976 0.4658766937361525
P 6.055501581280279 3.9214052995451527 7.925578863558645 -0.9213224219469682 -1.5926374573587152 -1.5938582171396938
P 0.796645128586528 0.9757006886260208 4.417799380442222 0.8102579644682689 -1.1526075494823376 -0.2663575457584703
Ni 5.711391815061694 3.7592254384649335 5.470915203975615 0.36854398402124916 1.2441851018810184 0.06280639380325957
Ni 2.9100854950882376 5.656069301474159 0.08111232076483316 0.27179337206206095 0.7312165968633859 0.0535283109354433
Ni 2.639639568209816 6.283667300472578 6.498853219807485 -0.9821680924794312 0.10252479543880408 0.05288913468954762
Ni 2.229889126510304 8.61473225495199 5.871397025565647 -0.2932829093944046 0.2193906900906286 -0.02644431023445768
Ni 3.446406011297375 0.40487683611804015 9.912677722428114 -0.11774238371950689 0.41720519667237826 1.3975480630176125
Ni 1.3988666066390023 4.807675698921578 4.610953318649249 -0.6968270636399225 -0.00679516854496249 -1.3599613630130902
Ni 5.325393670089645 8.599525560660645 12.824173801673927 0.9999446997365617 -0.751847642850176 0.4319360751246497
Ni 6.275438892886708 3.8754120462590578 0.07131566452229182 1.1382204275227301 -1.0878671718811588 0.7760831183587731
Ni 8.856266804156252 6.397083117957175 10.580196559182422 1.5920916121575743 -0.889276706365333 1.100306426085776
Ni 2.966938007365208 8.61764298416604 12.406625031288444 2.2874575178709375 0.9692866085310724 1.9200491901160288
Ni 8.499693146174943 6.526881116531098 5.543201111569257 0.3564312599181152 0.6466337306149831 -1.986552316044585
Ni 1.4635277097882775 3.078665228735244 10.601292815502067 -0.2674078413998556 0.5546363170700642 0.3638602053923346
Ni 0.28115125307432304 4.780107734730825 6.608852662169694 0.2575049804638468 0.3382499610233981 -2.4120215524979685
Ni 6.351435047302232 5.658121738740475 3.0945324346559318 -0.2533667899257572 -0.14098489918721524 1.6698428001961243
Ni 3.6287650624096073 6.413260055319871 2.719297457293654 0.7327618298633187 0.999841084279162 0.0713663675581287
Ni 4.289239374710299 5.268578474853881 7.464527752387549 2.3182873587676007 -0.7606786108782448 0.7275872276409147
Ni 7.468026225000588 7.5595276100371045 9.217359555827578 -0.6992678118709311 1.2477874745202961 -1.0106291760336013
Ni 6.554514385543961 6.20893992545805 6.341460202187934 -4.310248247422267 -1.2232172413801 0.09049100420272156
Ni 5.557729568636688 0.885703180350097 11.13953236055521 -0.41627805687241853 0.7350953630925018 0.1604203822040076
Ni 9.126283585060806 3.4875573784870237 0.9630837969943543 0.050974177055021885 -1.5443485404453403 0.5860366857582165
Ni 0.697688731643132 8.343101512015286 12.638434759554485 -1.6237233801302422 -0.5506984154682386 0.05420811061128729
Ni 3.1866700752450057 8.096305260001012 8.286968285707557 -0.10042189016318835 -0.23257504999138656 -0.8570049908158208
Ni 4.866599306985468 4.845067374209746 1.5515399514720554 -0.6767637172311441 0.041461866689212465 -0.4761564783956058
Ni 6.630659808124308 1.9805366571734364 7.162767230381316 0.051642663876956214 0.06872327350832681 0.5695330316762385
P 3.062730852140386 1.5082988299748845 12.852015113191513 -0.3293030362427555 0.3048711284526362 0.4993989938633141
P 4.207141884057633 5.322660196821324 4.54276388925397 0.8770331131112896 0.1494011482753685 0.4249012797650553
P 0.7866217713186616 0.3551630738237308 9.150084393941839 0.2572645823182666 -1.5802755933592527 0.5597386712936361
P 1.469927582355065 4.205555909806389 2.596163349353049 -0.17174609162947196 -0.7956908652873717 -1.7205272139248688
P 7.119102560466461 5.678832696609671 0.9068311561547663 0.8852269617759916 0.5236419255710788 0.4785476043356016
P 7.342752917672862 1.3386369021329108 12.120949086967922 -0.936249989791078 -0.5424060935524594 1.450800751694166
P 7.879073433882 4.029727340905164 4.4041721299199095 -0.6372407194358574 1.122090611840403 0.48769841759693433
P 4.166121126512206 2.448753573182068 9.87531963247703 -0.41618061206260576 -0.46495083948777344 -0.4846552598952362
Ni 3.103434414835565 1.3624638329427865 4.833436585391942 -2.6710949058902 0.341181018627264 -0.9098766420038717
Ni 0.38329732411478107 4.773297374710774 8.721079291906186 0.33250663078171766 1.2824472306860106 3.4472811254857407
Ni 8.091164837574919 8.967611525853927 0.5551404330152312 -0.36293589380585234 0.38560685304080694 -1.7195507089442128
Ni 8.92393192912259 2.6820970318416655 11.973946999472114 -0.48735054733921224 -1.274220471900844 -0.240807722313824
Ni 6.516954783570367 2.998564199787087 3.071715862736702 -1.0259948598563944 0.6821177824542058 -0.42462411484426865
Ni 0.5960492394370421 0.7611360980271901 6.715383485551828 -0.6003425608579274 0.411822077983594 0.46374962009082066
Ni 1.565235305594568 3.30940582377074 13.03401312193008 1.5272640741592278 -0.3244817035947122 0.5047358326951953
Ni 2.6638676572126534 4.023056919789635 8.71714700868913 1.2421834980699575 1.9940028587853593 -0.09709102601774247
Ni 7.198438590069899 0.5164575881013437 3.3043447000572095 0.35515933518422704 0.2949680104063114 0.1902804029882336
Ni 4.6377991980926705 9.172034277579066 3.6168366701881878 -1.113637081756411 -0.9667993233328447 -2.1561492225415377
Ni 1.8981872764926324 1.7526881328313864 2.6423012061738165 0.8153590331402603 1.2062096510785096 -0.12328542502492316
Ni 0.2945023574917127 0.15602348220729964 2.130469065329926 -0.5207044402093097 -0.588816819606515 1.9812432451268462
Ni 2.0916668058841803 5.311325145555076 10.932724116970995 -0.6694083053073374 -0.06048160232482487 -0.34644509523968076
Ni 8.576510275496995 9.161800079028385 10.890654750567684 -0.981192358829723 -0.2587895036032253 0.46290809802613186
Ni 4.068387795594328 3.8887622177504175 12.561628825344796 0.10284104112764224 -0.35095866683931815 -0.24982226710760844
Ni 8.928437961848186 2.8466092079972447 7.82844260530006 -0.9199893049578413 -1.7149738882068075 0.8542739650379029
Ni 3.7286068061556104 2.748288133680377 1.2411237417581475 -1.2084069158401447 0.733744248381246 -1.105607012363083
Ni 6.582614117571897 5.405858540189558 9.198543370725604 0.7914943107075206 0.6628116259264263 0.8030352214675848
Ni 5.13835133030609 1.7204741970105166 13.266041154887175 0.9437357566451617 -0.10857794361141947 0.3112382083212446
Ni 3.059950732570557 3.7610539734840156 5.619720637487691 1.1898759469154925 -0.3486318184783544 1.907595023513076
Ni 2.057969517675382 1.9192247584723776 8.785064023683608 0.4262696208674917 -1.3085716956872042 -1.6368416626797553
Ni 6.307699475009086 8.246338424168759 4.690749280785549 2.956388883541857 -1.74484213652115 0.08046807274908077
Ni 4.876833505536147 7.683933296156796 10.312258337473027 0.4511650985575907 -0.3160885944350104 0.0976453558593157
Ni 2.4131997621732832 8.5117278919638 3.4852642463049297 -0.33046157532723086 1.362788290938924 -0.10399083846136928
P 3.9959927356551597 5.917223285092346 11.46279776048229 0.22906677972781198 1.7617504822407142 2.017595558503635
P 3.7560534899624445 0.70195313652692 6.70735472413641 0.861634262057716 -0.6271668801396231 0.9115874540473913
P 1.8353733668830419 6.449681487536689 9.03665831427091 0.12338389827600042 -0.4632248579356022 -1.3528460921245473
P 1.1763264314084714 6.843441577079535 5.0900556155776 -0.09301454195552368 1.8326424812655855 -1.4771044225857015
P 7.077951193276812 7.463277631507156 11.277495327744953 -0.7804331677973527 0.3401446069429497 1.1482348743359385
P 1.564722196277989 3.0917168638969574 6.950360497690208 0.260880324693983 -0.7212142342350353 0.5469019245402839
P 8.17238537775925 6.004246625184171 7.624501243406478 0.13608540500306887 0.38525486901802686 1.9440725496138198
P 8.485745902024291 4.152686991678133 10.415375584510864 0.38493039579907257 0.14817473206743514 0.02219581937074887
