# total energy = -340891.71094761085 ev
CRYSTAL
PRIMVEC
9.02237273156787 0.00000000000000 0.00000000000000
0.00000000000000 9.02237273156787 0.00000000000000
0.00000000000000 0.00000000000000 13.20515448806497
PRIMCOORD
 96 1
Ni 6.650011790517554 2.018160358275914 11.123057738620313 -1.8915505684557035 -1.0866099024352898 2.3601037805827545
Ni 4.267753592171611 0.472708257341223 6.038506062174341 0.062038148178667346 -0.8775295931317338 -0.9128298110949247
Ni 2.6678884652505896 1.6567060733326473 4.605059497262383 0.1157675193813232 -0.7124069203560505 1.1774798872439851
Ni 3.4044117951585746 4.066302060190849 4.868079698816626 0.018237863164265365 0.4857009275509313 0.48187769715009915
Ni 5.306057235663101 4.480311664633755 2.6555566865910007 -0.9261144440189729 0.450111974702728 1.143356720308031
Ni 7.163339670849219 6.215331930800199 2.722942079680606 1.467842537667801 -1.543358408617929 -0.9398366787010718
Ni 4.958244777858624 4.432899097428502 11.60578534056314 0.31853525620329015 -0.027797996048874708 -0.46091934973087717
Ni 5.43052086355967 7.928436854294604 12.319286282699927 1.4117662634995234 -0.23036364416236454 0.774011580541725
Ni 1.7164973355342106 6.633627162155091 0.19144211198884725 1.432463901058191 0.8791383323797505 1.4170367678698432
Ni 2.867192672589134 1.6121084863306363 0.5129290914695388 0.7159802395296055 0.37483033125059323 -0.5273021480314853
Ni 0.6303760203146286 0.011813894481172019 4.424730241415631 0.47156525948049755 -0.33637279860534325 0.6301215918925729
Ni 8.820253258748131 2.4923311421906806 1.2324371291810654 -0.1882389470781726 0.1553501667699518 1.1411406864933187
Ni 7.116396267011172 0.5795935970006858 4.944603852957078 -0.8315495268571936 -0.6865894450723145 -0.959854002363263
Ni 0.7038686573131278 7.44190542012842 2.497847420704342 0.2599254169798814 -0.3349890308839392 0.06346870997760683
Ni 7.567704359147041 3.791931714099173 3.909412025722314 0.8217381971937268 0.19982819457766873 -0.0559978555218584
Ni 7.554279068946961 3.8907086476411545 12.80643755385317 0.7846870579777002 -0.20285155478502484 -2.666068399209886
Ni 7.8699177466079675 8.481039121884969 7.163030203474311 0.3472326241379826 0.22359624353154395 -0.7263250730990394
Ni 7.0577418237378415 0.8476906875304568 0.48892597181342917 -0.07689578201679013 -0.4286900573835262 -1.0895617859747622
Ni 1.8321912174129862 6.461859235522624 9.305684865713113 0.15888209118261024 0.6158098032555911 -1.2168897565001753
Ni 0.13668262690057983 5.002968678074883 1.3000273301252019 -0.5065464035413727 -0.42239239730027256 0.8102525651516305
Ni 6.113523480116263 1.7822343411778787 6.890172007004633 1.1078122475445178 1.0637401969259679 0.32298814976832113
Ni 3.152317686636788 4.637706951959283 0.3179366759230765 1.3055943582264353 0.1795337059946908 -1.073093870226726
Ni 5.984241905333375 5.529388020826115 4.931636899277271 -0.034297744840605444 0.05269938727624472 -0.8102474229453077
Ni 5.368131158093575 2.743703460916764 9.210528610233826 -0.4467425440098628 0.06945166703391911 -0.38388678502590656
P 0.11182147962482798 5.637205371559279 12.425772833497263 -0.38305734714607576 -0.23367008282777824 -0.6536633837682548
P 4.0474092122883185 6.321678634824618 12.463406953445228 -1.5853062138046246 -1.0157821809894505 0.30863393792917815
P 2.483732821249366 8.451671299572295 1.4811298032906008 -0.36836786345470107 0.7053309873458756 -0.1559669744183443
P 6.33519414874916 7.628749731118638 5.656216412540857 -0.590058662433416 0.49668390892499625 -0.13827161402111024
P 5.182892829398797 1.1309994980046725 12.63454602071819 -1.6033178198906968 1.2928321734647608 -0.29709559827227544
P 3.964349251547773 6.088296926756436 8.282378209701845 -0.2979080668712418 1.256734913521571 -0.17745239798562987
P 4.809574124688659 0.992740662637726 3.4987587438294283 -1.1537630032430195 -0.7751256395415101 0.8157603823437369
P 0.14337361830674844 5.5537213593137595 3.616667618143768 0.44537574556932324 -0.09086741370553383 -0.3528373719192697
Ni 1.5543201908121493 1.3210918630755548 2.511488345605888 -0.16294212018459678 -0.6113175718121924 0.04474567964680681
Ni 1.9336748626888554 6.320803464697328 4.806253891628424 -0.10644624198039732 -0.34821092889085187 -0.4020752830094753
Ni 5.851495739531111 5.441717627765516 9.224314795331756 1.2857292438713923 1.0470254552744485 1.072003979596657
Ni 8.591337625040863 2.3534678078698326 10.01022027635002 1.7860335231577953 0.01925833400897974 -0.2567071671528998
Ni 2.4921055828795233 5.17746136118613 7.13651435309191 -1.4930917991528931 -0.8138307694211918 -0.7301166789309878
Ni 0.3141111900058496 0.024844907005348547 9.301987497484623 0.7097278308619906 -0.17042865836962906 -0.13984975714150755
Ni 1.4452487303089505 1.1159862702540462 11.555500049970988 -0.44938332406681963 0.5509560400049996 -1.6676283090433088
Ni 4.060699166901704 6.847096494234311 1.5580500395814454 0.009948369461963511 -0.5156409096434732 0.025754226145968548
Ni 5.528160978173419 7.550859589789817 7.720895220912597 -0.409636640296501 1.4115410348625947 1.6005435995796693
Ni 5.393231398239154 2.6345417766891024 4.785217328032655 -0.37288554881939656 0.5647492371343499 0.40014078499092376
Ni 0.9948609201626041 7.319489870777159 6.994426422858758 -1.2298424600061013 -0.5556956115725139 0.10641795984562319
Ni 5.187331836642372 4.551119243592239 7.148266895440448 -0.667711891441521 -0.7097273166413584 -0.5102166533041084
Ni 8.26625252342859 6.882509306085999 9.407232569833349 1.4229683028629299 0.308675589800391 -0.4563155324102786
Ni 4.856291969215548 0.32744806095595536 10.573287593740837 -0.4279909744339726 0.5170696716701998 -1.3091458230231194
Ni 8.270249434422297 7.1379958266475905 4.836097192969017 0.07845618452537458 0.1261915429281246 0.07261978034925558
Ni 7.26829692951691 6.14354091324507 7.0782929836960005 0.2905148597309642 -1.346743064550603 -0.24008421388423817
Ni 2.3052973613790906 5.330796580910827 2.485698796205413 -0.1938058996429888 0.2833371110356024 0.4398090501148232
Ni 1.996028478665165 5.451010671385195 11.29369516198526 2.396762312346053 -0.5393557367619098 1.1237787981761032
Ni 1.1751640111292618 3.48068693181951 3.669711950229996 -0.8474386872836244 0.24143172905106805 0.4912815069625023
Ni 3.555356086185005 2.797007637329445 2.722189613818586 0.529380884937385 0.004053601244083342 -0.1317672372436892
Ni 1.1778707228631489 3.072009549492362 8.089793865361298 -1.6413691182364634 0.7283359328814811 1.3018384907284288
Ni 3.4832402632218096 2.7686412983583097 7.197957611688389 1.5637778528145456 -0.42722298591969643 -0.13712850155560255
Ni 4.158826489627552 6.7312131425341635 6.001465614333342 -0.5629371236262757 0.384053392510758 -0.8349955764242651
Ni 0.5394801291044808 7.6072584399515755 11.480257072717908 1.1567210574300788 -0.006426215241317965 -0.791754763457759
P 0.12486422123318469 5.593537088919237 8.028522031841298 1.6356985502142474 -1.646752494035564 -0.43331752885320857
P 8.351360562714444 1.4528455679087267 7.952341630091049 0.3659888216995632 0.847635890896095 -0.11860370327853768
P 2.0153092885828863 3.2724866652489233 10.200242266915822 -1.5534001091246472 0.031872166118248335 0.9818006818376832
P 3.943336146120364 5.914183183287934 3.830524912238178 0.6025038301753043 0.6506598210552407 -0.21112562186835898
P 6.865953252647057 3.93568517428591 10.51411526628909 0.2769525476654972 2.0992805343789525 -0.9866652090188363
P 6.52268807055551 7.651197393765008 9.92932478275934 -3.558621205223329 0.36241190298158227 0.951100167430033
P 2.355326416593768 8.255687325293986 5.678057771758835 0.6454890754875787 1.2862198103545655 -0.12990755832713113
P 7.036773830172664 3.9516006392811653 1.5474857436840845 -0.33607429352831797 0.20423198007231924 2.0102740851415573
Ni 4.949276539647013 3.101503685019283 0.7312181749095664 0.6263495264446503 -1.3104830537773045 -1.189892659086041
Ni 1.2161165596629717 0.8194641953322388 6.8092638820925275 0.6490587951167079 -0.0039890665547350655 0.4831858744385615
Ni 6.6316873520791395 0.5612348735469751 8.883159946155399 0.06958793550146725 -0.15958914455196385 1.4453204453058852
Ni 2.659732240559144 1.4117396390434298 9.038901432611521 -0.2945298944276282 -0.3448073025259416 1.5745667158999335
Ni 6.388859220059692 2.0840597666236156 2.644781267178397 1.1164336706649418 -0.08400873891248757 -1.0227508989977998
Ni 4.135711171420158 6.980528360342493 10.431266429063788 -0.24765148470853474 -0.04377020310741494 -1.1211272194858692
Ni 8.333018079531136 7.404958804960864 0.384482988375177 -0.42602202363305985 -0.25616903526124274 -0.025016062428363368
Ni 7.629273028720523 3.8590762098444626 8.250844115764817 0.11030983870086163 -0.15328994180681343 -0.41959529417110963
Ni 2.9610975250101195 8.602651680088512 12.432811186242615 1.206771951339883 -1.072605874846714 -0.38855642258743406
Ni 0.009290336907944728 4.828069988203553 10.333376394733277 -1.0237191764483402 -1.413190654650876 -0.8843993236683736
Ni 8.591139132847045 2.214036064084868 5.891136435111131 -0.10573816016977919 1.5791360804381709 -0.20908390884798184
Ni 3.6823640231114285 2.340962799659275 11.295279490586827 0.12654944048817562 0.13547759621574088 0.6230613426116819
Ni 1.0794276171016794 3.4673608877163393 12.423897984502924 0.06850627240151427 -0.2722595130652021 -0.2271057993466992
Ni 2.967286872508274 8.353724424295372 7.926829067524675 0.9008708389608356 -0.8965917519695075 0.25114304280156097
Ni 5.765277948434364 7.875746199208272 3.2921770908757066 -0.7040397793382778 0.9947731828379514 1.3458130965371662
Ni 3.238761037044692 8.32007097507071 3.5902961257205077 0.00619918683217642 -0.14159270797454324 0.16975117268663026
Ni 3.696619371576566 4.392514958358907 9.53066133161033 -0.7916920285406237 -0.35807753727228653 -0.24963714767999587
Ni 7.17330939240237 6.14186275197006 11.563159141940643 -0.39258842656496257 -0.2334826494073205 -0.38378548356135195
Ni 0.6809897252638258 0.2703120829653352 0.46748881488104427 -0.13685519328955784 -0.4565914117794846 -0.002875264665266016
Ni 4.871178883751927 0.088487820004233 1.3467541970245374 -0.7631008471664922 0.8920907787753605 0.28373563202560165
Ni 5.847110866522214 5.397129063135951 0.3578778165055574 -0.21633159154933065 1.6135878343581371 0.8061506271681147
Ni 7.706721073799476 8.943742470420501 11.210990682719098 -0.012829547664500486 -0.04676476695936463 0.6376844918414953
Ni -0.009510482795634203 4.890928857036855 5.79028796485548 0.3970024964722582 -0.9036214051227792 0.5477745569532244
Ni 7.906819249913294 9.089859792188166 2.4969623259673615 0.396712218925349 -0.7369406438313567 0.5344115053827571
P 8.6621361816269 1.766246697203053 3.6218437532162047 -0.540843634161346 0.34130057492426386 -0.15834884438695956
P 1.9140512026181746 3.412892825258087 1.4010273762379497 -1.2748799598617142 -1.2830552965836548 0.7784109951610013
P 4.573593973355946 0.8779102218020604 8.169183524990691 0.18344949610932923 0.27556620884093186 -0.039656695159673634
P 8.527332914906882 1.8012083904324268 12.364606561734885 0.40832872011835486 -0.4790199159863299 -0.5693386562772453
P 6.375695578660555 7.47998885422421 1.0764249715515541 -0.30377095340992205 0.3291117461675558 1.2660057973005356
P 1.7314925185399443 3.0803191545153945 6.087774531391797 -0.14896817450300795 0.5611250101182014 -2.4609347332589033
P 6.908141866205909 3.828833217404499 6.107990961332198 0.1386235980438903 0.018979883536612476 -0.723541082595999
P 2.3189572332627737 8.440086573351259 10.21409431533261 -0.1259981959703959 0.4351370985604506 0.34579409191924315
