# total energy = -381168.3816709259 ev
CRYSTAL
PRIMVEC
9.25771817757471 0.00000000000000 0.00000000000000

0.00000000000000 9.25771817757471 0.00000000000000

0.00000000000000 0.00000000000000 13.54960633737116

PRIMCOORD
 96 1
Ni 5.491456244333448 7.859543526144442 12.578777391252828 0.2911710052577244 0.4132714088356108 -0.07792319484004
Ni 5.658456222740415 7.421070219570399 3.6654935334814454 -0.36146959367297105 0.2814931158483281 0.10654445812115844
Ni 9.108104205107379 1.7892762252136007 0.7148245264547763 -0.3524252240825156 -0.5613109008767623 -0.4447921051517114
Ni 8.382317614545299 4.845619308049462 6.572589238309097 0.8247499874368571 -0.3345889672320431 0.3927781739782655
Ni 6.800636461996358 3.000583846184984 6.15448846638123 -0.41341050551663644 0.23592776851370334 -0.9236438709912932
Ni 6.630044488932154 7.703736129027682 1.3379819047199486 -0.04748519006515693 0.17319105160611464 0.14912989689185283
Ni 4.170333570207043 1.2017814289551538 7.29369882964222 1.313351376464035 -0.2745174558614433 -0.5124285733537627
Ni 3.8184569595706206 2.9731254540371346 3.3866158823070016 0.2026597504891929 -1.4816609316081322 1.0750144842882066
Ni 7.117370774388263 3.1726015078502567 13.233100877800446 1.1387310486105613 -0.11478870040782167 1.2217650823146056
Ni 5.018220205960626 3.6550860066936464 12.815759238764056 0.5264130605583127 1.6877189091455966 1.3327596057873177
Ni 8.1934416480583 1.9584147365221705 7.487268459250917 -0.20165007827775594 -0.9973859378704502 2.033267717823253
Ni 0.8637747317091261 7.603623164534475 11.684448486433531 -1.910676490651877 -0.39169291133388673 0.17687132867117927
Ni 2.78705457616133 2.7805926888655788 6.3526378891779025 0.05353448158303038 1.5047075290149505 1.9534375357684874
Ni 1.4483792683490435 3.4123393780662785 1.5667003129758943 -1.3361562901736925 -0.5831848181317182 -0.9379353479133008
Ni 2.811744910570742 4.038253704808063 12.456817137605977 -0.6596178015794768 0.47679154087644343 0.05649176443914142
Ni 3.542706565600339 8.210374014625534 8.359809324312975 1.988026072376634 -1.2769229584336717 3.293275388558825
Ni 4.974292333154979 7.698024116905219 10.333011414098044 -0.805743107317051 2.000463269698723 -0.11071890121382222
Ni 8.89402872971059 2.067665068867678 3.7628884319144325 1.0005283401541736 0.6277443499096479 0.6321296234615371
Ni 7.515517460532085 0.6719122253344362 2.4460835575512627 -0.4854656716116736 -0.28371223498683396 -1.019325932476651
Ni 5.160048448612366 8.892214216945593 5.528199202052801 -0.01798358106161419 0.425956460502447 -0.05848848315419605
Ni 9.132276107298221 0.3709354750716133 12.114811106102406 -0.2788325382970295 -0.1805436353164439 2.0774459550023643
Ni 7.75568118578479 0.44780693805194766 4.805855556885117 -0.7239264909598758 -0.6794466633799461 1.2743433706319536
Ni 3.9374464114506997 1.7122982984740958 12.84907776652539 0.8161414198322398 -1.4497489133908839 0.846932179960851
Ni 1.4642932859155149 3.4950941209555673 4.710181668263419 -0.9171736898859171 0.419552099638 1.1647621825670005
P 7.544392283562816 8.270030750633877 12.868603219957294 0.7961729471301127 -0.007215029691200477 0.03128569748715902
Ni 0.49924559762413184 0.330621815446857 2.708850927533634 1.0043047764774704 -0.5577522369912266 0.8438532839252113
P 2.6022334902410083 7.24150751758129 4.381089227861345 -0.7811623326538933 -1.2913103375035955 1.4832493591411744
Ni 8.13072060732948 7.7336663319319285 3.361372862121721 -0.22770255239043366 -0.49572694432836556 -0.009026628978642518
P 6.944094063049318 9.190886721151236 6.753882207827685 0.7049643480350762 0.3991871628284029 0.5982049456896343
P 6.7778532175338295 6.2929987428341185 9.891578415019055 0.16228726020941728 0.2015886289122012 -0.8333747529913904
P 2.225129597540227 8.08227496804772 0.2657946438300941 0.027254721950894997 -0.7433293209665198 0.37513089321014753
Ni 3.092318575717366 1.0608326695313455 4.912314687196715 -0.7473186446315709 -1.1216090442182942 -1.3546335230422735
Ni 9.104447406422821 5.5181925344625755 2.0528332785574723 0.3442673708620716 -1.1500331038869418 -1.1090214373612706
Ni 8.458897459402685 8.093874888938231 8.186157675387388 0.48790204896730816 -0.18060559890263087 -0.6743545935690193
Ni 5.515109714305719 5.771400384643237 11.604316455107117 0.06268658039594364 -0.9921303458984656 0.3500623802772939
Ni 4.7656233651804225 5.768493461131968 9.22621139644407 -0.39463939555672034 -1.6412835005011928 -1.622529102711825
Ni 7.051955737666514 5.621962297640339 2.6824830945884197 -2.0460268172611342 -0.40663359180411907 0.15706123592378757
Ni 2.333093107057498 1.3907129417512831 8.654729675336714 -1.2306053063140547 0.03431702811431509 -0.16104747426504523
Ni 3.2460707593962232 8.676805630129621 3.116626566365582 0.430447149283949 2.7586710504389713 0.3879391007184093
Ni 2.406034668666705 9.005658295630607 6.856019835288771 -1.9307334093027522 0.7784464763846272 -4.544601729470315
Ni 4.851812721517739 4.230647604206787 6.600148539585205 -0.4522349345830018 0.3984466851179525 0.9377070339525787
Ni 5.415255965921799 0.7292286101846616 3.3236782109725636 -1.0218024190416015 -0.2718350239332738 -0.007021939843787907
Ni 4.318966235727518 6.655984615297048 6.144475318388271 0.7538770145753791 1.8859262802903909 1.2064436214661867
Ni 0.6668565854315567 5.888010602948805 4.844051976360105 -0.2483271706193207 1.1296650817535514 -0.008604710949875504
Ni 9.1446444187984 0.46801375954254504 9.915791976941748 1.2268211566812741 1.005121873062127 -1.8759504000246014
Ni 1.0065083791997262 6.7070872196989795 6.916572718417785 -0.28435321100494254 0.9502537602693375 1.38625809192609
Ni 1.7485330074648862 1.943528325674651 12.831368677402118 -1.9832317363117846 -0.11076672373262214 -0.13163122588645718
Ni 0.6304283901306212 8.388899852177502 5.1266836322600895 0.56025443458779 -0.05282819954462514 -0.5414007922163966
Ni 4.671740845028248 4.979374820440605 3.1332247293062023 1.2808235790396587 1.6818837905210584 1.0698879616949186
Ni 2.1001041134010787 0.2973495762764684 10.830985927014861 -0.671243044523231 -1.7579809878959531 0.08277692338791551
Ni 6.170824635897109 5.35906161651605 4.951568338088858 0.818819737995351 -0.33079556162788193 -0.14752758540173946
Ni 2.475597163137017 5.00017691321074 7.539041322449714 0.08745478847955906 -0.7711178039336978 -0.37972828277284276
Ni 7.287212872279178 5.65179066564451 13.529024765475846 0.013524002628363806 -0.10683936365375793 0.310191255113969
Ni 7.282445147411968 4.205910981206431 10.919261973031924 -0.4598849949290918 0.8335724708244934 -0.7342019047439549
Ni 3.915283434106818 3.3116246618908036 8.59084308788793 -0.6052955339878285 -0.4888178759133581 -0.6307664245654233
Ni 3.866735959924983 6.098975485034174 13.307678278213608 0.710890226601208 -0.251414808405709 0.41421294681327375
P 4.7123914855950755 2.316503276063247 5.456927732804845 1.8432716788446575 0.09737179048295487 -0.7655071426151396
Ni 6.458443424585376 0.7598957274567343 0.22654839911250135 0.5454636494318605 -0.2965932047145602 -0.5906510446017763
P 5.397647785926784 5.180350624600307 1.100855636804975 1.4837934045701027 0.697524089706947 -0.5614973058559556
Ni 0.35926612129468655 3.2880915422549863 9.56794617680471 0.17390016185799725 -0.4520295034404151 -1.1739489912725911
P 4.1699447460431145 0.7020238795151836 10.219939495684219 0.34430233786506514 -0.35288288044522453 0.08477801297834431
P 2.9406216054764123 4.403961346418486 10.25451799889104 0.14768236581204888 -0.7254830368137183 0.4366504498811835
P 1.900294781733161 2.1614272386833977 3.221608164854255 -0.7858047165219112 -2.8130917912816975 -0.8266122374565764
Ni 3.240988272110596 5.229694262546376 5.084381414768389 -1.5418257740234864 -1.8956129114505351 -0.9728871813981373
Ni 0.7072239398218078 1.5189045655109856 6.087892144818595 0.4068889023480347 -1.0475674438208475 -1.1408267547973254
Ni 7.191145530634459 8.606993177268214 10.085460029730713 -0.31820718343991006 -0.9335901835707276 1.4089457633315927
Ni 2.3046626544998285 0.7804747092185197 1.3120380752677794 0.4561291274310854 0.5980812756275765 -0.6102122545631555
Ni 1.942084121637205 5.032791854389727 3.168928045272959 1.3809338514996992 0.7735726932320935 -1.8881055473298964
Ni 2.916699661676667 7.564333408541396 11.805622759806157 3.371163359285555 0.01005429891220849 -0.05428370104422909
Ni 8.134997673132684 6.6576602622892125 11.418808446497192 -0.5758065233897761 0.040179914652995315 1.6180913786554456
Ni 7.662131943487413 3.0523622640146955 2.0834013382449252 0.27974090904391175 1.3957248937659448 -0.7282325745343974
Ni 2.341008456108884 6.167621465403799 9.590086009853119 -1.3173759242423957 2.8751299394603644 -0.07897914690838011
Ni 7.7738263134347525 7.133858770482436 5.980267467787033 0.16771717297573696 0.9750865030423014 -0.5727937047053813
Ni 6.023321411995661 1.6862193063363704 11.591254740514602 0.5901075133934806 -0.8391219398878129 -1.2999065638130387
Ni 3.7351374958718178 6.91358062389918 2.0100977998545377 -0.2086429646558213 -2.1614675494306583 -0.8987195969457876
Ni 4.967552714313564 3.5189327452916137 10.572730768877689 0.43878857927010884 0.7598229477461688 -0.20209307935244547
Ni 4.4475929722420915 8.80808933176437 0.8100540446034136 -1.0874971901362496 0.923517629826074 0.7564810278571293
Ni 1.0843935623217293 7.283130218557936 2.7061004594597544 1.641616458360579 0.22650416120695832 0.25043187566714936
Ni 8.595078493959285 4.189534077730522 4.161490597793143 -2.2817908065034636 1.4241209284101344 -0.16532219038099916
Ni 5.6017249256797195 7.6948950081574194 7.77008989837377 2.319435613439431 -0.10528744578560577 0.018543053109510002
Ni 1.7596607847277705 5.5935411028008595 0.6130451726875944 -0.6992845240414796 0.9237410586907897 -0.5482772076212558
Ni 2.812911383062525 2.357607544821323 10.781746901284324 0.1695061465553597 1.1858848234782287 -0.4465258000133665
Ni 8.598031706061498 2.5746640054748933 11.650520800815379 1.6077023221116375 -1.2288821529753609 0.08800320478386134
Ni 9.159104974609235 8.249173111554612 0.8988114919662915 0.062131222113105906 -0.21880036480479736 -1.0266276083443866
Ni 5.850813091266384 0.64659977226274 8.774386608698203 0.17390787516748113 1.0803199556615202 0.1966819356392032
Ni 3.6359225300429214 4.0786914178565485 1.3347028209374914 -0.8851444293645143 -0.5076758891601256 -1.4194626037025166
Ni 0.6934382716669315 4.808662497039949 11.554426611787912 0.010703502460433178 0.19430263677374923 0.30396558591923134
Ni 5.422254800872498 2.4374368487629647 1.4230881080291813 -0.33352324497169006 0.06982370566135716 0.6691931039727378
P 7.4566198574152205 1.936816479987803 9.682169755361217 0.4388163471842507 0.812963022104258 0.3981142414791982
Ni 8.938363942116542 5.613010084151813 9.506403643601317 -0.15005266581643834 0.3294133365683746 -1.4022387836250625
P 9.14627377719962 4.190256179749245 13.534037819875058 0.02619362767623231 -0.041112967990225964 0.4852167888256611
Ni 6.368754650772709 3.7907763821862406 8.535194943855318 0.8811633332295792 -0.07557217810936016 -0.015990204780669235
P 0.7828965282966982 3.4065718196346837 7.126713663584355 -0.3625162897699305 0.5189784586571384 1.1308958688368589
P 1.4731806953767204 8.375698346040338 8.571169510965003 -2.910574396310903 -0.24930213293808035 1.6901797119812634
P 6.4767366757263565 5.81832775814204 7.133366259874795 -1.0539566351766427 -1.2540969616780917 -0.28754986356536927
Ni 6.3257988383768815 2.8470353323062794 3.9288848736697384 -0.4805368668514886 0.3216853717964976 -0.429455474794641
