# total energy = -340864.3581961162 ev
CRYSTAL
PRIMVEC
9.32556021974166 0.00000000000000 0.00000000000000

0.00000000000000 9.32556021974166 0.00000000000000

0.00000000000000 0.00000000000000 13.64890002366189

PRIMCOORD
 96 1
Ni 8.033121567637442 7.563896675864491 11.569449568311704 1.035463461468462 1.2411797393957915 0.7827918978375163
Ni 6.823381909567196 1.9414977232510997 4.776773931125874 -1.4409716814188862 -3.284107091795996 -1.1517603709906938
Ni 6.7952187174781145 5.182913272619278 7.650249499078562 -1.1348682232210454 0.019202283960063703 1.1123379033290133
Ni 1.0359578419841309 7.349045092241847 13.448260875263859 1.0117272941937867 1.7353329114791338 -0.09889105534095873
Ni 8.76505681846389 2.947483214449034 5.3046584622626485 -0.7555153215097505 0.17622161090232233 1.8309584086949435
Ni 0.04176172411037497 5.624571808161987 9.21505520257788 0.534627220937989 0.7394091599765071 -0.021619120931672443
Ni 3.571549709350176 6.361943860640069 2.720567153473526 0.29178678446485234 2.3680590308740896 -0.4807261000441591
Ni 6.2236551270344345 3.731716207406469 5.956598124327718 -0.09327139516133615 -0.488865698432158 0.9058806334706011
Ni 1.0023205460022357 2.2004125792647775 10.927596432261057 -1.203030996240212 1.5810191563934965 -2.8902212865758488
Ni 3.738300052974314 9.45024303553452 7.065530340727576 0.17826486658459623 -0.1795866707198133 0.4084500761875675
Ni 1.0519138756478466 8.847084446813419 6.781250893269164 1.0117108391335543 -0.6149988773185215 -0.08956155040991672
Ni 6.457446923615003 9.077668250652714 6.21648750139216 0.43241584297454566 0.02589640815078766 -0.1840457349324314
Ni 3.532223821588698 7.80513026955999 0.2751972842876972 0.6229505280654304 -0.7370144344920855 0.12847005454965615
Ni 6.253002665280906 6.629606092209892 2.8915466386911737 -0.6596401701769801 1.579412731138325 0.7872753875301668
Ni 8.482259202536259 6.932574895054308 2.0164612396776214 1.553531749606505 0.40126769950651536 -0.36878463927714555
Ni 8.92920533076589 5.0032377024271035 6.678420737570921 0.7776296369102866 -1.9795229200016295 -0.21948119292190585
Ni 4.911185096761097 5.73953731547133 10.395712168314015 -0.6744535810407287 0.7434013118550358 -0.8334886528614356
Ni 8.804130916097419 5.740982777316962 12.9326198722376 -2.49595367253625 0.47608731572056723 -1.9248610096823753
Ni 8.186098058706753 7.051214673119645 7.2366329233411095 -1.636677112077433 2.013216455599333 -0.30213238936523457
Ni 1.0169243734232638 7.184327720761888 11.025526938580624 0.389332124411194 0.6582977972164726 -0.2980751885767253
Ni 2.77261963336877 0.6170210340987238 4.844144576360696 0.40176237975474677 -0.5245873202034836 1.748077612739312
Ni 2.1706267396844687 2.973576132152761 1.0756726056098853 2.1453747576338538 0.032114621146357596 0.3549575035860661
Ni 1.6683147599869927 0.8183962505399337 2.9860789108394608 -0.9248594885659491 0.8525320426461318 -0.6221491152100576
Ni 7.1168013386701485 2.1442447296116156 10.671378528284519 0.8853593735887978 0.16083690091613592 0.9323606820390007
P 5.624068227906089 4.883049881352896 4.327111267182483 -2.6039037527556834 -0.6214472040470265 -1.7749636384968785
P 8.528914980689134 1.2261806208692696 3.398671540056589 0.037381011751619495 -0.3303942124244052 -0.24450342599785632
P 3.8797408259594546 1.584617856344767 1.3892119310480016 0.22753003136831135 -0.8214669458102112 -1.8428700725308649
P 8.589083495708593 0.26021577167474613 6.070552740901149 -0.7153822009342905 0.8931446739611715 -0.5167056034625617
P 2.962310855317128 5.319933730024873 0.9607089634126006 0.9042096735260814 -0.41663492599120505 -0.19955051543624988
P 6.929898459249816 3.086956294212057 13.862232754848527 -0.48137864602649355 0.9400086855025618 0.8934946011014225
P 0.9886306234900589 2.0401714767261296 12.9349671157637 0.15755488773075446 -0.7082065091214577 2.6542330971378547
P 1.6964593009554871 1.7418095006671468 8.76275806785132 0.14393086918941664 -0.25985342609136536 -0.6498141852254938
Ni 5.008180249383135 4.617038273955182 2.334385443566164 -0.6097638541718273 -1.486687438288446 0.03143507858082973
Ni 3.3664526617954715 0.8266605620728296 12.614968907265682 0.5427187396968717 -2.2478093073516967 1.3295177018112523
Ni 2.895838261538656 2.9565290079346007 12.286125404828429 -0.09288778656967228 0.506670844934379 -0.6258453331147222
Ni 8.680809706764295 3.457992361645287 12.530113769034891 -0.4095116846828624 0.19581984474922406 -1.3015806090813518
Ni 3.481352890182755 0.936202323514951 9.730286813507215 -0.19371719658392444 0.9907653472301388 -0.28317436020549297
Ni 5.386257114838635 3.2219064772322965 9.229086440596832 0.0018010577644807688 -0.6149525974616183 -2.752449237898976
Ni 4.690588967997103 4.132995066874432 13.70595221776691 -0.016494912331229655 1.3926537110397887 0.6243132127409119
Ni 5.775944302860662 7.369775812776294 12.003620611494041 -1.9403413647061616 0.29962376401076785 1.347433919970041
Ni 2.6468831039193956 6.030121774244784 9.757025059983315 0.026048103237303527 0.7903882221275356 -0.37593230606552025
Ni 0.1050216623674266 3.259861507630498 8.688849272294096 0.15876253488561043 -0.34790162518054923 -0.2849263098995932
Ni 2.6277470541952903 3.727790146522527 9.66841638373403 0.1565531859391175 -1.0668967402770786 0.4930977342356347
Ni 2.084729003812765 4.43995520952485 7.2869023561080635 -0.7331747490310211 0.9825802403161852 -0.28558914029457266
Ni 4.489501911368989 8.895353546897226 2.2885792239561082 0.36977631376645353 0.045435763735295946 0.38992682057239947
Ni 6.92371561277463 5.383030470976774 1.031119741303397 0.2127569868241949 -1.8905370395895247 -1.0172137712296545
Ni 5.154302453636063 2.1258453991507675 12.990681743186553 1.3379822876388376 -0.8822820202150548 1.345189089799922
Ni 6.426504714558189 9.264356642186275 10.59895809215028 -0.7331436386827695 -1.2377002654876232 -0.7048787302998053
Ni 2.1051240041766146 6.3627365332650925 5.120289337574304 -0.6123079607499198 -0.36098005563106217 1.3657226909768996
Ni 6.505333675726739 6.2945200597115685 5.335764801180645 2.238835128877544 1.9637222055239467 1.1306991794450205
Ni 9.289890026272339 3.041307676570977 1.1696108395674194 -2.485666431677629 -0.028529474898260545 -0.8182304411507844
Ni 5.017878832089308 3.709810466274927 11.243267580782472 0.06029725422816067 1.7401164489107066 3.399366818302965
Ni 1.8512262996013231 7.912169050619095 2.0918033738520956 -0.42268935971540106 -0.21476424706221076 0.4835897947451994
Ni 7.119048798701099 3.8281798030917256 3.3016139061805783 0.48764982374718596 -1.13001449467317 -0.3790924489610568
Ni 3.113077188596667 5.178418352557378 12.269746923283376 -1.0123042497431791 2.336861522225363 -0.36164340024667396
Ni 8.035219818703682 8.183990482080219 4.260395276280327 0.13632348915580392 0.3007306239217014 0.4441285034257835
P 0.928467703806777 5.1156293550951935 11.268532388732057 0.1846031500977982 -1.76608484795001 -0.38253129943927666
P 8.55689166157233 8.516791752306416 0.17519184080262745 -0.34031584241349133 -1.7101001050542743 -0.3203892786928934
P 8.536310150002592 0.4324336912994899 10.925835766477473 0.9374062148827083 -0.23122650638329206 -0.7941906265927612
P 8.808112930343128 4.850177281315142 2.6061621123378758 0.6193993203790622 0.8926487081613595 -1.873666231976115
P 5.77295079800616 8.728621854393676 4.217182494988143 -0.05654061539920585 -0.8406288634506425 -1.5260654258654363
P 1.489842187072796 3.6948056397612397 5.109793419462959 0.29797800087722875 0.6892374242181226 1.825170855478889
P 4.291809358688037 4.864184272877329 8.399751307831568 -1.0469295531265324 0.7016851630631722 -0.9303079132750302
P 4.440635975426342 1.8594421182206884 5.625244181059212 0.805782959416051 0.15443382560326951 1.073745644878112
Ni 0.4742439083233958 3.064910669676099 3.3405686366423395 1.2681722088242353 -0.46982050887524884 -0.7556832145461825
Ni 7.475546317635361 4.197350758466076 9.795583454132563 0.10723351376838307 1.3383797801875725 0.5251902438948053
Ni 6.874541933342267 6.698615238388441 9.661441797189848 0.627436331750926 0.5235874181840595 -1.0588291327775958
Ni 3.4916016809462986 2.590519417500052 7.496958736627329 1.0491268178881674 -0.12117120689539777 0.437257230227247
Ni 3.9954710292129394 7.7192605103691685 5.112345825315535 -0.12502914718890726 0.7309240053236316 -1.1918328135315472
Ni 4.122391904819701 4.850401094762208 5.904678067388655 -0.29317209484815315 0.6315979193277833 0.9820241107023989
Ni 9.183727847880906 5.774871863426806 4.453349511775695 -0.5027051754184116 0.27972779641778917 -0.027847618339887525
Ni 4.209940264863514 1.8651866633620375 3.3991769854245453 -0.1946142544768971 0.8661424343407148 1.4086675699695417
Ni 5.989695470368567 9.37181507345863 13.764915870396333 -1.1087854100910646 -1.7431305531466819 -0.2654926266550137
Ni 0.8517696331654973 5.341783517794648 0.8534277177858413 1.1279722674321606 -1.3437886099079694 2.1964456081677395
Ni 1.577642337244557 0.11780234275089962 11.484730583261213 -1.1928429999636165 -1.6430488199317315 -0.13682176894846113
Ni 1.3367444637196573 2.0094624066766755 6.520216337400569 -0.11804448834095799 -0.1873110359472645 0.488145789546998
Ni 2.1306573882626774 8.52399108485369 9.00034443491568 -1.6020461522671248 0.8550743494520111 0.7787238984157299
Ni 7.455822757612708 9.133509705695571 1.9328892985433408 0.4419878029336968 -0.2959635415503612 1.2329077291949864
Ni 2.972009438023302 7.07802565896604 7.526222344831151 -0.5354569159281358 -1.3987587954962621 -1.1544206914316764
Ni 8.013118240805959 1.0390725791224598 8.528897262124575 -0.01661215463538429 -0.1722274021412647 -0.04706790002208023
Ni 0.7978194017503436 0.48242149214555374 0.9068631782727441 0.31660564328074503 0.42703015318260007 -1.338682913250288
Ni 5.138327768851759 7.169127057482019 6.938500356065369 1.4614973121760637 -0.33955299610553774 2.0861681653667103
Ni 9.059884407171296 8.250173983489566 9.053342526624776 -0.11562379471460732 -0.06669415889343998 1.4377480322752656
Ni 6.141776707649616 1.69409060864071 2.084419395210991 0.2723423025869955 1.2528173236347198 -0.9461690486770028
Ni 2.8634878928773877 4.619919872086151 3.8506683917416678 0.43209702618254614 -1.9252513031422587 -0.6620924883722147
Ni 5.825640213669511 1.6110185175382088 7.6475469517052455 -0.32489667964494373 -0.23961653021920026 -1.0449454328169683
Ni 7.990233315843503 1.2405046814814658 13.521187689322083 0.44700119698788826 0.5660538148783865 -0.8494446619700597
Ni 4.377902931325924 8.111260437344207 9.18725197711616 1.6602692975750761 -0.5075974705137064 0.8402007747742885
P 4.984670511880957 1.683300935380091 10.943005988091521 0.5473145865976703 -1.8384554884029372 -0.3656594633846025
P 5.656493201049713 7.141336887804711 0.7864375554110303 -0.35872699793082735 1.3492617172073988 -0.11669851583602482
P 7.700525459737723 2.9363018676560504 7.384532579386151 0.10200903214465014 0.3599292457690446 0.33032659241126333
P 1.5047164557423613 8.212610626623729 4.311169221859209 -0.2139507500219799 0.35664723258366315 -0.7009670539502251
P 6.78427050969249 5.477377164475202 11.613467145457296 0.9503635463743245 -0.37484498653861253 -0.2832352953504154
P 3.161383590921651 7.831847999803441 11.844461273949543 -0.517104124452561 0.03279467793251772 -1.283879335146847
P 6.507767646963576 8.526536962814061 8.313285645337936 -0.06401558362001233 -0.06838105967755966 0.8981398131829177
P 0.9135328189952979 6.633326990767357 7.217238555596849 0.6806759078013568 -0.4305849604133939 0.4971107120497696
