# total energy = -381170.7762099838 ev
CRYSTAL
PRIMVEC
9.19640515555250 0.00000000000000 0.00000000000000
0.00000000000000 9.19640515555250 0.00000000000000
0.00000000000000 0.00000000000000 13.45986853202759
PRIMCOORD
 96 1
Ni 7.034624524160271 7.339430173850398 0.45006930527817696 -0.22356693295550528 0.01951235900131478 0.6597011053219026
Ni 0.1744576434875586 7.3790115012781765 12.45621983086885 0.5735817478243154 -1.7925677247318872 -0.5727841916236845
Ni 1.9161077822693902 7.661083637631531 8.016078667999423 0.13522819920909615 -0.817567867866121 1.0413212058008197
Ni 0.8794338241783562 6.155006771880484 6.28069771855484 0.3984220025276042 0.15360978704007738 0.5150541839020678
Ni 3.2866020480511646 0.3517119137573634 6.972656387866915 -0.4537261744165476 1.4968497235334286 0.06248731990094399
Ni 6.192684443458461 4.9440885268995505 10.90153812503386 -0.09329813463421352 0.41071547518297646 0.1451904526281306
Ni 3.135679844422614 2.9809503290944592 3.1679417530539786 -0.16104078939682587 0.1759166780673938 -0.596008709369264
Ni 6.589969142547693 8.255364529757578 4.374309616805529 -0.11742048160371392 0.006728062752452928 0.9800775284989894
Ni 1.3434568348715352 9.387322440794525 2.4121830235583026 0.6911652373684549 -1.2665354445517607 1.6383113052467464
Ni 9.07459868633783 8.475765573701386 9.498130845141656 -0.14381234133368137 -1.1460957165057488 -0.26137731893505955
Ni 1.9872603683076628 8.864856275871901 -0.1346556023380634 -0.4952237794397019 0.4124193452479607 0.45750646739458634
Ni 1.058009617856937 6.967030946884672 2.442495294314507 -0.14808860011153205 0.29276508921772154 1.2639273175049524
Ni 7.664054076469628 5.522156156884526 7.936840602622279 0.12004943458612873 -0.4321633606441073 2.594690204577215
Ni -0.0006483465575414536 2.4149024005379482 6.078799841614909 0.04492925641252263 -1.521094455013406 -1.3319651349104802
Ni 5.398004688419141 2.124801802557166 11.458655424625427 -0.7962752770359318 -0.08281189039090898 -0.42768758426094083
Ni 9.152354291217446 3.428199096937204 8.216280727844167 0.05882684033022127 1.1144153546833324 -0.19087767025260033
Ni 2.393198884569185 5.699269722156735 4.025106482351673 0.106467582136636 0.864661221809498 -0.8325350306989147
Ni -0.022619477913885945 5.2959429849355235 3.9910393194047717 0.5023164246204251 -0.03979450628911856 -0.9258452495179861
Ni 7.754758219689932 2.4958675507875223 12.208518338829755 -0.3354891104488093 -0.8619854747495477 1.4344979007690843
Ni 7.790909288026037 3.3956254301739155 10.201557431577903 -1.9250188754164785 2.251193136222265 -3.5999879410955744
Ni 4.37286302228778 8.624204747960627 3.990433276310559 0.0004309168898315159 1.5754720013230221 -0.4621290537682622
Ni 2.5403873477387022 2.203173566576574 11.62357915497535 0.6683819209253521 1.1033405849264093 -0.1262355087921826
Ni 7.862549283533101 7.105381664780469 2.853142369972642 1.2494849168273772 0.5160671985476144 -1.271670708895797
Ni 5.323936841973199 5.87037803491725 8.733448843805094 0.5095378820695289 1.0163246837564819 -0.4985330463185931
P 0.7370219738029814 1.6832915914790436 12.587574843426749 -0.24147260959133252 0.360309769036915 -1.4967782468655448
Ni 3.606057571020207 0.017486964243476226 11.504943690271858 1.5035819000509396 0.11142235503875003 -1.8216692700835335
P 8.472132993698139 5.722472252152156 10.65825090742909 -0.6436641064636979 -0.08631501844816102 0.4472752765848813
Ni 2.0089270986561405 3.50442809857495 9.491468049667347 0.23367908168884272 -0.2490437370703711 -0.9166514988338601
P -0.3251333834601924 8.238663858147715 0.9164006136443049 1.3694340783902157 1.2714339102946426 1.0113483135878132
P 2.143396933611759 4.273183187717684 7.152587731653037 -0.699157511545312 0.4830791736573681 0.6677352884802887
P 1.9363950518571411 0.1941241557329827 9.498763557810577 1.0922958970764738 -0.26315575099172095 -0.11776680919953912
Ni 6.783994896746409 5.2722898310916 4.026075783446211 0.3805129834576672 -0.11865435401081499 2.20836601375441
Ni 6.6646255589182095 7.98788708825271 8.517929251673245 -0.04504469894446436 -0.6770820198025114 0.3002156319584958
Ni 0.6775065187421973 5.609117363240724 9.07075366937743 0.22186537688336627 0.41892835001107204 -0.2543335247144007
Ni 5.762780095580585 0.9016670530792388 8.168108118798584 -0.0612364782129784 1.1166025921426384 -0.88368429987922
Ni 9.005349756149359 6.033798153037983 0.8999914680752097 -0.008664360543217337 -1.074825251095536 -0.1273408260412194
Ni 3.6164311159408697 0.8087401387531519 2.332958752788766 -0.5604876336445186 -0.5528396301809576 -0.2739297016787734
Ni 4.627704603224394 6.888558022409478 11.125792462702629 0.2947672072494149 0.7465658256259465 -0.9515714506394968
Ni 9.060730507489993 7.850639938965494 4.735034007532972 0.3841744914696545 0.10163982173068947 0.25579416842032726
Ni 4.854681076794332 8.144786955177741 6.510161819696622 2.0334695494214143 -1.1281445313439666 -1.6043413760592047
Ni 1.6629583398659349 3.81327097009147 5.094775302558271 -0.6460562608449584 -1.0818348496441497 0.34193795139794664
Ni 7.10611737718619 7.377714808163094 11.312453735720082 0.32572740307635517 -1.202445556050387 -0.9916215245828471
Ni 3.441349956189463 4.873837188558286 1.27363496864711 -0.7542516243059784 -0.06430817515976667 -0.9336665453346179
Ni 3.0023963457212206 6.542947923417062 12.902832207480646 -0.6990333272626219 -0.17320262157034044 0.7104937624937377
Ni 8.947311243743059 3.664399564793866 1.1922210338300465 -0.48824220591554623 0.13645487252734564 -0.025549309224014063
Ni 6.183561609627524 -0.15460996206222577 12.647929010630055 -0.6344302465702557 1.4003886177902012 -1.2238096235484601
Ni 4.136230323392757 8.31671374798962 8.614396781951863 0.045206935553941494 -1.1816139640170167 3.4319141561113673
Ni 3.9697386059781405 4.430947516719438 5.098679176511126 -0.19871207869535454 -1.9288341353975105 0.7081918538334384
Ni 7.398866539827567 9.231535338883146 6.328681801296457 0.10442612622657499 1.1985166533096263 0.03181148808364199
Ni 0.3615787367585865 1.4897256575339015 10.265477964667943 1.1902176465256276 1.4275186412377738 0.2586154399192062
Ni 5.747725580478522 3.433790511220682 13.412327762690412 -0.06200318117567386 0.9821583222874181 -0.20473385940940225
Ni 3.848106952502349 1.6359576945759815 9.352414726424088 -1.1247481040679081 -1.0718597407093087 1.1742279559655906
Ni 4.608465723814795 6.509473008956765 4.690413969766512 1.10642873693343 -0.4373101949523694 -0.0021463569190414648
Ni 3.691372620868605 5.985075598969123 6.990140593188871 -1.0121492122225535 -0.04534217558022513 -0.04180742295408929
Ni 1.4957309100455976 4.670063244983768 -0.044048941011518496 -0.10335320487737037 -0.3414399287156055 0.05139352398062762
Ni 9.308325321230255 1.3408266630210834 1.0274251335106162 -2.5913511129016533 -1.64219418524092 -1.0792827726462575
P 5.233858054297759 1.0439207252873837 5.806978018354261 1.5748721629554943 -1.5876358903790657 0.94236047356419
Ni 6.908661363895799 1.4714064186314535 0.6436150071321617 1.2767509516321818 -0.27745776943668987 -0.3643399732422306
P 3.932833432426171 4.108503162102155 12.358554928649921 -0.21839361628468196 0.3324996888031822 -0.1495682699808521
Ni 5.945108022528341 4.820856698941317 6.2905774165231625 -1.169407651758812 -0.7416416488514517 0.8049116125546912
P 4.486640945832502 8.094758511588728 -0.014697694585287248 -1.2070971958897856 -0.4404091455926673 0.42089035883344933
P 7.177702194262824 3.268990932339223 3.208159471712706 1.2276477663476277 -0.39674821436960706 -1.2531150573807968
P 5.775517116604625 6.924920608062228 2.8528867099116537 -1.5215739657529859 -0.42206149632341505 -0.8353804705675096
Ni 4.924527773312449 4.454214421550358 2.810420470212942 0.3643574567437274 0.7720012349799156 0.8663679200879596
Ni 1.088771592821138 -0.14145818316945935 6.554578616911 -2.5569219846895064 1.0849955067603185 -1.347270654919299
Ni 4.102047285741954 1.088918735302282 -0.04141233167751659 1.1761436849310647 0.4816339565704092 1.1924683902330173
Ni 5.293846204579219 2.232951526198123 1.8538278878441103 -0.40509221545892815 1.3681701240761277 1.7706007335424927
Ni 4.37072945631119 4.124835977509156 9.824075351529157 -1.292435452246974 -1.6471289035383763 1.1084691644022264
Ni 5.546784129666029 2.7461845004289525 4.4407610005712455 -0.30480145155696536 -0.07031247237231762 -0.5987325360583302
Ni 6.035324756279854 -0.01955523574405882 2.2097333623140822 -0.284712137006258 -1.0175235891605896 -0.3061093717351115
Ni 7.553494894699935 5.191692537044886 12.711271089841093 1.023287231117244 -0.6181806174806127 0.4584333500842298
Ni 6.6108173928448055 2.572537979868701 6.510955469454292 1.325010300859202 -0.1541250361135991 1.3377282626465026
Ni 2.630925955667718 7.7704288939317845 5.111950508669823 -1.1883798219859403 0.4326189601242872 0.7700284275242609
Ni 8.464251674551855 0.10871346327184091 11.854684814422395 -0.08338550350619188 1.2543805543567816 0.4585122829512814
Ni 3.1068399181183595 7.494959776419775 1.7922625540928867 2.030649049253483 0.545730529940002 -0.03146696026002968
Ni 7.229956167879143 1.360727683595831 10.016659109412661 -1.1784242534351252 -2.742038326978297 0.08116227060262797
Ni 6.909194755389946 5.008877200628339 1.6876654017310537 0.00911558914802301 -0.04995036377619785 -1.0474484017444798
Ni 0.2153834853367923 3.8131882024458257 11.463527680032312 2.7088523271446316 0.8967038520673396 1.1522421957231188
Ni 3.912877233420994 3.0927050435234484 7.583949709734748 0.8820012557498422 0.41257284010668943 -1.269722841140807
Ni 2.07732076317296 7.648548937519063 11.071226512851332 -1.2274593044859055 -0.3273641673488298 -1.4875965803662767
Ni 8.58158860685925 1.2714765723768267 8.044451416926046 -0.6031383784355097 -1.2727935096463305 -0.08955537976232963
Ni 1.7945037180088137 1.887267855965135 7.734982270224156 -0.7881475057224749 0.18427970532010846 0.4413630248655044
Ni 2.235600090858718 2.2193224538821457 0.8100009658884559 0.14905044980416912 1.1153417231523437 0.2144955667818564
Ni 2.9983959095151134 6.097418883322689 9.479973462968468 0.888364736074025 0.5047054936778921 -1.6016219202455124
Ni 8.031698762013383 0.8600753915028277 4.000300099311783 -0.8192110598964989 -0.29907740458899457 0.5249894407379088
Ni 0.2157734129118243 2.2858584445745205 3.0641658396650313 1.366471653327782 2.1734514612654117 1.4788275759243952
Ni 3.4595312490158383 1.6649447633613812 5.025793987757382 -1.4193677299958654 0.7707305957976082 -0.5944837880843051
Ni 8.319932489764648 4.547732664722543 6.048111437891282 -0.08861049935055706 -0.6453270959884176 -0.9844720580222592
P 5.982886854562104 3.707944542807466 8.440023745390961 0.9057677620418206 0.09239002099764733 -0.21919940001542895
Ni 6.8702387835070295 6.854678466126036 6.27920330273072 -0.9646478242074807 0.014303303996549558 -2.1698861125116564
P 1.504559458914247 0.8723590297568437 4.594176349614682 -1.4380545077720912 -0.15342595316404545 -0.21746724781567062
Ni 2.210493905013496 4.967815251984047 11.183266315837539 0.8737757825162565 0.2754268550495902 1.5216994355872568
P 8.411105649643599 7.576614657049712 7.353771967559418 3.8276925503685373 0.45153430897155145 0.894175429218531
P 1.613224181239209 4.31956985489838 2.5116918049940695 -1.28581306183445 0.213904984385709 -0.9830255553837199
P 5.756793235879031 8.839492590684676 10.26594974024811 -1.1074615490733186 0.7439006200889575 0.8925749175006306
Ni 5.308624827529136 5.964631990495157 13.268374594825051 -0.3348651037115652 -1.142021289326059 -0.12560276030419015
