# total energy = -381173.72233304457 ev
CRYSTAL
PRIMVEC
9.16612482593242 0.00000000000000 0.00000000000000

0.00000000000000 9.16612482593242 0.00000000000000

0.00000000000000 0.00000000000000 13.41555020884485

PRIMCOORD
 96 1
Ni -0.18453151233987955 0.9897306815513276 2.0116482111190614 1.7819521539995697 -1.3451744345119028 -0.35448030683933146
Ni 5.580786053806313 2.9527205179886025 6.434540937099296 0.6696674725059951 1.129944303556867 0.8941031812196988
Ni 8.898785820065399 8.12862966342736 6.510540029498108 0.5969795579229654 -1.2609348105355316 -0.9768163412492145
Ni 0.9527728654607254 2.920345764409236 4.520986762745712 -0.02547731833549806 0.3270715758090754 1.16962825241005
Ni 4.7932600902506906 0.7923235133923834 10.7999877243387 0.3737900629115369 -0.013769285869950482 -0.28433212795902
Ni 6.267603801740049 4.50333555578994 8.17565096818013 0.3278081968647838 -0.24289237275699457 1.0247843844880609
Ni 0.036032954075834886 4.559698058553113 0.2051947079780354 -0.040795693860123286 0.876490096123626 -0.19249386569978463
Ni 8.974974651252175 3.165722931260779 2.602630455492856 -0.4895465265492666 0.01789616355413047 -0.12967410216008635
Ni 5.514469139268737 5.39587781372801 1.4488930487519656 -0.48033040726763726 1.1536832990450194 -0.15182801254930628
Ni 1.0725191227542836 1.1423924938005785 5.855780803830464 -0.6836632725644548 0.42907520863708687 1.3370093822026072
Ni 6.587739884274863 4.73326780197862 12.484484100830748 1.7376355914703816 1.8351847880714653 0.11095955646971858
Ni 2.2552150682786665 7.051655803912155 10.247521537309328 1.120843112586547 0.35534471172215576 1.3416625647039022
Ni 7.512913547292929 3.0671595888941505 11.168043391878491 -0.3268969979044241 0.11245850961274825 -0.9746931242586244
Ni 4.4565241553001815 4.946041062125234 6.829695336655518 -0.03583577875168667 -0.6133315169184276 -0.79699132926635
Ni 1.3427456545417449 8.766802785866842 4.198490403017612 -1.8101152466973471 -1.021087395252448 0.6149081173769281
Ni 5.198586138744349 3.4601022024824504 0.2619330218671295 -0.3489195249221023 -1.751606708938493 -1.2088074937126732
Ni 7.706327951392085 8.962279568096054 0.3254973490604577 -1.9592813961437738 0.8962423390498887 0.2969331045524822
Ni 1.5732645327318626 6.034096766792605 12.18805436744155 -0.5404003759763403 -1.4768807366106695 -0.5471693192690575
Ni 1.307996874581558 3.647008657815652 7.644126626989598 0.5411951039634938 -0.59503734659493 0.8689243679612261
Ni 7.860108030894077 7.118174373200225 4.52706390363561 0.6646144834631199 -1.0126125250122175 -0.8514606639588239
Ni 3.1316249461771877 2.517256250421061 6.6799245202383535 0.19707017221655737 -0.5502934667203361 -0.9881142827605369
Ni 3.249391320465892 2.947266673600233 4.164240260258647 1.5222514514359848 0.7925780306900028 0.31847586372026443
Ni 2.556294776891764 7.774056449183122 13.194328071433434 0.21355917101051605 1.1757379648522137 1.0443070279020208
Ni 5.070333717429937 1.089329796045495 7.88236063261113 -1.8735865277781154 0.8708403540370163 0.6804319101113507
P 1.3471087300524411 6.825619160858025 5.44749134711704 -0.1807791483660177 0.12348802795403248 -0.9237140621075963
Ni 4.603622129660793 5.810461648494363 10.033517266572197 -0.34477130708168363 0.21752586896774795 -0.5452818724383577
P 0.5678249461170245 9.136747591773762 10.238439740637064 -0.20441324284518989 0.035766873186964206 -0.013643816035679726
Ni -0.04789483646741433 0.6904044526550285 7.942166848545244 0.6617060515670733 1.1113529137079248 1.8964768021127274
P 5.494936126845851 2.6471127436144046 9.474182902063486 0.9971581381303601 0.1593996542489771 0.01370372273933769
P 7.696217715492299 6.666330240217528 8.193305841585913 -0.20235841719869022 -0.7024888899113902 -0.7777183399693509
P 2.314061590922929 0.5164277332785241 1.147010387586899 -0.9438383436612972 -0.24822432649286932 -2.2568655040166936
Ni 0.4332625643371444 7.022672516591102 0.4160604975074735 -0.5423431015250079 0.9813612803074196 1.5819902620575144
Ni 8.047912766479481 2.84764922685602 8.849299744294084 0.6063872243901104 0.3283540420659248 1.27539957981061
Ni 6.4188906952359295 7.37858398508862 11.760702120518896 -1.2361072099688906 -0.6192093158554433 0.07304632636371292
Ni 9.00389377569807 4.859439512912929 4.91370022320845 0.34252621980124875 1.2578870248481433 -0.9300929690507467
Ni 7.095570708894812 0.6924118340349497 11.444242570730593 0.5454518223573187 0.04447828491803307 1.9816973019451287
Ni 5.518804716404366 6.898709841787207 7.423722567761778 0.18861972745635902 0.5630222271409142 0.5653896989318263
Ni 1.934015715241245 1.592568392029186 2.912744296928101 -0.11815221756341587 0.2868299546802092 -0.025463434378427113
Ni 4.411848461940659 5.980502433786218 12.60083797525349 -0.3994093061415379 0.1043991296433815 0.03973048582040254
Ni 3.243488335951421 8.71919393250013 2.858987723508817 0.4633120183327698 -2.345720001057257 -0.5503770275730779
Ni 5.956478020102323 1.0369912221671869 5.457110278715621 -0.637617900269618 -1.9699244776799172 -1.0647434413795016
Ni 8.334922473183086 3.6176495593686786 6.80837859630326 -0.869962065197121 0.9093084282052274 -1.3714935320224058
Ni 0.6767753413591167 0.47865688189842875 12.95588049509888 1.8661007609240314 -0.3250581449234724 0.5849956460882119
Ni 8.446630038831938 2.1973218226367406 13.099627334151275 -1.911811632697585 0.3636424329545737 1.3477635353953175
Ni 5.8361542969323486 8.059947888633985 2.0877279654180714 -0.47026582394278366 -0.11059574537239662 0.37929068101479196
Ni 3.2599323642417337 6.13316424603547 3.5862986619543213 0.5180469479818046 -0.12761644830010926 -0.3668617112228198
Ni 6.896583300781994 5.535065422194228 6.0002792651347026 -0.06804681626659248 -0.34616767320857805 0.46694987219567324
Ni 2.6902210295950844 5.834394400928034 8.09435293890583 -0.36290401212665246 0.7268670616454386 0.30143587751884215
Ni 0.588909783506214 7.467513730056631 8.925660898631284 -0.8305534814925115 0.5368201148242496 -2.0304446465521613
Ni 6.8983065322862185 9.027313225130484 7.394570623740311 0.48932952544245395 -2.012799422666572 -2.0511497403099965
Ni 2.13718287636431 8.495787967327448 7.265044111047777 -0.6568137564717785 -0.22366874864069222 -1.461902260923966
Ni 0.42514229417973753 5.742128186451843 7.0616102156865574 -0.6348043420802228 0.65602468491158 0.26158763517365274
Ni 2.5219218080574985 4.7404540439962375 5.6792045713975865 -1.6841700154520738 0.013936407575434065 -0.708644882210457
Ni 5.47979368830873 3.3641145412471367 2.567749683332346 0.24079023881232725 -1.0639271161257935 2.3219874333270076
Ni 4.962191774414827 3.723059997127092 11.296778867981585 0.20721960194573347 0.282110694827669 -0.8233397373528918
Ni 5.393668777597595 7.613539267789614 4.6148423833007985 0.7755557851003935 0.9632206048426508 -0.39233568712420813
P 4.292019709521899 7.810299307521971 10.922176753950747 0.20570676484563283 -0.5115471991900739 1.3088429470707201
Ni 2.196029399008572 4.75267248865119 10.38576870134824 1.2650663162054019 -0.5763875927042267 -0.6513560757913169
P 8.576908173776316 5.9313995020408425 11.879094541146634 -1.1502264508446707 -1.679469524652611 -0.027190187261546723
Ni 3.651078417325629 3.6117099103541173 8.771637000203693 0.579661378359492 -0.05082582440261568 -0.10816785265719436
P 7.952337580870179 1.6795090878673213 6.239720449421693 -0.08330914174230168 -1.627382059928752 -0.7138202557638093
P 3.9411221114116723 6.794747651782343 1.6338929500804933 0.5273792811263239 1.3898015863029742 -0.8184327869695776
P 5.104495865388686 4.092628991908091 4.706818948226281 -0.43190213656292065 0.3733174941504926 0.149382122111975
Ni 7.3227989482018625 6.540690164534521 0.49922749967385766 -0.10513703625067056 -0.1398718686286946 0.280854968043697
Ni 7.0216642428386296 5.524102736667354 10.13108791759889 0.21432870218668892 0.17984738058036767 0.8477569898549916
Ni 8.505284072850728 5.563544572639045 2.622283544153536 -0.793170412858363 0.008719639261184983 -0.9981773234234937
Ni 3.129434242296817 2.4985940198753105 10.989737511653873 -1.7215787951178352 0.41898877093536224 -2.2804710592507753
Ni 2.507164346771321 1.2518910233190146 8.688501162862385 -0.7500069900970115 0.8573214936149751 0.7759296235000442
Ni 1.5394506975239677 4.663055284306494 2.8456390956385924 -0.5860546834803455 -2.2245217975786655 2.351181281282144
Ni 1.1018782212012577 7.005926006175048 2.7339150309647007 0.09013850595930928 0.570289964446921 0.31687380934046716
Ni 3.223927825153468 0.4779730889717524 5.08820949444876 1.6330747394381553 0.7460413205810442 0.29819243088088
Ni 7.9877096573318935 0.12922769701680206 4.360067188463717 0.36678072147323926 1.9596140968928444 -0.21182444770759648
Ni 3.541735711932575 6.927711461358305 5.759322920381496 -1.25005055952286 -0.21522910251377125 1.047652804445802
Ni 3.6311695937768222 1.6172527667146999 13.015700460220527 -1.4782105111656865 0.597448527139584 -2.8817279043928563
Ni 3.4544558694686085 3.5166205293710053 1.6687471404784384 -2.1576939413208387 0.4695045202967269 0.44101386905620177
Ni 2.840976287839662 4.0653047732161065 12.669646242572174 0.5817254599773724 -0.0686628525840366 0.9429320297969439
Ni 2.4305538738335097 0.36728662965040426 11.297945715696946 -0.19664105509893876 -1.6554371662937555 -0.59882818109593
Ni 7.237819803118536 3.169737694020621 4.410805356913102 0.2935163655614493 -0.419524074613542 0.3192222549679857
Ni 4.336805396381691 1.2768137172551126 1.505747772428845 2.3602053391576256 -0.2577217244603432 3.334304538585993
Ni 7.294301465507001 3.8092124062132955 1.2720849133560197 0.14517811133295644 -0.055158390339698556 -0.17844124426146044
Ni 6.796883358912579 1.252679310070947 2.2675361735338715 -1.6039580245778569 0.5652475169270073 0.043434417034551004
Ni 2.306921179530424 5.569374228153337 1.145224826432522 0.7766353913178173 0.8716363675757506 -2.640994486960394
Ni 6.933000315496271 0.8577586467027978 9.26602661909069 -0.6089853241345898 2.5181312370745537 0.7523248395969108
Ni 8.629980037656422 8.009946676636407 11.919917712159211 1.7520034301562795 0.12884774960404907 -0.740802440779608
Ni 4.74098567924754 8.38687606981045 13.172957250943542 1.0048015136082307 1.0824362306735746 0.08982997357995497
Ni 6.377221490883777 5.445549045224779 3.6336957778330157 -0.4457387853356969 0.33389965447450237 0.11355482800072056
Ni 0.8152021614484705 3.2492446624655327 11.748198609375743 -0.2537236590445437 -0.10719983231697022 0.4591766560081576
Ni 9.24046229640302 5.218834108918987 9.424464923329104 -0.05533733911972405 -0.7780420418573568 0.09112683801450758
P 5.938640740808594 1.389263739030784 13.173842698620712 0.11072995695741575 -0.3421012164486883 0.5352034051564332
Ni 1.4133248172147699 2.655142269134089 0.6647631345171687 0.4197888982391544 -0.558888921698831 0.5416663871729575
P 0.9938921023115294 3.024967915415717 9.729225747751224 0.11280920808394766 -0.529314550475824 -1.769745841741365
Ni 7.609799488780445 8.032568673191864 9.91913594225429 0.14906459087155619 -0.6958873254344725 -1.7995140741427331
P 8.067711596528017 8.04630869460055 2.2159400557823834 0.6513303647597041 -0.77337368984741 1.3437770399437439
P 4.415716566700142 8.644123368566094 6.637276373733802 0.551492886345076 0.39289670183400077 0.5673049136766681
P 4.92235579506717 0.7259809337047444 3.5188185661513938 1.4047918890642193 -0.05651747547075428 0.6169917393788342
Ni 3.638035021418653 8.27231783927961 8.911668808784482 1.739915131533178 0.19975234703441083 -0.19167522645323118
