# total energy = -340865.8960986328 ev
CRYSTAL
PRIMVEC
9.29721473586677 0.00000000000000 0.00000000000000
0.00000000000000 9.29721473586677 0.00000000000000
0.00000000000000 0.00000000000000 13.60741354280878
PRIMCOORD
 96 1
Ni 5.503300425957702 5.759438696927471 4.764432162055365 -0.04751861440625364 0.438738956979096 0.5371736415089264
Ni 4.592201255713626 6.85136869731173 2.567923300391952 -1.1606612730247496 -0.05337533029734678 1.1777634799226748
Ni 6.758275684345476 4.398149785961139 10.12324921959181 -0.5848660624888832 0.8349816924671941 -1.3905492631022762
Ni 5.985017022464294 3.961757112176058 3.0551364103576115 1.6087826996600099 -0.06781104610670256 -1.4055341665468826
Ni 2.1965878879902094 6.143320700860019 7.541636699955723 0.7989291697190112 -0.6689447354073575 -0.7568232416878965
Ni 4.1199864128524455 2.975136665159297 13.460507757169871 -0.543182823817484 1.2974920408342752 -1.0622085907727898
Ni 1.6815407760053382 5.349998649187449 12.067789611175833 1.0747853989965361 -0.5652333758596201 1.1429962516448187
Ni 3.7369783471221174 3.7164129077251977 2.194616878427756 -1.0826843421286385 1.3696575072549315 -0.435957794689533
Ni 7.298880840137821 7.240922002343791 5.04645945768366 1.8007600307346923 -1.0387436748816303 -0.4719388407698324
Ni 8.358010266294082 0.8548045339202323 11.889464380455848 -0.23532073105732376 0.15325240370065865 0.03157494659280368
Ni 1.3769919069615384 0.48873506404761025 8.573909261380575 -0.609365333181828 0.195181954054909 1.4316917987788569
Ni 0.4099597620538954 4.062120547207588 5.6974244139865435 0.26516995320827236 0.388162529583125 0.9202854960420215
Ni 7.616482998925416 7.841512788782122 1.4813029394469255 -0.7094532370443652 -2.4315704211641735 0.31462949339098073
Ni 4.675495004157115 5.135093526375609 11.343983765160905 -0.7831320547857544 0.9909432675688999 -0.8593110132411781
Ni 9.21954598381439 6.763612285707968 6.519080657840873 -1.9124284403459775 -2.50109202220408 1.362128545867738
Ni -0.12101161964121242 2.3262561444408574 4.033332650937868 2.2483253277561666 0.4372042655021244 -0.29392362830219704
Ni 3.919631431386076 5.479471664124834 13.553201919616177 -0.8957995950855153 -0.2904390121877063 -0.48599094798752424
Ni 8.777705142087813 -0.06693622851811037 5.088600943739002 -2.190772726152679 0.5713880826071063 -1.8255935448386043
Ni 3.477632537005904 8.17899239306276 4.441296300949034 1.6471222186701568 0.10754898812627284 0.7542230850608882
Ni 0.3422174650024609 1.5179841711813762 6.375304807474817 -0.05918962298627871 2.406128326941985 0.7365248964501767
Ni 4.57065031153548 7.665098135727627 10.168072022429282 -1.5793037163642865 0.6066034541659746 -0.2332761898234692
Ni 2.61322398007617 1.2003541207490296 10.302635262533853 0.3528062615710182 1.4923965728580812 -0.2008566358421831
Ni 6.713379433510158 1.3880834843577974 6.638227256169689 -0.19203723777834023 -2.3670367602571623 -0.04532854873347032
Ni 0.3074542487054352 8.710876761262742 0.5035046196651265 -0.7586770070671838 -0.07754755666817613 1.5331200187193728
P 7.996488064237479 2.9863584035643975 6.960641653398444 1.5110998056945395 0.889942622084106 -0.2125826660298597
P 0.6333095451750579 9.122631815517154 10.757327644440524 -1.3952782931468293 0.7085307252300959 -1.421502516950681
P 4.728981881575956 1.0494603226423387 10.139645787819843 0.4238887793401409 -0.8173580658481601 -1.5500777296196335
P 4.1674486950049205 4.054915205646733 8.613493083612184 -1.947662323847607 -1.7410207058925309 2.4176926347408165
P 7.619634754782357 8.27858415925616 7.166643763205541 -0.028164892469990203 -0.8651682433529035 -1.9657047831716148
P 4.147152874840601 0.44118352863193055 2.912217763206923 -0.23159186014251082 -0.05349848613877238 1.3117956019411408
P 8.175961500999744 3.0279820347488493 10.895021256807725 -0.48384947616448926 -0.3487081802422446 1.4364871632849712
P 1.698880081825978 3.058207280444774 12.191548557825088 -0.39533256496900304 -0.15753149069198677 2.0524550893849813
Ni 5.359723535990875 1.847152065326009 1.5580765510689598 -1.2324526439354389 -0.06336226630672959 1.7334598628261373
Ni 6.437698416784366 2.0639259283362126 13.110770704742352 1.3611217018697785 -1.3296341727844585 -0.4667722089672283
Ni 1.037457618184191 8.608877016405778 6.676355134545261 1.8125536809355105 0.06437399540069558 0.2318533413340136
Ni 2.1402374683768604 7.397198887887559 13.529307147557397 0.14307186362323102 -4.178465326449294 0.25307985481295764
Ni 1.6966394530309248 4.0757223726315 0.5948293023541225 0.0005108781981475073 0.13960267412770797 0.6465838512136542
Ni 5.237818453996115 2.790977432078747 11.324511678238254 -0.7437486678921256 0.7766374482003464 -0.6812356369595687
Ni 2.4790651688204983 8.594568602648158 11.428554021212532 1.6775476250395494 -2.182379102772345 0.6554078772631874
Ni 7.854008245630883 4.944742348160181 4.362577711966314 1.1186610173335636 0.13231205400356566 -1.426553449111027
Ni 8.929119584229868 5.163868406544445 11.209270839896167 -1.2312056589022151 -0.011141618439116294 -0.20100036050889902
Ni 0.8281494187525255 7.489631798594689 4.616695698134567 1.598517827398892 -0.23534592786830436 -1.9525494767365794
Ni 5.850653672480444 5.838492915368702 0.9881740116294307 1.1904032801738724 0.489223338881893 -1.0025816231387767
Ni 3.2383129278214104 8.359860412062611 8.10570523703469 0.6124609413880162 -0.19104376351681937 -0.4880635142458369
Ni 8.923225149972343 2.5919612495604585 8.938506052410306 1.506082040764974 1.6338923502434441 -0.2621831026658065
Ni 2.4711532389259334 2.557505771077193 4.8372312143002825 0.27658333725153655 2.5889525307624894 0.9864482079120237
Ni 5.067270343554395 5.913651600759614 8.662765533509043 -0.31140378736483143 0.37790202819738145 -1.1682696814996267
Ni 6.97800606169936 6.998515717806776 12.660882193783417 1.1044119636137173 0.13063929428683307 -0.2075571877908103
Ni 1.9862848865624 2.7780636005587103 8.138430503821857 1.0349577254766371 0.33879169245948104 -0.55783502651302
Ni 6.7320668354937965 4.56496971322105 12.551777517286705 0.3856179087844004 0.19859715038404507 -0.19656366489378407
Ni 6.720277966978745 1.898835283050907 9.670054619008306 0.23990166555978687 -0.7346431060464315 -0.45765404871604404
Ni 3.141891511914787 5.914534836176751 4.562552437342569 -1.482044797310112 -1.1716928482485627 0.17938432490102008
Ni 2.871389043897895 1.7175117005201128 1.421103472857842 -0.6038104648018698 -1.7896610926080534 -0.22871865235977382
Ni 0.11096597892314221 6.327703067098584 1.9560661489169178 1.1286944903101657 -0.3690862296779644 0.45419102986810805
Ni 4.714124932138218 1.391895342473863 5.190098638990434 -1.056550106935432 -1.2699580970800646 -0.8173099862190439
Ni 4.241473120175929 1.646006820591674 7.667668815652241 0.41581011609706453 -0.11951824467300706 0.8230893119049825
P 6.3695870203007185 6.615024196900751 10.582050040770405 -0.2870760092527443 -0.9717692657436102 0.7635770154719623
P 4.2425051110317415 4.005537697221309 4.217618326141293 -1.138016024821408 -0.9631504137263478 1.7924422548976162
P 1.3367814524445059 2.8654295291359486 2.461662641938422 0.34885319046054114 0.2698789286481674 0.7090254054783273
P 2.4246764615546854 1.0450999288461564 6.671130099761776 1.2577918940311759 -0.011282514892354762 -1.03989064400188
P 2.7898152802140928 6.459174983243175 10.728261761444777 0.4842192007990822 0.39731000041034803 -0.642992277207654
P 2.6364577201543353 6.050655359779959 1.536263425430148 0.1257480276328028 -1.103304075261519 0.9571363463217837
P 0.3292032235613182 8.671084681416984 2.7743884115019277 -1.9446533618179542 0.6444248958891223 0.1443533014388159
P 6.763742446716809 6.280705645691971 2.840153190940467 0.6478740307799875 0.35070541317793147 2.169705363959418
Ni 8.755884578677065 3.1871689485617116 13.024989021587013 0.7108187499333243 0.8671922157614678 -0.6586569803281044
Ni 6.04860067528325 3.247972734120416 5.4517696825574475 0.46721238182844055 0.31315008063197686 -2.0564102173779872
Ni 8.395087559384006 0.5081690323891023 8.282029707104487 -0.5315735217133297 -0.6492439145443206 0.7201906780665275
Ni 6.046982959887652 3.469906551409683 7.788543766234171 -0.341508834280328 -0.9010014510014289 2.18494892038205
Ni 6.276903084790823 9.077075462422712 11.108942734281323 0.979150902919662 0.4283689265986816 -0.06167176597818411
Ni 2.414486714005398 3.575020863263919 10.414883327394081 1.529497848585753 1.5455045084266543 -2.3376997018559416
Ni 2.069048693755608 0.5835052945849327 4.109126336107626 -1.4620189890074886 -0.7445130568619758 -1.1503051266014062
Ni 0.7306560339659455 7.210520109564439 8.965679952170394 1.0242747918414938 0.011027461458755203 -0.2557013515962048
Ni 0.40246341766613053 7.405975458769427 12.172865804448909 -1.6238318806836485 -0.8485812855284999 -0.7691318838519206
Ni 4.166305137570101 4.211638357506529 6.573795697350281 -1.2775137979401354 0.9802171394006473 -1.739345632182953
Ni 2.267720879321959 8.052299245385628 2.359403504785268 1.3227811544183672 -0.024309009059009748 -0.6231808989086816
Ni 7.274336192756326 6.746403140896169 8.64884481361347 0.739064632152895 -2.2927105387397613 -2.471323275582079
Ni 8.323647759959988 7.617803203443662 10.293749914237454 -0.7366922752659764 1.8846091041408641 2.436169867609398
Ni 0.05276727298424736 1.7909689955811703 1.1577961194653958 0.17495200016127935 -1.2150814996468429 0.5335237034611651
Ni 4.788279518318068 7.927307488038348 12.468527465753326 -1.0418953331367347 -2.3899031233323744 1.4670421532536928
Ni 6.320358267313969 8.94443209719855 3.800536897460797 -0.7135991408919388 1.0946857374648888 -0.7119484926623932
Ni 1.294925390887123 1.0457135450306938 12.901297944606654 0.7442677736203892 0.987266590048261 -1.1372732331181123
Ni 7.272625505211554 0.6565832632773672 1.7276382270079627 1.1762460148368838 2.1343136147236854 0.3613898894749712
Ni 7.136337631739837 4.943040957830327 6.5620663310107 1.2226032619451848 2.4259505038742346 0.1774698814871266
Ni 6.075813623345991 8.78094057287901 8.657852885146779 -0.9545606151748077 1.1475054523690817 -0.33730945148699976
Ni 5.042298024286707 8.741706325928286 1.1286642262437379 -0.3128389771494612 0.10362008538551187 0.17569890562963286
Ni 8.446761479893986 3.7606862451610614 2.0840302258732373 -0.04591373181297899 0.894639256228827 -0.15936494435629975
Ni 5.673913616903844 8.337072938300473 6.067124446284345 -1.76576140317232 0.6365156683443747 1.1469786333313343
Ni 4.204284260506998 0.7800177371260104 12.281235071245668 0.86042661490286 2.0465397523418107 0.10303695918853223
P 6.7051328038785725 9.089728971925066 -0.2876149217935518 0.21444285916705005 0.6572336176180165 -0.05821903154289328
P 7.272718477360727 1.7623521680659273 4.077829121531745 -3.0190911476670843 -1.1868726413127946 -0.01698445037313849
P 0.9727397051453324 5.490209947354239 4.005260640216775 -1.05464286261039 -1.0778270140363373 0.43049291492021985
P 2.934591510905244 -0.1676380821726274 13.629594345426604 1.3666955964131302 2.7386467847982447 1.3802543089341712
P 8.629488941877284 5.697881836960472 13.585737523219034 0.21347098217208396 -0.21570732770177045 -0.9728676410141116
P 3.8835954263668806 7.0460244860338355 6.355396681172546 0.2603630187379323 -0.3813431926684465 0.2101025799204833
P 6.135501743114626 3.7564281207289687 0.7989821961141822 -0.2893851170018952 -0.7829271378638 1.0073037112047942
P 0.8522412917675513 4.552595120166213 8.387705570739724 -0.18127177173172007 1.132153909613676 -0.06259762022656316
