# total energy = -340886.0344646337 ev
CRYSTAL
PRIMVEC
9.16024999300892 0.00000000000000 0.00000000000000

0.00000000000000 9.16024999300892 0.00000000000000

0.00000000000000 0.00000000000000 13.40695179703324

PRIMCOORD
 96 1
Ni 6.878431797915123 2.1600877356481063 11.680391539093511 -0.5793011668065958 1.505822359345684 -1.2747102670530692
Ni 5.205092271676813 0.583371443459055 5.866667518289871 -1.439654248159043 0.00668589666060784 0.18812324743591474
Ni 2.9457532262265884 1.8391492132459835 4.700209515149781 0.6988371520914157 -1.2325524027380967 -0.5328644726106113
Ni 3.6267445389454673 4.307305319909783 4.333260888559925 0.0022530577002348295 -0.10333340738302849 0.5175180720615281
Ni 4.060793829546626 2.4916063469123846 2.042843862605258 0.8315891218458775 0.005769555493925547 1.2657756835676006
Ni 5.0306078278271835 4.676518360323641 2.131558136720677 0.038886649762868514 0.8894271159002682 1.7539289293137663
Ni 5.582622819178843 3.372611720501521 0.29483364167539716 0.751465576920409 -1.342623643065591 -1.0617352506807973
Ni 5.780694907028515 8.057227741911003 12.59615273360108 0.4211227865592295 0.5939117176309191 -0.7097980219782937
Ni 2.0891507588961358 6.755501241611992 0.4062506796314785 -0.3497201664465267 0.021642517970440145 -1.0693837683649905
Ni 1.075211835897831 0.031044087579084237 0.11670616636214894 -0.3150871497536896 0.08693825385445672 -0.6728417564689186
Ni 8.589520714803598 0.21309214993389286 6.997799016930482 -0.6357957594592147 0.3751226656800314 -0.9152754444219398
Ni 8.842105450981133 2.5662257442033907 1.3168995385598525 -0.07285323651630032 1.03519992339443 0.18012788793526396
Ni 7.025701138726259 1.1751135234568435 4.549715766304465 1.6175275357321754 -1.5200462162545498 -0.02419305230643575
Ni 1.0481799378612782 7.903060732776748 2.331308382388139 0.3603161967948182 -0.8652839429951614 0.29886991656387885
Ni 8.13291888846337 3.843869946997115 3.8910864561226357 -1.7240696798604886 0.39343817615976756 -1.668860638788513
Ni 7.924394955252903 4.2091898811197055 12.831177270342469 0.2487388042354426 -0.24172663458366758 0.17954321907638757
Ni 8.209855829028944 7.671049918317307 8.710617389037289 -0.12097014662818521 0.023467229884004747 1.3987837351969263
Ni 7.322676446874359 0.7053493337520872 13.333159891688759 0.23627769565395437 -0.5256450720440367 1.4291942291679838
Ni 2.372944467154504 6.42115211306771 9.196297513285762 -0.996774015318064 0.5268095246657831 0.4024799746470617
Ni 0.5299149719673873 5.121669874042491 1.3898719228833993 -0.10342339599367349 -0.9258655612329602 -0.1931718656034157
Ni 6.59500449966064 2.562561644164549 7.488279112229836 1.1543494718741087 -0.07772084902124679 -3.401462010269097
Ni 3.5583266309702 4.5428977921571905 0.06804416977130526 -0.595452836865794 1.1290019942482556 1.1366561683594039
Ni 6.555707026744065 5.710362506782952 4.39950506918715 -1.2524776809071139 -0.5068361668676498 -0.08603579664484538
Ni 5.708292290261007 3.1029522781429844 9.369220134493837 -1.1017930379336316 0.42058465466757244 2.646533671611068
P 0.29078206305744825 5.785797166332601 12.600724614424543 0.7518466144089117 0.9041178851432237 -0.2943941401807123
P 4.110891237327686 6.657321681071236 12.543611371094112 0.6239121206477514 -2.2592599723907996 2.1222643968686357
P 2.916009894161293 8.915094323754856 1.1764536680460496 0.08597409016897452 -0.29224598348945796 1.0238495313786173
P 6.971481618401502 8.487548810722641 5.873827169765767 0.047947731523872265 -0.7856504503322341 -0.3939500827991796
P 5.013102589891617 1.4324982306852614 12.507841510489932 0.6175319281530203 -1.047678772587731 0.5731796272898902
P 4.30332977136764 6.6216974684436 8.169110120572016 0.928032229866976 -2.854125312184239 -0.4973644799317886
P 5.041664249694387 1.3402453519573307 3.530774430728132 -0.8935966738969255 -1.3551297459524017 1.4175052228658296
P 0.35459877740894014 5.790835303886008 3.597902575489727 0.6954191275488023 -0.1792683681484461 -0.3570925476511979
Ni 0.7666332389517299 0.08091890128278442 4.4450745653452115 0.2868371537690608 0.4590383306580804 0.5816701812594046
Ni 1.8889901340243245 6.964684712829452 4.709420146622419 0.04179842409302479 -0.14632148090878025 0.47053141889934447
Ni 6.237168489867384 5.912959758180595 9.338290550040965 -1.5320545535693357 1.5046921023959827 -1.1388814581454967
Ni 8.946303295835687 2.788380129558348 10.57308401890545 0.24240592003887929 0.23029628125953888 -0.27432745133782427
Ni 2.457099684796595 5.735681438051347 6.951289679112456 0.06805555801734085 -1.6471057636099249 -1.065755427583784
Ni 0.617446657795271 0.38669904182422044 9.097810168341743 1.433667177337673 -0.2651049042982918 0.35211926280632266
Ni 1.7694122292567334 1.4796551981851511 11.350137958367645 0.15713399814325196 -1.1627109564649267 -0.5048859851198143
Ni 4.103746242251945 7.098946498502699 1.653653232754625 1.5726144772695692 0.609157588046396 -0.7087266432909859
Ni 6.0349651292239175 8.254044875497371 7.908010015904214 -0.7030751014321635 0.0718402218707537 0.06294060538827871
Ni 5.759791216306924 3.1147140392676653 4.752738053306612 -0.8045328890590338 0.4628808443326222 0.13213439077512082
Ni 0.9926688222728303 7.587435155430946 7.128959141920849 0.45369197874450257 0.9955213738578856 -0.6551985894658586
Ni 5.096708192527883 4.815955687301754 6.451090558460074 0.540653886748043 1.595284150952943 0.48244025452178846
Ni 0.7678396438895184 7.6793949061557685 11.005056680809593 0.8832155877729176 -1.6977711511752758 0.15761556576536082
Ni 5.130234707883282 0.5758014127788086 10.312278874290772 -1.018638419491323 0.42058311200567566 0.22263850760396495
Ni 8.359003021109984 7.448858891961962 4.437057514460227 -0.2942416737632481 0.5147839609598167 0.3604709772051276
Ni 7.485921263854842 6.311980252410428 6.586500123470488 0.004238463561379797 0.6584055264389306 1.2618940891250072
Ni 2.543535804712865 5.739776069844753 2.6049305489386825 -0.5076699756228548 -1.2492774288022614 0.7089914669165983
Ni 2.444870750916962 5.660219297751407 11.482651968322365 -0.1852991477235583 -0.2733643160936066 0.3663240935517949
Ni 1.2502916960037729 3.5214199833289697 3.9925362259480583 1.1921709135972565 0.2294349617005081 -1.738518508295967
Ni 1.5209496056228942 1.3483521732932673 2.1325098867057664 0.9735440982558458 0.16111020918218058 1.6992441361763766
Ni 1.1047444822108932 3.5808425257088814 8.37454521744974 0.550539264182555 0.7764723833773918 -0.654319272184699
Ni 4.047758793658448 2.813689900576646 6.771958546936449 -0.3807035022019185 -1.2331995494037924 -0.13729356637855708
Ni 4.161391696113019 7.361204458782776 6.029829893019481 0.15100937330275285 -0.007927739487508927 -0.5751652902613514
Ni 8.5563056479515 7.6902131615204485 13.414593599026999 -0.7198926872101344 -1.179755056431407 0.09848584948274007
P 0.0946088950529058 5.912236098422922 8.06574311040127 1.1200764096238516 -0.9458111511169517 -0.01727627058194444
P 8.68765447409387 2.113883434158316 8.158250644081901 1.591637555339291 0.9396613294654719 -1.1475992976344689
P 2.0348213155702144 3.707647867803087 10.471124023149619 0.26692164579205646 -0.51298727407071 -0.6352270314399383
P 4.312032008959888 6.344178531501748 4.008397198991194 -0.20898492137627234 -0.3063207164149692 -0.6142416874375228
P 7.020901167675377 4.493707249135745 10.738244244181237 0.8510585434243988 -3.1005053863795182 -0.5915571013558134
P 6.716588499199497 8.294927071680744 10.41055186938252 0.8563627292461314 -0.9889192951603356 -0.08655567370405738
P 2.5658226931991184 8.980883239952254 5.734810298267113 0.1306259245503944 -0.3739659263677688 0.1809107888478755
P 7.159404149143583 4.000473582657199 1.7245627287563043 0.015816912427598567 2.679672620256882 -1.0353109950509978
Ni 2.918785449940715 1.8034517186175705 0.18377293744809323 0.9361605154010652 -1.8122073533396854 -0.49175099039975306
Ni 1.7170247589513976 1.399567131586174 7.067126537740391 0.24223159924454413 0.30342102626967093 -0.31744870800733066
Ni 7.404028627986737 1.1182833318544123 9.330608764309536 -2.0892534891602534 -1.5044864141430798 0.8395484859022703
Ni 3.0759387006066254 2.050430381735679 9.304585409808674 0.3897936374286448 -1.0529857866229413 -0.5966921085895337
Ni 6.66300103613144 2.080063790799809 2.3293774016676694 -0.03785640872614125 -0.4395717372930365 -0.12063718876879868
Ni 4.348132554592573 7.178100219591772 10.489666201396174 0.7781788245455372 0.7276736167071339 -1.09182461386701
Ni 7.430749077519987 6.380443961636182 11.42580620429477 0.6974443855089473 1.7972242496672919 1.0670998574268202
Ni 7.8047895697350205 4.345054710559946 8.627347051554578 0.8714723311940605 -0.6038356616128504 -0.6420733649378104
Ni 3.0344061266663576 8.38454179838071 12.207672939157982 -0.46130424387412167 1.9520177726028252 -0.11656276158910893
Ni 0.3394861967987386 5.183226754695027 10.35144077550591 -0.5189622607072224 0.3564780539956506 -0.2360115864767613
Ni 8.781693601590735 2.4223731766784753 5.772510223566753 0.38317356100896593 0.04294667876485507 1.2194798858248548
Ni 3.7444262719429577 2.9501776270234896 11.698088226256107 0.2735926300543288 0.3963728333080593 -1.371824432999263
Ni 1.48123992145195 3.4088771506359548 12.775873176406215 -1.6506705981430474 1.663162302852155 0.06084309942930167
Ni 3.4503914040760284 8.537673699253991 8.157258588996383 -0.23299156870351484 1.9368498066131352 -0.9351197328413766
Ni 5.8546181253121405 7.854025914006953 3.4321396057575493 0.17568862121698775 0.8778499525856301 0.7424394621623989
Ni 3.3854177501372718 8.549646146130906 3.4997376713491253 0.17177848752930414 0.827987006316916 0.4000734220880981
Ni 3.707409701300562 4.2534155685885215 8.58264777915574 -0.031999178614415855 1.4239288670039862 0.5873003829619885
Ni 5.149388790836326 4.924715336704665 11.643951148182225 -0.11386387460070714 0.11821880913529317 -0.5143245048248949
Ni 8.42578124431787 0.23492469001532967 2.1595784257427075 -0.3571000038503656 -0.16856435146738066 0.13812608958218148
Ni 5.239333286539787 0.35538381084226195 1.0963280444216745 -1.3984700606112497 0.013337340538854449 0.779114191875613
Ni 6.09369149259645 5.941686302485111 0.4114124805611964 0.3096230413153248 0.37715409428776336 -0.23234467914813534
Ni 8.70068034973195 0.29093961935911844 11.203425560762412 -1.7790048984457876 0.7384735355361153 0.8775853860703338
Ni 0.2160399184151408 4.884190390275078 5.70746053955219 0.8708149001157196 0.9978633917275008 1.2679240973691712
Ni 7.735648002002082 6.366108170234214 2.2915703014418933 0.6389569307960157 -1.8663280464434888 0.6020975958758211
P 8.947576570599185 1.8104684701919518 3.6183354293563266 0.17851169248807966 -0.14476982015094422 -0.6546802550685434
P 2.2776503853943346 3.469289000026353 1.615846132528849 -1.5459925038066666 1.281180191048129 0.20252682445575443
P 5.018672021950657 1.187452380337642 8.058825289527938 -0.7669870695947759 0.33262233042397554 0.8055312484165611
P 9.148222688726143 1.7517512670695174 12.75975846443539 -0.2404637087108439 0.7176162324711319 -1.141055840088996
P 6.843027431289818 8.021805054785503 1.5151200224610974 -1.0646028020365794 0.920502240038518 -2.251559775533064
P 2.0576578190622934 3.416187030213443 6.00876772997121 0.10094613809777453 0.5831087134781442 0.8120947605666918
P 7.260753156217938 4.229287469832751 5.990641427079062 -0.8043174306141181 -0.43798896618694894 0.01457121294595555
P 2.533285484854206 8.659257698792848 10.033414296609656 -0.8845695306976509 0.624015736105151 1.3587825122136405
