# total energy = -381163.8712292174 ev
CRYSTAL
PRIMVEC
9.28939382793586 0.00000000000000 0.00000000000000

0.00000000000000 9.28939382793586 0.00000000000000

0.00000000000000 0.00000000000000 13.59596685349832

PRIMCOORD
 96 1
Ni 3.5085761240348767 7.577311976252468 13.835935067780026 0.6012180214843452 0.6455505248531334 -1.6171570397666344
Ni 2.920882632990292 7.494775713422609 6.1127331638130995 -0.8445215136368294 0.7974199321633363 0.2464340673616659
Ni 1.306246670832472 7.9563749746807515 0.9127897568999834 1.1565577923793373 1.7360042265145457 -2.1416762257363438
Ni 0.7392518067814156 0.5505061902724407 2.588128190986673 -0.3881591871490153 -0.46311841426472505 -0.8227802653049958
Ni 5.760928962193814 4.203329877219488 7.201824465450883 0.3680629306197725 -0.8070502561642487 -0.634282665248798
Ni 2.5480435283263314 6.85403978447611 10.71693939369577 0.21262843166613057 1.149399326957685 -1.2305145463724614
Ni 1.6018816246377976 2.214210587716686 11.883283151039315 1.5311001600758662 -0.21848617599848824 -1.34015846935455
Ni 4.483070678441596 3.7324969586453203 4.287202883799627 2.1841004563388253 -1.689051254803775 2.6768073828939447
Ni 8.452475044059334 4.285020805224643 2.8742554503624693 1.037597477092329 1.3660499924093312 -0.8313572083407295
Ni 7.63270463075494 6.976464703759704 2.7939579314090293 -0.23840991150560878 1.1712809575221248 3.930152554007677
Ni 3.5829005628533026 5.54232166076724 12.291447033042962 0.6740069804216134 -0.1508389091631596 0.5460048666473112
Ni -0.1916355468822296 5.837752247911648 4.6526624941257095 0.7964639960079704 -0.5458577995464858 -0.7629594364926214
Ni 6.662511065621178 2.812874852695099 9.823575616855416 0.8962418248292565 1.3284841183404152 -1.5819491244069337
Ni 9.131213882542912 0.29753835056996664 12.779936302181083 0.45548120943444137 1.7267089172555488 1.245947850208396
Ni 3.2986451163036423 6.657754896057995 2.7564733700391866 -1.70192168300854 -0.45131987896790016 0.5918828601263483
Ni 6.31689917382771 5.1418280311235955 2.686930182146875 -0.8083147246989691 -0.9144838017585798 2.066525194324802
Ni 8.619897786319614 1.266776037094253 10.793647490931995 -1.4306777556920458 1.2352916560461307 0.526397633939345
Ni 7.050770563790774 0.8088618783082091 6.359581150960446 0.5453194105445125 0.7315693522171143 -1.4184274775697832
Ni 7.454301825167154 3.8365660360210017 0.370111738680072 -0.12757325376699963 -0.03101855986870142 1.3586084485296215
Ni 6.170981377932217 0.05567412313091771 1.815673304381648 -0.9678858715288041 1.6721714483293009 0.6248297473660142
Ni 2.1123152284616786 2.12877603405926 3.675737834332801 0.07030373062156924 -0.06195741553940296 0.23686262162314695
Ni 7.9223200574568615 5.133662654080552 12.107847740631652 0.27201165872045413 0.09615771557019569 -1.5305162625479383
Ni 1.9167549127504544 9.242844526372563 11.572261245545597 0.4968330329083508 -1.583761237915008 -0.3563271302400831
Ni 4.245466566943321 1.275136491404537 12.779909362939417 -0.048295087560961986 -0.13491092507899347 -0.12130387581852012
P 8.470217785984493 1.5957320460228994 8.716252022245639 -0.8415629452291377 0.13126150125186425 -0.18999809586112437
Ni 0.11588983083105533 5.215269977542603 0.36591757743441283 1.7255210675950348 -0.353309683569998 0.2048809265102278
P 3.7281123648292604 3.2759511275480593 11.576014160591546 -0.11406802019171323 -1.4775800766705391 1.3790790576791474
Ni 3.684684449384173 1.348727068122394 10.412036411817812 0.41893991997529784 0.3633441849878645 -0.17943857517772321
P 6.695088969250253 4.9260354159814845 9.899767223803138 -0.6261780338637926 1.5396519063006193 0.24623557819761466
P 6.098533396636766 7.285625014760333 5.20958022391477 2.7704595584334677 -0.5701547244206374 2.2558851423812953
P 9.004042083089812 2.7797674536263735 12.23027916249082 -2.1051758168174644 2.6066959707888397 0.9494716306876745
Ni 3.4867274701040007 4.643043326972044 10.05633809636867 -0.16622799002472016 0.41019791211660966 -1.6493305391753854
Ni 2.3627851502041133 4.4130750970771615 4.244402002427811 -1.4320831206800047 1.4168498486700178 -0.07096630390623261
Ni 0.005624727872085608 8.750311584166369 9.724093642077978 0.4343511123240455 -0.9473622976541556 -1.8011505813048916
Ni 1.6532241034966202 5.591406816962286 8.574472651233737 -1.4985566789222065 0.11689777633102447 0.8894517984906165
Ni 1.2983692649934488 3.282249336461807 8.718536284151082 0.8683037036580917 0.9184589843562442 -0.7562414010424976
Ni 4.355471566879304 6.006085350752381 5.135591132208124 0.7151780553432845 -1.762869683446822 -0.6823944331543602
Ni 5.602442616651862 1.3987040061105367 3.7923912533241957 0.2892035971187084 0.8529264498710729 -0.28707498081147975
Ni 1.4533163515440484 1.3554990361137238 9.677718202018832 0.3039445028733088 -1.3352234939467778 -0.7893548957670148
Ni 0.24666591503125548 2.0455802242782553 7.008611579522114 0.49637949031069994 -0.6534247853948876 -0.002190837003731711
Ni 4.9279025841107815 8.616107713698952 6.953399139256997 0.42330205359873546 -1.36856710240423 -1.6639536884051986
Ni 6.644155223713265 9.158236728752488 13.019891559219284 0.3318224602304995 0.798262996889922 -0.8569941921825432
Ni 0.19129555507361143 6.632785005851279 10.56526217371986 -0.43677797659798323 -0.2603002838207969 0.54979313004515
Ni 1.9341260789284893 8.477705037289036 8.317849435118934 -0.2803595164645172 -1.1844928282267084 0.5653678445549554
Ni 8.124345791168038 6.406987713717861 8.585159169721015 -0.3973873906155027 0.9403701826070385 1.2128636660599177
Ni 8.76798930033578 4.536967740561894 9.537243990818702 -0.08906301350694339 -1.6064332255912268 0.2572183024613634
Ni 2.7155498751297134 3.18259272108322 0.034470153121301514 0.6763590255935578 1.3723409676243656 0.6194042054750687
Ni 5.249018344775116 7.371886324455109 1.8955630189526198 0.890628335297221 -1.4606015398346717 -0.7567088275972192
Ni 8.135028593897845 8.432196297660056 7.406837668168936 0.6065096089005877 0.6250475198037752 0.1608243025106456
Ni 8.269260332546295 2.051460410476488 2.88282120027304 -0.39181015363804134 -0.6274908391379451 1.2550384996557546
Ni 2.510012750608217 2.9053507667605194 6.205919716494894 -0.054577835245880196 -0.0264885332088318 0.12018878837747043
Ni 4.362122772752819 8.26909312346009 11.640078464092518 -0.8224532209828802 2.1366114096189266 1.1504503939300186
Ni 0.5375530597277072 6.704768517462826 2.3539648709067635 -0.04369127024036346 -1.9067082500327484 2.354802937195132
Ni 5.248386666005007 6.712469424821965 10.408174810865829 0.8261039303615901 -2.054107280276424 -1.1430872686967282
Ni 3.5261423674801513 5.081614181302194 7.09565319828585 -0.4283347309266365 -2.7297924197314085 -1.507115881346127
Ni 3.952256144887978 4.232034103684797 2.310729245910813 -0.32435340554696396 0.5013977694608978 -1.718642081087014
P 1.3175983099071025 3.9682431914079768 2.3319805918281875 0.7376890919616069 0.5193384130997185 -0.3616637119616481
Ni -0.07799839401811198 3.326940609447115 5.054993565838882 1.5066284001867474 0.06988386947533126 -0.6985738711277001
P 7.296493605363702 1.7127969851542337 1.0503740377268582 -0.5438687941409149 -0.08041819334775183 -1.1781303763437905
Ni 5.770924349791443 6.438246523444645 7.839651885236772 -0.6281472417750215 0.16544534622242474 0.21567750290509952
P 1.6664986470626157 5.663631852809464 5.877006438777167 0.43515329651036666 -0.6920666661368017 -0.20472023256264743
P 9.134623090022773 1.1430041557273354 5.046007006394694 -1.1463538552631418 0.19170890790464404 -1.0023044582179899
P 3.5335924612099823 6.479305643501818 8.447351014506499 1.288094144559143 3.6911024378149073 2.761153707651509
Ni 5.507393540537609 1.09976202815581 8.178599566005575 1.0101108416362863 0.1374537461055052 1.8189737255292417
Ni 6.439686379464749 8.389604427645997 9.006784312103587 1.153424131846362 -0.21034143540416675 0.7069489825652728
Ni 7.408402931003695 6.321980472169627 0.8054415235559351 0.5769442365386451 -0.998491255119487 -0.9768541364656854
Ni 0.5949633705370605 7.000905098526768 7.05925735385508 -0.167881209357427 0.5737426988822119 -0.8389306498126132
Ni 3.9331385726984616 1.9250038943366015 1.8681128606338535 -0.8431462305558577 -2.243917428496458 1.1425002858450066
Ni 5.987831692174926 7.037523888405812 12.884095486675442 -1.4913516765333348 -1.5196518090296087 -0.972724430568028
Ni 8.862443855254634 7.43668913475349 12.824069282606336 -0.419338183854981 -1.6247528498360213 -0.6148996327364958
Ni 8.28177314583069 8.602275806512269 1.324363775322858 0.6304139263220111 0.7211018770268871 -0.14888461365026617
Ni 5.557658449729773 4.495462729608173 11.85927192626018 1.1906454780916655 -0.5885818207775734 -0.39824202530631414
Ni 4.059660114594095 1.029301977107471 5.36846229762741 -1.5671076885187267 -0.7338167534903943 -0.43278119673376425
Ni 7.791042345998044 6.045853245088298 6.448947904961809 -2.3791119462541412 0.7468100804262686 -1.524771132534045
Ni 7.084881217376733 4.018963280890367 4.908824027374713 -1.5219094947155338 0.12988441839867954 -0.10026633842193054
Ni 1.1078809582304638 4.464798441076786 11.137326259901053 0.7203883958996303 0.08599671587679383 0.9410849492858759
Ni 1.9497694178823985 1.0144203684351651 0.17114035761025198 0.8043387707703566 -2.09860793379196 2.0719142265508577
Ni 2.665963091676051 5.532753585278804 0.8537259340159293 -1.7976438537032138 -0.9326368185185229 0.48334322595203205
Ni 4.126831720280388 2.8503761349735623 8.430627319067828 -0.7263952642153426 1.4379115544363235 0.05178047500640114
Ni 0.34296441459521165 2.6972497695838693 0.845669242878919 -0.2959828248240709 -0.43871376016811536 -0.11525329874906604
Ni 1.6460991385455226 0.39065894855664707 5.952803246493571 0.4883530204617976 -0.4104352249383964 -0.2531035089620415
Ni -0.032449709996316176 8.312697537385061 4.792537539433603 0.8597982372902417 -1.4913406207897413 0.44261129545030864
Ni 8.118586367087621 3.9007743251239835 7.161280906742845 0.36746154959034777 -0.09021872437794139 1.002840019006486
Ni 7.4332892166673075 -0.11076394339948334 3.9052378787863073 -0.8838020564040069 0.22128687867207697 -0.22419145391338163
Ni 4.152247501383653 8.586836834219278 9.2459917729507 -0.5563121621105903 -0.5571439139832662 -0.04513263067258034
Ni 3.13747413598872 0.9311502435047351 7.647309415495639 0.021747933200052867 0.8370660858000486 0.42021750113614087
Ni 4.641928599730672 7.95248271872963 4.065384238978536 -1.0517166901025305 3.7060539169184175 -0.9256958684243155
Ni 6.128612453366433 0.904668968946594 10.565194361146009 -1.2660474491717486 -2.961054664448642 1.3929218770995109
P 1.6122021410141594 6.318431923784596 12.629483424291946 -1.4234544984707291 0.7945390110711155 0.22693096433173174
Ni 6.694364396543361 2.2219022056821474 12.442008596838132 0.7012323917964697 -0.002782704951459724 -0.5210692797478962
P 5.388331381765485 2.2185487345643558 6.398153500329994 0.06258553604170512 1.6040924932731921 -0.6482540398272255
Ni 2.11703424045015 8.532958350886336 3.8094809508737844 1.4628733665879838 -0.2598634533936944 -0.35504055021817565
P 3.652515279076935 9.020707255348313 1.7430432509701062 -0.3983389558954947 0.6307155167228299 1.0128894328226878
P 5.3656095248288675 5.377964418420732 0.9174493167689152 -1.2357691099031813 -0.7332914771145436 -2.507139256839424
P 7.6101964298729206 8.346873216726767 10.959667534746883 -0.7584103836693584 -0.15694527917121356 1.0690443827477007
Ni 5.191321920640478 3.0678036834030187 0.46223279790698957 0.6176939076521814 1.5512969467387154 -0.4895624673888666
