# total energy = -381172.03879261645 ev
CRYSTAL
PRIMVEC
9.21020251148716 0.00000000000000 0.00000000000000
0.00000000000000 9.21020251148716 0.00000000000000
0.00000000000000 0.00000000000000 13.48006235709604
PRIMCOORD
 96 1
Ni 3.394106914053098 9.16160928148182 2.6206322821142893 -0.5145592465435204 0.02377267693956551 -1.0019285629358101
Ni 5.6685755844292185 9.085164602318253 3.3587867092188377 0.15321820802861355 0.9142896834699029 0.3249010505203178
Ni 0.8178908325733022 3.599632578575384 2.595896441773375 0.06186331316369992 0.0007687598452244824 -1.049927716522908
Ni 2.717120203542404 0.16418567145895308 0.3348000641294928 0.1444098657083642 -0.06866208125308819 -0.38354379986419107
Ni 1.5340144557550495 8.140538622914297 4.408316892920747 0.4535701084546575 1.4086832536988256 -0.4498006141098963
Ni 5.073136005161201 3.8848633338785743 7.657133786571755 -0.2985721828178019 0.5801010370000719 0.009516938351499738
Ni 0.8276398317172341 8.518092446161534 1.9673609215286878 0.5304687186849252 -0.22355047789527305 1.2558414551730244
Ni 9.245477383706328 3.25406578794683 11.172841159668314 1.5939008974521711 1.8219829446692104 -0.351604270843117
Ni 7.17016091785476 8.235458967909445 5.283604785262655 1.0770939925250547 -0.2497387062548667 1.8131401495665997
Ni 5.825793737841517 2.1127098872255536 12.572368241309341 -1.1380335083229047 -0.40579669772512045 -0.3985132766898298
Ni 6.741333898354081 8.97685262316602 12.831145453541014 0.014142095828336936 0.06523531495972637 -0.5795683044250535
Ni 5.641691003889647 4.520698860473267 3.8419391860181165 0.7006281825535675 0.20419958417248704 -1.3767938611893966
Ni 4.304544622486552 8.055786341268137 12.476512139759615 0.12288690403492385 -0.42056022918754027 0.19536990169599902
Ni 1.4726652981757105 1.6965192652926349 5.787893755340544 1.4955014370356503 -0.3755942059998112 0.7784385059648271
Ni 3.0932556556340756 2.7432311270880314 -0.0030771285913912556 -0.18883621434253928 -1.34314969077239 -1.150774867148973
Ni 6.025931434013119 6.8943153587043025 11.292827991267263 0.33024997353705704 -0.8682137150474467 1.2788998796543847
Ni 0.06532796497676797 8.950649597597303 13.235061638856909 -1.1903294895131435 -0.02316718214508268 -0.43721840656951155
Ni 8.077402686087039 0.8684530012085004 3.7306615217224293 -0.286551504207842 -0.8559804062060483 -0.8409132274602807
Ni 6.973117849658937 9.05495513874518 8.016619955949695 -0.6795690478904233 0.8717021878166794 -0.12250998031147933
Ni 6.850999777245717 1.1182382929260297 1.5120048352975586 -0.2045749652340348 1.111535462032376 -0.5030427612634885
Ni 4.340519672704972 9.125634231263398 7.409639993188672 2.0277100212298174 -0.8199785341901427 -0.51153948588059
Ni 5.419135675298272 1.7364639127061754 9.177967521802591 -0.9577549537423892 -0.8153158386071507 -1.2546559195053553
Ni 8.400809729960468 6.014225266878553 5.895464313206914 -2.08708604919529 1.7616566369753275 3.4862117411126667
Ni 1.3379752996108925 6.093994829075619 5.652581147099647 0.9326985249943938 0.3816069878527944 0.4440647400673836
P 3.2327994308156645 7.102419879873071 0.9320291857061226 1.3873114728912688 0.5487981131217322 0.4581479576333271
Ni 4.550982005664809 5.338795080558056 13.20354524757621 -0.8342165321663955 0.024349632488958065 -1.0093317973784166
P 7.810352870141545 2.359377525461533 8.04271706419186 -0.2539116066856337 0.5134919816212704 0.536188908998154
Ni 2.328182570241412 4.409264622738329 12.186340110917719 -2.3936667041398647 -0.43681422915255735 -0.21469816971096575
P 7.223607721853095 5.481792681605469 2.349547476537283 -0.5359145722908447 0.03453557188302439 0.1276105347628383
P 5.955804953633432 4.246354564299153 11.930757917866991 0.8067512368665911 0.6844667423023567 -0.741822140293374
P 4.731373028086208 2.0048952589979985 6.725769577472333 -0.08004409783778473 -0.477692712534474 -0.5652747706205168
Ni 3.8825055220875053 7.069106578121912 3.69311889507104 -0.7068962749504664 0.899292181619806 1.5190393722565905
Ni 9.066182375359684 3.6366391714523973 6.63374031498194 0.024953841731860254 0.3697079224223633 -0.7193604688557482
Ni 6.082951796507292 6.7432680408389425 7.722620167028237 0.8708246703077326 1.236990383904792 0.724658484029894
Ni 3.934626056953363 6.274560845340885 8.200514539329385 -1.8754462066946733 1.0876398863617012 -0.6397822549107884
Ni 0.8290075467601004 1.8815982806892446 8.039306526276887 -0.5219357415132495 0.376585623378803 1.1238960404802578
Ni 3.302557503102996 6.126626575855922 11.229835733596024 0.5559223828713393 1.2382201425468353 -1.4719599022702845
Ni 7.310450719423368 4.755365605100796 8.264909510812265 0.26194193318927794 -0.6013098098672031 -2.020343296452101
Ni 6.854499654123086 3.1305109239734277 10.095272357077533 0.9946153171038482 0.2289377103491154 0.749720054984212
Ni 9.040964841438017 6.367510207041935 1.6013502448351495 0.06427629348056672 -1.5714279131606355 -0.963323191858786
Ni 5.216096765399379 5.302193736582633 9.723707928391752 1.0777959036880858 -0.8393006315575223 1.3054629748548936
Ni 1.7570026638549407 1.4353916094317403 3.4630950134274086 -1.5729433213638975 -0.8619011425658576 0.3341580503422116
Ni 3.4569297040018547 4.802033700199808 3.2933141440658207 -0.09022129548110268 -1.0834176207502373 -0.24167521252044188
Ni 7.833129700451365 5.276672265984773 10.392170596665592 -1.0365366399279825 1.0436261997849123 0.46588209305279116
Ni 6.1134928273634825 0.9887612688680284 5.274317217254397 -1.0762126183613658 0.470688513302499 1.0846090699551771
Ni 2.129196149358419 8.424148382611127 11.485902383288199 -0.23057858838664805 -0.18350451771698073 0.2629230661556246
Ni 6.0927606619662305 5.453941029823467 5.82415524285077 0.6078512105301467 0.38173528590054256 0.5308155605013826
Ni 8.49121707582427 1.0860302154519346 6.332474597459018 -1.2003920159554682 -0.5423927238160207 -0.35756665907413904
Ni 1.396994276006089 7.091008439212389 13.464506198775315 0.20798861890127404 -0.09621993626669881 -0.9731347786325694
Ni 3.0768062343104456 2.723373930910122 2.2224310273310426 0.22039907675048495 -0.22697415886484135 0.7380629303612578
Ni 7.558094639104086 8.147842313345226 1.8299050992105181 0.41283534973945674 0.2448872916998363 0.35291270524189544
Ni 0.3124404559842652 3.9422981554766467 9.219189624276371 0.11662266829276689 0.44389916102379684 -2.5449401297372813
Ni 0.9778563893343342 6.076495444688779 10.303808836734586 1.3200614414943588 0.8752438824213508 -0.9344844132502229
Ni 4.974411846612495 6.082472865987231 1.9234697024257994 -0.06891867734858453 -1.2725693094506665 0.1091304736807798
Ni 3.647847987662284 5.570007999319763 5.985552065050599 0.2545602960132261 0.12331267871843278 -1.5103822108022247
Ni 5.011980261830349 3.4565612959095007 1.12691522452121 1.2840893942751241 1.1520727600247902 1.0622648979320222
P 0.44110882427954834 3.6100124765774733 0.24869204070346726 0.282598690207681 -0.22976534845673333 -0.13264424053200383
Ni 2.6000585321967504 7.822298502536141 6.766425252504118 -0.7673961321077364 -0.547002197563574 -0.9594683368890702
P 3.070036735613431 4.5899964226451555 9.234812890452897 -0.1262059411058278 -0.6633998943297285 1.1264141789164213
Ni 4.542167842055227 7.987032181032472 9.898085609725692 1.3521660353383875 0.4121686626897353 0.2269060246310673
P 5.022028592549318 7.329921087104305 5.7655976975912475 -0.49268481506793216 1.3241492384104872 0.14114430758321497
P 1.28832309896381 0.45820664384572235 9.940184523459276 -0.2736682204872707 1.9738927182990453 1.3475303363385889
P 8.663070240705352 6.5709635760447265 8.603460890342157 -0.9449670579491016 -0.19542877995839245 0.24457978776174652
Ni 7.166043957422699 4.110550131254962 0.3253209239132106 0.6142830821984194 0.16605881143670753 -0.2151676531482165
Ni 1.5994437329572149 6.159028067578503 3.290604502546553 0.3134287882146602 -0.7454610225975419 -1.1799018664219165
Ni 1.7529685952436587 4.129790243878178 4.705809190557726 -0.0384611321896757 -1.2507031055051945 0.5572737546929112
Ni 8.075809321087606 2.376324297709841 12.544558956457958 -0.6334275163373543 -2.4116073477786855 3.1327112816881018
Ni 2.1120743832662416 2.489425582062683 10.128474215380754 -0.2266931372893128 0.9006960039458681 0.5228250860967383
Ni 7.704021084485718 7.958545025291157 10.071655556317147 -0.22167614369069566 -1.8254197382649013 -0.23554056037761373
Ni -0.01081001444991295 5.645015886923146 12.097034305250057 0.793238289981821 -2.515127417251223 3.597029115577566
Ni 2.5600494133670475 3.901892997947663 7.198083488194541 -0.6835344602960745 -1.1922729863927595 0.015997660979836965
Ni 8.665216217843318 4.714785453727944 4.259363054040192 -0.5016931892141295 -1.6795276315840557 -1.4171534959533658
Ni 2.152111132702871 5.050690742134501 1.095246864902414 0.44083183495238265 -0.38255623913994113 -0.16093640260847766
Ni 3.0931082923971336 1.6538115571864354 8.211703093094192 0.5991637100584778 -0.08521870006018872 -0.2224734427810104
Ni 6.665718137398313 6.374316546548184 0.2407270577467622 -0.2275914807338661 0.6181443649260385 0.6786007704398829
Ni 3.5135079767852027 2.524037522339392 4.892925502705057 1.047894488142963 1.4382537682670908 0.6208566216508791
Ni 6.254860222602226 6.940651886520194 3.749681510510463 0.2692968308924524 -1.5620829816106259 -0.5745001458735267
Ni 1.1868727205316798 1.5279541426358172 12.271412907604228 0.9954802362073047 0.006579967210362861 -0.8857627796748035
Ni 1.3913023709792114 5.795197445771472 8.069865977537697 0.7574048252229795 0.5194160604151893 -1.2037501337944239
Ni 8.378843397453828 0.7038961585965001 10.822818473162734 0.5013448047357753 1.5008974112402411 0.4005781296386585
Ni 5.25182314015546 2.316282988858361 3.3406020857802177 0.6027696822421813 -0.9500912665495445 -0.5466684683732392
Ni 0.13163313241850635 8.843157326450559 8.388911990617878 -0.730079140824833 -1.3646343430087273 -0.85764725238551
Ni 4.160883886872901 3.361309383631235 11.066483585446022 0.14891109601282743 1.2244004630549237 -0.4951525598821344
Ni 5.281120793699954 8.306248582855368 1.287340370377454 -0.9793414216639132 0.5517924198633658 -1.3216686380804787
Ni 8.76390353558279 7.067347429480918 3.805488889360559 -1.137597963447383 0.9960664477280782 -0.04219360264891443
Ni 7.613954516107342 3.3575055700776746 2.522618230163596 -0.516116049507679 -1.0685237343575404 0.5712420439475452
Ni 2.545497293719044 8.298751478175953 9.058129895481045 -0.39967207288462137 -0.7906854416529802 -0.9142171783607546
Ni 3.898687847544178 1.0994955312274928 11.16370187591723 0.019400001793166588 -1.3765195244820874 0.14963357600114874
P 4.755199821459238 1.375608186244908 0.8790336816209228 -1.0153690047114319 -1.2230066680311904 0.5414748399874417
Ni 6.486119192375477 3.240278115090462 5.600359300008391 0.6695869969770468 -0.6610684179830745 0.7097859377934357
P 8.05940595077552 7.224749786939394 12.481149476622129 0.09995497782909883 2.2765097606101827 -0.7887707411287707
Ni 0.8195965620409037 1.5004156377323157 1.1595681547668233 -0.20312769126454694 1.4598518061528407 0.2501850497636659
P 6.047170160537357 0.29194591380658236 10.60802734511773 0.06271769074419521 -0.35893500017657537 0.6814850339662134
P -0.015852600214015654 2.4258567657269086 4.505481764218563 -0.19839891833030993 1.9228162113382046 -0.2640571797600678
P 0.4595448862412002 8.224452776150352 6.2441128375280135 -0.8748949837223643 -0.03540177653806161 -0.09108544325361087
Ni 3.355322752130474 0.26934315632040073 4.882384426162563 1.5386828575191307 -0.6380385327468043 1.2410534982305723
