# total energy = -340859.4017142471 ev
CRYSTAL
PRIMVEC
9.34179685481328 0.00000000000000 0.00000000000000
0.00000000000000 9.34179685481328 0.00000000000000
0.00000000000000 0.00000000000000 13.67266398031855
PRIMCOORD
 96 1
Ni 2.235034283301785 3.9017510019582917 0.7362812070413784 1.4684727150526322 0.001974607227867567 0.35380616359044226
Ni 0.5251463179904152 3.0685841494693316 6.616202572566438 -1.274957864287501 -1.1908246839820071 -0.7728831233642367
Ni 2.858842122356836 0.27348671338564823 9.034937689555688 -0.14938829275956209 0.7936344969789751 1.0021255094379646
Ni 0.32138490934208414 0.5691517871208323 5.288996652046171 0.313624449165234 0.44828443457568606 1.2266725469185518
Ni 7.691363072264241 7.714652172281676 6.311725381684665 -2.2290559380035933 0.218487718660385 0.6065404621385231
Ni 0.3987004241733307 5.2019983645843295 4.594001517017249 -0.8687377058717167 0.21117910081411373 -0.21096389947951408
Ni 0.3470374840103058 4.006425837776727 13.36564439375649 -1.7982637466753997 0.6851182598434266 -0.9719415296554164
Ni 0.6893695048522274 5.674926839667623 9.525717404600199 -0.05941639428510413 -0.6247302456736724 -0.673422311562737
Ni 4.865703012988805 5.209882841284977 4.291247887689113 -0.5377943058120609 0.6423860110822227 -0.8283605876062508
Ni 6.0490284438786945 6.708316428086661 1.1165895012049512 0.5658900356070125 -0.9614640271628603 0.3556732987061681
Ni 2.667699613148357 5.02681164471792 11.61784087680422 0.11392249575278444 0.01406470562318223 0.2918993987833166
Ni 8.310341202250294 4.472815054932942 2.3927705262999357 -0.06674455251540118 0.5059540213730126 -0.3091823542334804
Ni 4.501868043723245 7.694287054737348 4.843541467873939 0.1632794489193575 0.10003802446120835 -0.717428541940358
Ni 1.0997070055966447 1.7290451884985953 8.436047225741914 -0.7393898767027975 -0.07291648565406797 -0.6801292912692674
Ni 4.781253167759116 2.5779809943888514 4.66888629625903 -2.7328242645791962 -0.47963492386250944 1.586199157932539
Ni 2.892444566304976 3.0204458693290013 9.561936485898874 -0.7035692674597624 0.49935014290324964 0.5173553212314187
Ni 8.250955398475389 5.825441873554872 -0.05238973197263435 -0.2751499472391197 1.4577180476392895 -0.47071988076106674
Ni 1.924793203647145 2.0942066929436485 2.7018550914811867 0.921418066984568 0.7534954628662442 0.6521353771595026
Ni 3.144925314869443 6.99808028863251 9.643685617604678 0.9054869975766083 -0.18624685634880828 0.39829524714175274
Ni 8.090155046048551 0.7759128467982842 7.31963335032129 1.3081274090609343 -3.090003201296614 -0.18558839682920295
Ni 9.27666602972863 1.3170812808897436 3.082352089944941 -3.053585324789212 0.9448811831035147 0.122933183891827
Ni 1.1684346064102304 7.6770794645920954 0.7895238450836444 1.2050269436243184 -0.4434368766753976 1.5910770548501307
Ni 7.197593047987648 7.466085636676416 9.432388181285244 0.8219999354955456 -0.2282082883822586 -0.762084747197152
Ni 9.192356311454523 8.177444797577998 12.71229592410572 -2.0732434868852425 -0.10020283217384678 -0.6759661610305132
P 1.584378119557561 0.20329992387462023 6.9404498085211745 0.6974294731106118 0.3564556853981474 0.7543652670657073
P 6.750391881948887 5.916262824364941 11.886932274683168 1.9084519721967328 0.03317083032501384 1.1669915861181515
P 9.142760710976159 7.296233082919095 4.833600861645077 0.6207537775244277 0.8712746133609575 0.6789342425199018
P 8.772778839259145 8.618349592412688 10.471579025665303 -1.1992766714041025 -1.0331553821605755 1.3150884137597998
P 6.273110129445568 8.727770061126774 7.811931107384586 0.0819467141771363 0.001704127175300291 -0.556371554593616
P 5.126376517556197 3.1805455869779387 0.953884356361925 -1.3244878526968284 -0.5415887398574866 0.81175948871446
P 8.453214646159902 4.282466598472751 7.885667779770314 0.48162624326092535 0.5319473601129807 0.6068988739192064
P 0.2956678762742955 3.0182318634308336 1.595763901788307 0.7155871178562451 -1.2047538924685897 0.1365888270020486
Ni 3.388241760538963 8.26860205308146 7.3292040213874206 1.9905562949976556 -0.3634226036342838 -0.14772427479357786
Ni 3.1707460418843616 0.4031760791345633 4.980923803484209 -1.3205442946680481 0.3484240733429225 -0.10534503849641857
Ni 7.2074019348782645 2.4901213932400443 8.21481011737332 -1.312059911346121 2.9047608749529203 -0.5300845958726291
Ni 5.368777467115925 0.16212128252810853 9.605265608923691 -0.944468006825496 0.1779794741336935 -0.4712091616926594
Ni 4.911627287230967 6.677292320121197 11.540220819389514 -2.0534015124586507 0.9259370379008439 -0.36415151138050833
Ni 3.5916687328533095 2.781875056555132 12.990412432103739 1.234013046444023 0.970841354612702 -0.04847557900288425
Ni 1.223822121052578 7.462862716698072 10.963439586627189 0.6336895117494893 -0.3066073944174526 1.019787188383786
Ni 5.333745728220866 6.313887073519417 8.538291325970883 -0.28870094645067695 1.2368595147538828 -0.4331748326277572
Ni 0.6057763024109862 0.5582891455242525 0.6085732364443678 -1.5008639868991442 0.9637705638088497 1.937851251294456
Ni 8.097712559852845 0.9411673680531669 12.761845749778594 -0.4440351723810288 -0.9230972544592038 0.17737372222889453
Ni 0.8213915173217015 0.8356237451101339 10.57437055520074 1.157365375882297 0.2980780167902028 0.7796299551697671
Ni 8.190513971635115 2.8904360799416593 11.692329563851562 -0.6168472433811699 1.8346417710838019 0.033750614087883817
Ni 5.329345741815647 4.073481256920389 8.327021915042565 -0.6418735902221784 -0.9189212687046432 0.38637458444476686
Ni 4.543681927268386 5.1528698539579 0.12542950629927596 -1.2146891493044305 0.42033757165377283 0.43130101264381204
Ni 4.641042136005534 0.05930079342185153 12.561391337281956 0.7955610245777266 0.20916027061187203 0.5101387488783213
Ni 5.277339957701303 2.6718567128305706 10.286629193713766 0.32414617463216433 0.3120283083227077 -2.504441398292287
Ni 6.055427574850192 4.011713294900622 6.175518244141861 1.6822126346153867 -2.788979985835158 -1.0099817722575897
Ni 3.5481172750589725 1.5693658517163984 11.14380913549066 -1.5097965135020839 -1.4793754780080652 -0.3190435632982763
Ni 5.561097042751279 0.4468134814616562 5.530934248472781 -0.20178608963498795 -1.2658394469260004 1.017000626777584
Ni 3.073535301899833 3.1292497794385343 7.333456407399429 0.46540001121005015 -0.4041288231043943 -1.7605909147149743
Ni 6.62204493243443 8.849661828887502 0.5670255941148281 -0.5564643714177384 0.6078424687793983 -1.3832326748362047
Ni 4.311192624366699 8.358694343722513 1.0145761433628364 -2.191070459898756 -0.05061036595769994 -2.5345557011791637
Ni 1.8235281237478285 4.701931969103666 2.8430255257906425 -1.0863345372867161 -0.4462825736543088 1.7196440399889674
Ni 7.5763748925151 1.921112535613904 5.424766593487563 -0.48467917115463627 1.6593210747291938 -0.18322246770018766
P 2.443664636566677 3.074413430821469 4.815908432233517 0.1361003174014043 -0.2128724293561366 -0.26339949157141085
P 6.1233891483066065 1.313718233955818 3.5307331249496885 0.7479855887916087 0.578813685647216 -0.38922439518873614
P 6.362371000150178 1.843454176831338 11.776621532711296 -0.08381976283013305 -1.7109369991332728 0.929326008977735
P 2.7362590616152467 6.248569228624949 4.441688187200053 0.57860156963641 -1.3607262662035726 -1.2469726919284845
P 8.321018876265507 9.014796775140288 1.654529410239842 1.254049396269608 -0.3443915551447617 1.2409226290796629
P 0.40949580483123194 5.276200258462584 11.633564055400027 -0.635078421677216 0.3250234350307951 -0.39750231892681215
P 0.6395057947988527 5.738273565386927 1.41990644089452 -0.6375474520429988 -0.18719456497405826 -0.3666477954398008
P 5.285280485184183 1.9977806639103697 6.931945036497158 -0.4090434867971923 1.669037273575693 0.7662491629874868
Ni 0.45484088765699593 3.2623049946604867 10.23296337226565 0.7993837407579265 0.5566399777636543 -0.8814199293250754
Ni 2.8058834749445456 1.1277043713215755 0.596249537790938 1.0123111917217147 0.16872555963559327 1.0684391450635342
Ni 3.9422290085269025 5.9968638492146935 6.328434119868053 -2.7118435485624715 -0.7122359419958249 2.038602242662289
Ni 1.8403433584174567 7.542006421209788 5.91262045769956 -2.0075654279611426 -0.29493998538185334 -0.8830101566303309
Ni 9.166199279746213 6.485813506219325 7.41387900392574 0.09136697904977167 -2.092739647936641 -0.32277783352972794
Ni 6.607920135311943 8.650774969933954 11.346984813464665 1.220456133695195 -0.05818843541527398 1.580844321378529
Ni 5.425285997402915 8.812275957138693 2.729979505645844 1.6229908728395919 0.18821709270130166 2.1980034395731627
Ni 3.7981598145963438 3.7176148405288245 2.5781444758370284 1.4344264241012006 -0.3908094802876689 0.040167573357821146
Ni 0.9202053096780676 8.777468421372564 3.3812774508466252 -0.036555944747162845 -2.60835227544534 -0.060362303138141206
Ni 8.376126136996694 6.929726359700471 2.9126462024011266 0.5213186767545408 1.774098976503738 -3.1344251790554147
Ni 5.437168763236119 4.152961266125498 12.014743939227309 0.16947092244205006 -0.06423978381567647 -1.345713337734508
Ni 0.5582003984523849 8.116508255494674 8.728984494741804 1.0233378818495213 1.4247220523292432 -0.6456947637404815
Ni 7.301473831057795 5.807458914255409 4.472861763918136 -0.019523157634592184 -1.3147521134663034 2.1484852782383776
Ni 1.0632179463635514 2.0221907795724468 12.658480633904981 0.8685636421876977 0.48769713204535364 -1.1545415332802567
Ni 3.248395058869889 6.29655804001266 1.9193684221067822 0.19633946469811991 0.6750850439771405 1.0981945219490958
Ni 1.511708280393651 5.027054531440926 6.503047253396287 1.7167165819295274 -0.4216434349493899 -0.33766040706851524
Ni 6.15271304921103 3.538009450663118 3.2094388310388795 2.097797779185839 -0.2988724876670401 -1.4690237024600958
Ni 4.051742895211375 1.2357422540739367 2.574453531827045 0.3010399276320041 0.9481421132429736 0.10395175769331774
Ni 7.735222809360854 5.009071572141463 10.18661311207852 0.14857608127091187 -0.6241445483735315 -0.5748012220537133
Ni 7.799288853452138 1.9146293284690585 1.3296861676340377 -1.0420490851057795 0.20801510126383532 -0.0765365989051585
Ni 7.852649198137091 1.0999218669285342 9.786181652913923 -0.2753993442457644 -0.1558980688536218 1.435958801585327
Ni 7.532094774551745 9.202454794053338 4.440457872530058 0.7844834266073264 -1.5131014095056006 -2.107319345523029
Ni 6.851899848571208 3.9537474442755975 0.21358617659391332 1.1522558225698738 0.28138281552270894 -0.027275290776185283
Ni 1.9886817535946935 9.143648181694834 12.67654206429957 1.8387069422921107 -1.387419973444675 -2.06532526047943
P 5.948520049539511 5.970519981565609 6.214745384086992 1.4017325334126054 3.369012374380823 1.224609493741936
P 3.422199192774573 8.720959891085574 10.915530180514308 -0.23211559385646477 -0.0607363986481083 0.361899482121538
P 4.000839443147595 4.836500555445884 9.867452484611348 0.9829247681397975 0.38502758349856914 0.8111388244113256
P 2.776615624822354 8.692785031216909 2.4978862949385974 1.231335756722176 0.7966244328452344 0.02575294059438791
P 3.0815692473531 6.949568336610632 13.550102847183792 0.19002894909905985 -0.5493444725435055 -1.4755810439626393
P 8.136537068345609 3.738390997142854 4.4364792011712835 -0.08054083496854517 -0.20416873093455162 0.48847026276595235
P 6.025225545024132 6.954257918724051 3.28301202197643 -0.32070860970552506 -1.341210050547516 -0.21202113709943485
P 2.2473280882046907 6.144436217034757 8.008148080744478 -0.1529986358186397 1.2359845683480972 -0.7016951903655012
