# total energy = -340863.15565404145 ev
CRYSTAL
PRIMVEC
9.32894250554924 0.00000000000000 0.00000000000000

0.00000000000000 9.32894250554924 0.00000000000000

0.00000000000000 0.00000000000000 13.65385034083292

PRIMCOORD
 96 1
Ni 8.904419419183268 0.33560030196904417 8.185155171796847 0.7270529524039995 -0.8418755913735502 3.829194074614728
Ni 6.202067397240235 4.717487511865819 13.075021945958424 0.20534038264514962 1.1970362121093578 0.19031511288091094
Ni 4.438943953689472 7.0702747381619275 9.498041472132053 -1.1925169840827656 1.3757523072987596 -0.9592155974483159
Ni 6.092088496867104 2.3760349504228238 8.988397624567007 -0.0713555689248513 0.05245898913066449 0.10370518890015043
Ni 5.30052774560235 5.5318015533171945 1.3995876239663705 0.2337724127335974 0.3093160515978673 0.839606078613083
Ni 6.644763023528009 3.2331408500480516 6.394671806368543 -1.3441719613893173 0.48783057229942434 0.6677036639114049
Ni 3.9480176958868034 1.7673960991085622 5.264556277119123 -0.4844464863185398 1.1459846448491813 0.11705127118975324
Ni 7.650964078447442 0.16451776264825216 12.460243717738948 -1.0728089919964556 1.004550059719057 -0.7838221388742437
Ni 1.0987908069088574 0.3228532352568678 10.827871930304878 -1.2768224283000658 -0.29532770773857525 0.23334432405724329
Ni 1.4929759334137596 8.500578837433123 2.6735741008410714 -0.6580075196695635 -0.22634886657601663 -0.15374348440446428
Ni 0.377017074052898 2.009435506198298 12.321151987236506 0.2191477208418871 0.46682131703760893 1.8538959913277233
Ni 2.875338598380304 8.930437839162968 4.7006105224125125 2.1321654580324307 0.16377901426359534 -0.4403176143201255
Ni 7.103691009358514 7.580213380302577 0.1586190724535002 -1.1352073517280192 -1.527252504195002 -0.18888686507481664
Ni 3.13032657733516 5.2384529637648045 9.960633866484617 -1.8387969309027556 -0.9956697265102917 0.5051394958915172
Ni 8.174690897257145 4.004019336309224 0.5514300457626296 1.6589477505501753 0.6686994521657709 0.6066646464212132
Ni 9.05471800802978 7.5766030796456585 11.91301169599599 0.2707235360366499 -0.2807233275618391 0.5499219423135304
Ni 3.4294684400346958 6.589003935604504 2.96091951604533 0.34910644412192776 -1.475876206605555 0.33455374311873354
Ni 1.8283234210473966 3.397610102196521 10.771098786357065 -1.2722116690009317 0.3282175164880606 0.16599684785052057
Ni 7.646196988949549 5.795390817041244 2.110557508784148 -2.7894255580130087 -1.6088747451531842 1.6231865337901656
Ni 6.78186115906822 6.608678674843365 10.041956122005242 2.0252908702653634 0.2071941480244367 -1.762611801799745
Ni 0.2232956962890148 1.4054144813056748 3.5082476258936275 1.1846028714420116 -1.3858935094978198 -2.1736751472404436
Ni 3.5483564802717966 2.8214732857367837 8.967015688893479 -0.5217069133318951 -0.32049392259155773 1.3081883442058566
Ni 8.839611257261804 5.196621986644343 10.61582787128281 0.8208406250801219 -0.009092449219571438 -0.9794987731773842
Ni 7.796336985777538 8.89397100384542 4.477916542899651 0.19530510989633462 0.36677609348754897 0.2958534983350582
P 3.500228467121828 8.20758474768684 1.7275531195849716 1.4301139127687756 2.906999020254819 -0.33047185973987603
P 8.409826887070087 5.640222520331913 12.632037122460405 -0.5438112014301021 -1.1521666052901771 1.8223848080933196
P 5.337983448800087 8.155603881381039 12.616922370201134 0.23839654176917008 0.38304911961595967 0.8266042670367764
P 6.092219102058827 2.0450160920005813 12.066521306770438 -0.5544537687456128 -1.003282505860543 -0.6267791577829012
P 1.4432806579631128 5.5392926939567415 2.746007740170713 0.6337820714632956 -0.017047699510906122 -0.20734481466968804
P 5.373750613447689 0.16567455148922833 5.232387285503492 -0.12581976141100265 -0.09682440261991712 -0.8197869870046268
P 5.1296308522326495 3.4482289429314945 2.3216182972913866 0.896812866841378 -0.5094054702567227 0.2001999760947907
P 8.528724256249454 0.4051970099556139 6.2690016251041065 0.78494673939699 0.659412113326574 -1.4261325595235246
Ni 3.9353116765205978 5.138651939403811 13.137284239535512 -1.5578591733372653 -0.799946555239932 0.2416091351691968
Ni 6.147483756042238 7.750961010596021 6.122099704136624 -0.2941110617226548 -0.47017120734644835 0.19624896186684268
Ni 3.2277300635338078 4.3145051928041385 1.7857461285456602 0.014483281217839573 0.6846176660579242 0.021625291579259527
Ni 6.015068749519528 8.492164131509247 8.564719047088346 0.4750928130177818 -0.6238285597950095 0.2546669967944195
Ni 6.9031280795831345 6.2229735568582 4.3330222103077976 2.1306310236657757 -2.525915509005663 2.4058411347188695
Ni 5.276197864172786 5.393639918358667 6.496802267613342 0.4288453520144679 0.6714374199222244 0.06386311720254807
Ni 2.962097761453518 4.861451748913759 6.59991599937297 1.7283955609293522 -2.0625304713431123 0.6939780242269016
Ni 5.14705731638542 6.352254038779555 11.431549650122115 -1.2787217022053075 -0.1333626067552671 2.3804021258204746
Ni 9.404413408868429 7.008274587862511 8.55290860617967 0.5842788225268454 -0.250243156695111 2.2237527806231254
Ni 6.7563465019708815 0.40689954191914746 1.4588459981338289 -0.07171192382300552 -1.8923116149914443 1.3268967192486374
Ni -0.406551572372628 8.91805833277607 0.7357830054567169 1.290451846158042 1.6373900789840574 0.9203479738488408
Ni 2.0784323631971677 6.3817334963399155 5.056607623751802 0.3971541915587741 0.6518836661600128 -0.7255195464786086
Ni 6.508541808560797 2.368450520360617 0.5485147513045243 -1.4886304209474297 1.6807602184395765 -2.0772022144226745
Ni 2.664914976629829 3.7761412635791802 4.218125091572064 1.1103411846139586 1.1247594169218178 -0.6904185890104173
Ni 4.978455342813141 4.768992602116057 8.96144537746649 2.5837270206974923 -0.07028599000975637 -1.2602372702478748
Ni 3.003126449539109 1.9772973000921445 2.7678813111016556 0.21154085502890663 -0.6104467391714647 0.6349195275018485
Ni 5.531400408799759 9.265757339969806 10.779933294682907 1.9983827330206099 1.1993113812967797 0.59654889814345
Ni 2.1393410272514704 6.330368340223666 11.816737944705748 -0.5959403180251737 0.4959280045955782 1.2564412935405522
Ni 2.5157358608552305 9.160377608133782 9.124485435659818 -0.4183825048099311 -1.1973059208309766 -0.3236779767464942
Ni 4.7443268787649195 3.982721361116089 11.239507776212442 0.26649998487360554 -2.0274063739464694 0.07539991419755401
Ni 3.499706046354935 7.07667439255636 7.329127697897562 -0.6860042619928057 -0.9899047990020566 -0.3244133122506219
Ni 7.686162177616823 3.4506171521515747 11.948333870097509 0.9968874009674766 0.023414265158882255 -1.1517282322011777
Ni 2.372182097266992 0.4403895117596347 0.6779528923501735 -0.458867609408171 0.5732364486697547 -0.031216020591488175
Ni 1.6108844347129372 2.8621008293049393 1.2072500225868676 -1.5435075326012835 -1.4726060204947156 -1.5430377920537168
P 4.398428357428508 6.873573990484647 4.765138816065999 0.6453456079311789 -1.0042297002651608 2.7619949726058817
P 8.83861306043935 1.8497240146054563 0.9602998602883429 1.1184388740204285 -0.3756741673081272 -0.8994235649913478
P 1.696225598561729 1.9022552885049475 4.87426038664489 1.1248275511555919 0.6449177763651409 -0.19660814497847431
P 0.9513655322802551 8.43154466466519 4.866369034382134 -2.0283509972479257 -0.5677926519463641 0.06745649098076124
P 8.347854723597468 8.393230698778986 10.095520109813572 -0.9161879289338801 1.1271101765421814 -0.46040410065735543
P 1.177209895596324 5.817155239347675 6.960664331008301 -0.23871304456832435 1.0801029545547076 0.20952536726077464
P 4.458114930045973 3.175571947324954 7.154589718361467 1.182736507657234 1.0278753647085588 -1.543370235692471
P 7.291799801208867 4.311342681375986 9.221960754713912 0.1854089338285452 -0.4390546884473019 0.14548870059483973
Ni 8.481883637132185 5.1890468855244025 7.0692672123972065 -0.7503463757143013 -2.5207784448894133 -0.11872660200964712
Ni -0.12791379187939514 6.6072886624457405 1.023023936507597 3.042891335410476 -0.016719626747526042 -1.7191097647520521
Ni 1.1310689471489994 4.339973205190147 13.139181746392405 0.012266476072178874 0.897708382072454 -0.8393577100477028
Ni 5.721514923237288 4.2623657344798165 4.349065192322529 -0.8546544883057734 -0.5886813224699151 -0.950916333554001
Ni 6.661377869703643 0.7254334769068865 7.148541765090459 -0.990182221033159 1.4797680854607933 -1.0650386040224173
Ni 5.948562720105664 7.818446578947809 3.4621113419174354 -2.898609510639544 2.295170827354796 -1.8074947783553648
Ni 3.88869495201771 9.19579027297528 6.901611193570693 2.3892384931651818 1.7501375805921342 0.863803501794893
Ni 8.790755586615093 7.464291943706043 6.478737703809582 -0.028313759343028655 0.904984604018893 -1.9502203143827703
Ni 4.6501512065902855 0.9747345326564272 0.1530478281322826 -0.05842163447200261 -0.5848760897912121 -0.697476010077831
Ni 8.02300229601301 1.999919985087042 4.9204517113804505 0.19087432781849065 1.561243773538782 1.1011790584987164
Ni 3.4122472126117755 8.61359897298495 11.482204873731925 -1.1715995172038078 -0.9598408897371405 0.8242478509894579
Ni 9.2671286944829 6.718116496565073 3.885899068020609 0.052258443084084186 0.00900297482955869 -0.20485778658177622
Ni 4.6243566812249695 0.3288023017398559 2.8947530601299456 -0.5044108452556088 -0.34221665898063 -0.8455250152006794
Ni 1.6833143424656718 9.164417040134934 6.970768508376537 -2.153369345803556 -0.36177812605232534 -1.2552501014459283
Ni 0.8605352188021861 4.055916242134631 5.474238247959456 -1.8430071123293614 -0.16632106395915872 1.0205734317305069
Ni 1.1898226255398705 4.274614635674992 8.50679937613605 0.14498142194111804 -0.49090843989379973 0.25723578596286023
Ni 8.218816794175027 1.6712520201158154 10.517628626308879 -0.6638871183787921 -1.096635147881776 -1.2101598939755094
Ni 7.563617192011474 2.5223407519795136 2.4604786700256325 -0.4044874919953937 0.7736783655720224 2.5046977372774673
Ni 3.2558288376388105 1.6926806005006727 11.10884101347037 0.9103520389783935 -0.9574037410505575 0.2560823890847074
Ni 2.382210710202874 2.333550947343747 6.867354384675946 -1.2207410119254654 0.1064272158170038 0.8040387230314348
Ni 0.1705703803903921 3.8090257850666083 2.8867786802810222 -0.17709527175652726 0.7606899237321544 0.6357921599147889
Ni 8.611929092319347 2.684421794907903 7.64819058391178 -0.19768080921736275 0.21772718634527666 0.11456475732247366
Ni 2.341816390191367 6.738976011471707 0.839282955426155 -0.41562345400755524 -1.5500155089231307 -1.0422244343413791
Ni 5.8683897902722 1.8607881401328574 4.07395375200582 0.8870305906436337 0.840209773635353 -1.1774480055647851
P 1.3390017413144693 8.247382015393326 13.241982025691897 0.5354913687104972 -0.6263119883384956 -1.3145153148651492
P 4.377969987039308 0.6582576294383274 9.134275227673692 1.1606291342352333 0.9684985654121385 -0.6949789546875902
P 8.021136507559822 4.3594427076991575 4.970342894618682 -0.4366442792335964 -0.50641707705236 -0.5185912505210487
P 1.9794056410442464 6.996221594454919 9.795217726696155 0.2681313498294414 1.2146413267856306 -0.36390262859449585
P 7.914805223612673 7.937968987258994 2.634524081410086 0.3776675435890721 -0.47007967607390655 -2.996930552409645
P 0.6494100605933127 2.0369558858828114 9.237307797635605 1.145488421939053 0.7185960798858978 0.9044593276430424
P 7.075265722274204 6.579376467186058 7.7546086270220025 -1.5328590517485021 0.7258280788579629 0.29470498655291183
P 3.2041464974855196 2.697398353599821 13.029486445864157 -0.8366333691380042 0.9272228465918031 0.7203714266187659
