# total energy = -381169.4191401745 ev
CRYSTAL
PRIMVEC
9.30423046838355 0.00000000000000 0.00000000000000

0.00000000000000 9.30423046838355 0.00000000000000

0.00000000000000 0.00000000000000 13.61768177650575

PRIMCOORD
 96 1
Ni 7.318642361034654 -0.2928953064633155 5.505437697553681 -0.44008158704991945 1.112813043193219 0.27584054554824106
Ni 8.75338257356976 0.6170472439259659 0.5169123270348122 0.5293482319272367 -1.3053683582585585 -2.682758201160741
Ni 5.184931157491025 5.285593624235623 3.05179030325985 1.6777911085089234 -0.2832373522329445 0.8949909831412908
Ni 2.084184786085316 6.391029216612529 0.8440006795547317 0.32761613545863577 -0.7701492693728414 -0.5301966959704612
Ni 8.421398335108348 7.359590278230604 12.475471021570751 -0.35733268868646206 -1.1998723960065723 -1.0598969119204777
Ni 1.039636076264714 4.869834096877976 2.875836144733142 0.7174894770852804 -0.8777051994776497 -0.3610512751886298
Ni 7.676231841060087 1.1992129287590858 12.121793039929589 0.967355967167263 0.8211090482501601 0.4375868456525238
Ni 1.2284747327993635 1.153073251100664 8.349899047563701 -0.4004359476338394 0.06856206534011419 0.4769684327739399
Ni 6.502242680426023 1.2018367216809804 7.299268162448623 0.7857525231277371 0.07972091017041108 2.6812597622383434
Ni 1.0938890426745258 5.729247233791283 11.94777230044249 -0.6644273071529784 -0.28372920426769843 0.24349632488958065
Ni 1.7530007114227792 1.778438476842849 5.985202885437204 -0.8575017279465813 -0.8381624041880211 1.5792679780303447
Ni 3.796386447995657 5.193072358933073 11.867305595812303 -0.8452563349203249 -0.21777757996723787 1.543313928533239
Ni 5.242170781801291 0.45033497727627175 1.0849848943544795 -0.4179413035074544 -0.07180988285345052 -2.1382576869730983
Ni 8.985541726006328 8.191658282528847 4.036702619065646 0.16968612377664968 0.9987298534928543 -1.7901120641025428
Ni 1.1202107099654464 0.8467054192795358 11.154555970271746 -0.8658758109428895 0.40349144663071157 1.0578508280247265
Ni 2.4298090260484915 7.04457695568953 7.617050423903015 -0.3255104019695427 0.7369604413256985 -1.221332108542245
Ni 3.08504083079522 9.022888906107337 5.831214153612654 0.7161404192565537 -0.650100606117661 1.317506536282989
Ni 8.43036761303993 2.1306501118014194 5.607420434566425 -1.4561005666405245 -0.11074898312080926 -0.5206717871991614
Ni 9.095247904524266 5.309012371698065 0.5993682760859241 1.8764296536538654 -0.1996962969854948 -1.8568054516650345
Ni 0.18503880891301192 4.85118841951813 9.475141485231845 -0.2320934823692777 1.4065456385305324 0.0680128777048635
Ni 4.675282642988564 3.9396715933757127 5.146380940422636 -1.1381193831684917 -0.16302953769208053 -1.6959796064924921
Ni 9.188327423639983 2.5513874023264904 10.14631608845966 -0.3820507602584324 -0.7422476578665669 -0.7385897493990055
Ni 4.784151440786747 2.7888220532975048 8.883358017620845 0.13999836690422984 -0.14345418666331425 -0.9858244582850956
Ni 2.072991797131276 3.8113848671094654 5.423009661193228 1.3731827467993707 1.7873998073777022 -1.5994421389853744
P 1.497413507293551 3.3363853059443636 8.264216391472473 0.6241476336973251 0.6628939012275873 0.6398735290730141
Ni 6.964476837729992 8.944770589184548 10.513844347205543 0.5801514306220331 -1.8222074019751908 -0.11724178993400453
P 8.223925352930017 0.6488807371989087 8.810612893649807 0.21047050478286333 2.5382503764219315 1.2037485911325267
Ni 4.777098834280379 7.458429115852184 13.427469622975122 -2.1023319196107666 0.27806892065812755 0.246162301757518
P 1.2634586384246234 7.069958895728283 2.746685985902527 -0.02128436330007302 0.8170593036608187 -0.4128790584931986
P 0.25858874879803373 7.0026334858600965 8.0548042210765 0.14054986853232568 -0.8445320551597906 -0.3939043171629087
P 4.3953648768353855 5.510104699431775 0.7853998463633549 0.42279631760691055 1.649718004421791 -0.4358104704783914
Ni 3.4558516219625393 9.41383405146962 12.177066680394478 0.10592739336244983 -0.9400505944840907 -0.23911362244085274
Ni 4.935242835320949 7.850165120783123 8.012344366469884 -0.2809917507318774 0.15976063713282163 0.4052665362532633
Ni 7.261356215573291 3.941644090182243 9.629334910121223 1.6408150455052064 -0.28554491732019854 -1.2125965284414602
Ni 1.3945831549078127 6.906046271951633 4.938588636507876 1.2263971817699781 -1.409531974852366 0.4482795494796796
Ni 3.016766389444646 1.6523196362177417 1.6702498182737098 0.6555778271821484 0.6104253990152261 0.7777245106169379
Ni 5.827099823009598 6.113065338805442 6.683122498430925 -0.04099829678923262 0.3030788124389039 -1.5641871724378222
Ni 7.012365710669677 3.7454550917742013 12.785381904259456 1.6811705665041174 -3.4351609451834384 0.27170595455457724
Ni 3.4140104986655193 4.353142280099366 7.347787862197188 -0.5200506086753947 0.2378147011237711 0.26607806684483853
Ni -0.39798937806145424 7.437652769772075 1.1321424547989127 1.7616445527904694 2.4634055633968996 0.7639218004058909
Ni 7.344284819519553 8.819693822344023 2.1948846563906934 -1.258253921269259 -1.4757018858112199 -0.5154563044364929
Ni 4.6533897892821185 0.27977355058477704 9.740767953767895 0.20172026939405907 -0.11194017521543302 0.23143553707030465
Ni 5.786598508864184 1.5195668794461428 5.273664670671223 -1.0410029032294523 0.5738861664386117 -1.5322550996159159
Ni 6.495757631963041 1.7618304259010698 10.20509091075614 0.14317830729410824 1.204946725205686 -0.6903363137092563
Ni 2.2040697924633683 9.253168604039567 3.7498876270507635 -1.1473928380506175 -0.6682844761155393 -1.8374501870668742
Ni 9.179237190715549 7.620927496635473 10.08424756866548 0.5142134331683273 0.28509908803203154 0.3992056747711641
Ni 0.4444835468912382 3.192588427902237 12.408744804128697 -0.9591382072431609 0.3284769407970343 -0.8119140120144532
Ni 3.0514711681633213 2.0032845043269014 10.287286341361106 -0.22517284399004445 -0.9453537518645592 -0.10607985977991409
Ni 6.680865292179678 8.634288426760365 13.155184116870984 0.2299142153297718 0.5603140841811318 -0.05625727983083214
Ni 6.0659766296646325 3.686270883348063 6.887578305388978 1.0285171120576158 -1.3190150025077156 2.01657380210734
Ni 3.2473996481252176 4.623876771025914 2.233232041240297 -0.8610884168565751 -1.6949964166436162 0.7577915191384369
Ni 1.781787999721863 1.43088826122424 -0.177498660743142 -1.3337178559355287 -0.6635137941997734 -0.08865446521461506
Ni 8.434442865876065 5.957600956068081 3.222025151470641 -0.5962195398284894 0.19275149023654545 0.8443950153612941
Ni 4.585478212910103 0.16596141527098174 3.05124600579201 -0.37655117059644183 0.22852633384330964 2.4639393244131824
Ni 1.433353882232403 8.178771923674862 12.781855601006272 -0.8152574745653896 -0.06637791320460182 -0.5231433886681055
Ni 6.951283439278765 1.343344759089114 3.364493385437425 -0.7185372016235044 0.18923319267064184 0.18585347756513154
P 3.3830553247252957 5.739519103953594 5.367695082115373 -0.6373106534418443 -0.7425975850068178 0.8714803016138604
Ni 9.153827337986137 0.9084454997469663 2.5635015100722582 1.1087555852943938 0.6040953430321403 2.128432987573192
P 7.528499273635118 4.392675954301954 1.4086399859234093 -1.266666056592354 -3.8145925226514694 0.7434082538335712
Ni 0.030489962429249385 2.96384392795622 1.2224362873869181 0.7184230446431433 -0.5868738369475313 -0.7634109222077433
P 2.77970390768241 7.016487484656908 11.514144929371346 0.4111057686428597 1.7954622726708627 -0.4732529315955656
P 3.306239600033235 2.4195278516559613 12.372603452264133 -0.44588713798810303 1.1849072900563078 0.025218408247156567
P 6.843624191409114 4.332393846709917 5.046726121810808 1.2154378545449969 0.7257427182330081 -1.1726256444754772
Ni 1.5548950415895237 2.4382572670877827 3.419658166408746 -2.4231528865244396 1.208317698560448 -0.6286306091693432
Ni 2.1196245989913307 4.062487432272903 10.421284934559095 0.4237465973353218 0.057854963335255194 -0.09017450140356728
Ni 0.5498558149729394 8.643685699282043 6.481335144699819 0.18331297053146495 0.627958265692667 0.33176358196810607
Ni 6.916401880185918 6.304034664060352 1.54150811514973 -1.1881304249792959 1.0692678116124166 -1.0728249328360557
Ni 8.194226250069425 3.226288349757208 3.182274688703939 -0.6675997913436889 0.9999606405761617 0.6166847496613767
Ni 7.167569574960892 6.332068309711659 9.955846400367534 -0.7191851196201485 0.27337691449909696 0.6424019519218227
Ni 6.485774192937535 7.172863681955778 4.089348744916553 -0.12934860049986754 -0.037736338208509204 -0.03759801285843203
Ni 9.201939512451089 4.395122966849678 4.970957123018439 -1.5151644626822165 0.29535676120429777 0.21837613278318518
Ni 3.3927317241535593 6.291604212487122 9.515082684718045 0.7807838662685521 -0.8391965018794902 0.3850957177323432
Ni 2.0450884107030434 3.9301068447100826 0.30498522321051313 0.7498421823843732 -0.21297733036511704 -0.39822557024608196
Ni 4.814771662439069 3.5310298021359707 0.09173691869504735 -0.9128586074503312 0.3817918501700909 0.17491137673133103
Ni 3.479177327122786 1.8850091297768197 4.097464824937009 2.2814758463662064 0.9388331771372218 1.51422780980056
Ni 3.9329632433874644 1.8772400975435504 6.582174391818588 0.5824101447492228 0.5730603281032066 1.2874171730967765
Ni 5.085906235265055 7.454502730699561 2.1517158194413533 -0.17774010442937774 0.5279294972028391 -1.6438967697543236
Ni 5.258397359304071 1.615419059167268 12.554630481855098 1.8268050486482021 -0.8479287395461654 -1.0635831025228135
Ni 5.410502914932197 4.1863918661057715 10.611047501154538 -1.4368059800769706 0.6662491908530654 0.8845962701705282
Ni 6.942239727505425 1.9944268771579525 0.9988919217105712 0.12285193703193036 1.084820157524719 -0.19640297094620368
Ni 3.7469809855301968 7.294293190550264 3.957202623955264 -0.5084924715241501 -0.34375983509803376 0.6072362026539672
Ni 6.082742852520143 5.668862779666831 12.762749364250563 -0.2151064608929779 1.9069818154091092 -0.6000016325787408
Ni 5.118815297551371 7.422189139147293 10.992941491359307 -0.5533047427428341 0.154576778939037 0.05485834260077649
Ni 5.039273433405001 2.8074956433480094 2.3803709987772628 0.2881095927235812 -0.2947643790359375 1.0417392671748444
Ni 0.8642559887425485 5.084166344214013 6.939026046387616 0.40676548939629303 0.9202978373371957 1.1781170066073519
Ni 7.6513430252229675 8.16202430927979 8.075462403432821 -0.8460130105806912 -1.3437428442716988 -1.1879622748325478
Ni 8.727163252811254 3.148979500863515 7.636237607461635 -0.33922080957709966 -0.3167280277912222 0.6793091093608171
Ni 2.5335418887655194 8.672510204502005 1.1441932937791885 0.4809451580335008 0.516234320253098 1.0451495784079743
P 0.47909342246167513 0.8276429124058567 4.742085155118415 -1.0126171529979078 -1.2770216887950654 -1.6374193895600961
Ni 2.102393164624846 8.644150910793018 9.839387211556295 1.4242050034835085 -1.1601953891319245 -0.40415042037094906
P 5.138763567141945 8.598011233134596 5.107693020747 0.579135587763009 0.6771635237727242 0.36450555228581744
Ni 7.863098000788206 5.5300808817130065 7.745914012442869 -0.14060154770586752 -0.0667365820956012 -0.07195977816775348
P 3.3067606369255262 0.2146774342771785 8.049901822173853 -0.2169023764511361 -0.34912958405037936 -0.18457821039713374
P 8.088725583610694 5.064413463458048 11.559314175817875 1.1564680608790083 0.969619309280143 -0.74277807644874
P 5.118173305666226 5.148263186196037 8.441805303248742 0.6087091876550679 -0.18599051736362807 1.6447056388088641
Ni 8.253717498092806 6.992771001827443 5.7770700466964096 0.23555444433468467 -2.899628695932677 1.1499873382506711
