# total energy = -340893.72616718867 ev
CRYSTAL
PRIMVEC
9.02397923621960 0.00000000000000 0.00000000000000

0.00000000000000 9.02397923621960 0.00000000000000

0.00000000000000 0.00000000000000 13.20750577001376

PRIMCOORD
 96 1
Ni 6.299116368868735 2.0029353131831575 11.323296103887134 1.0009512866242052 0.809030005598439 0.08972892922571644
Ni 4.55939247598287 0.46606144487432494 5.9936059492742135 0.024591830406751194 -1.3446980090961165 0.11861347347055054
Ni 2.8395574328753668 1.5926871785988341 4.766271707196035 -0.717304614767984 -0.5495401334940794 -0.4784131356402664
Ni 3.2657328904446303 4.232562003536101 4.797401727649943 -0.05090424304903491 0.014560157202362024 -0.23227011715645804
Ni 5.0254809927942805 4.639011042949512 2.3916152354919546 -0.18205518686496389 -0.9498711801189382 1.2633601321475727
Ni 7.175362780474185 6.206250600688556 2.630090124476887 0.7290365584929315 -1.735792881834688 0.25196502448222413
Ni 5.011710400797103 4.7001665488242645 11.360806077514045 0.15167348924931298 0.39673818706727804 0.5821260378499007
Ni 5.808726276534128 7.923928912808297 12.598071208512863 -1.4218755840193835 0.6905628278977656 -1.0142896556043242
Ni 1.912117988242402 6.526159681220624 0.4772186925449082 -0.7180944576591312 0.910013424692052 -0.009604612969299589
Ni 2.595693423614737 1.455062474438315 0.28394130492109143 1.3892703963898527 1.0914363772896558 1.049409639235909
Ni 0.5871876081774132 -0.08689821084876734 4.719900186163339 0.8312777612530459 0.11775061124962302 0.2730105322986137
Ni 8.527930901109132 2.4300221926342784 1.3350805516760142 0.5268383210211894 -0.1955053988325988 0.7684685392363088
Ni 6.737122262944092 0.5923998584641562 4.829033481337824 0.8103021874426432 0.3057895265018476 -0.13608154834832692
Ni 0.782063142487141 7.262119314852208 2.4381455785555493 0.2692029856270654 0.5840042287092201 0.7449141489551364
Ni 7.401639054608669 3.8688685767587483 3.8780008435353825 0.8952244393083356 -0.7181983302268469 -0.8212681995358436
Ni 7.678124748056583 3.971056115275155 12.441377934267654 0.05730860391348194 -0.03483716228384323 0.19715296173835078
Ni 8.003213592550892 8.848949931061679 6.915819607651893 -0.9658647273337172 -0.24083908977239166 -0.23969134932119368
Ni 6.723135095450235 1.0860900199294103 0.4358410415064695 -0.5101983984716633 -1.7604667304322843 -0.9394949790909368
Ni 1.867783179276391 6.496876869273808 9.283185606699016 0.2704761959125342 -0.650628453596673 -0.8175902364636242
Ni 9.207436521939705 4.724856155445678 1.656406396915524 -0.6831487948218815 0.2635514437682429 -1.3208242878023124
Ni 6.227619383027558 1.9509030501060116 7.113377970926733 1.5024634701757802 -0.054956301631221484 -0.5673733050207583
Ni 3.084035072709921 4.378272192905972 0.4335281956815177 1.2863668774553911 -0.7214230078117317 -0.5362300466487345
Ni 6.0456237739849135 5.511268855824456 4.8800541563658975 -0.8513251668222241 1.0769458969829646 -0.6915444750847444
Ni 5.377822253954038 2.9791583884430826 9.141297974845529 -0.6851023190038266 -0.32483163073496313 0.17173503588587843
P 0.2728255675540383 5.734431857194179 12.499477920843425 -0.7787120713411879 -1.7813055215545064 -0.8936576090418479
P 3.8925294497709366 6.242427732612989 12.828476855450695 0.28470236681424516 -0.1435572879000818 -2.331465548020772
P 2.4756654785593923 8.569035125583012 1.5023409053633554 -0.31177171222721145 -0.42608193033671776 -0.7705009962853052
P 6.501379834808927 7.607286512684472 5.873972352102405 -1.030678638485309 -0.3779760759684264 -0.03440675961464398
P 4.732309962123049 1.062663770371958 12.50526229140056 -0.7451319213928973 -0.14035883556744214 0.6289386273280653
P 3.910938366988657 6.283766580541605 8.391639941048995 0.9653276238833246 0.6412038178486634 -1.1160480051907489
P 4.8056929595811395 0.9754560370425199 3.799468763643747 -0.1563932633224855 -0.5627090667758696 -0.9529156233722169
P 0.2563640250106235 5.546642853615371 3.567531747464814 -0.12233051731082158 -0.8702081197696562 1.7521304426524469
Ni 1.3495450876604675 1.0715162937987146 2.619920100111999 0.6888216768369427 0.20206299744545844 -0.5265539570115512
Ni 1.8844955884367924 6.407458261082438 4.951890443818539 -0.34446406025390996 -0.02397322298614581 -0.2763169709640273
Ni 6.051633744017758 5.770148766188169 9.171053643293428 -0.6575071829943773 -0.1267967806122913 0.036915127858794486
Ni 8.615977864488201 2.2472505213952023 10.024852907065997 0.49637280544248064 0.165795787583308 1.6531961927783785
Ni 2.479888700744634 5.059690897290545 7.038200104039914 -1.7811296580982745 0.6414053923365083 -0.025351848501227302
Ni 0.4737922877078648 0.05102428461968547 9.17946760133941 0.001724181779958321 0.3865139382361085 -0.21174988571591918
Ni 1.5878503258396681 1.13916004059481 11.335261900078654 -0.9410798070795534 0.23321576889917897 -0.242241369436557
Ni 4.001854955698724 6.69019757199696 1.7170421215982459 1.4733858360835335 2.381393028978834 -0.20969068919404535
Ni 5.691270165501846 8.014782333665165 7.99610089228079 -0.5027614825776437 -0.035462968793300215 -0.33325816423576154
Ni 5.150851133434375 2.809345151088637 4.897910806067086 0.2627747135032184 0.12549245997857097 -0.7518268169145697
Ni 0.8528752083200706 7.573401471433226 6.992542379748356 0.3455935458726629 -1.534952443942421 0.1808493394823208
Ni 4.820131326026411 4.816602950226348 6.9488518828849655 1.2477072561016642 -0.33594779525278273 0.6947089888556551
Ni 8.197490837051044 7.1701559445748595 8.858340283638523 -0.6062686965343752 -0.26099962388066666 0.5126077792441043
Ni 4.797950385574863 0.3561963050006453 10.321731890719953 -1.6633564211408323 -0.07580486294545655 -0.0839334055898619
Ni 8.265387255259931 7.0812065832929605 4.714749298933987 -0.41337913805806875 -0.27108451892049445 0.43595085271099754
Ni 7.33580912759726 5.698723972179217 7.008892927349723 -0.04610373633659803 0.9714298801263205 -0.4110276071067566
Ni 2.5002287494744095 5.30484533555222 2.600690000802704 -2.5394132863817815 -1.6120775683611979 0.6413064048647987
Ni 2.1008454856401526 5.364286285411596 11.518661640258099 1.4856685101056284 -0.5526182581987709 -0.7957993658407779
Ni 1.113017573349841 3.188839565144533 3.7987296997613296 -0.7537772557727211 0.7352941093668691 -0.10334831978136394
Ni 3.79579239458762 2.4054498977402328 2.4336678801617095 -0.6901136561754889 0.49067035574106466 0.019373776540921473
Ni 1.2104224029812516 3.2961076038538697 8.410407110234138 -0.6427907027198091 0.2734059679648195 -2.588284043940555
Ni 3.621223520285263 2.796810844218336 6.825374973045006 0.28600874433049456 -0.8902727517300151 1.4540753086803797
Ni 4.230459416422508 6.9092456389297805 5.934238093644967 -0.02380147329497191 0.7880441473753912 0.05025709638333925
Ni 0.6385051721155183 7.496733745608836 11.140926902112719 0.3644623577527078 -0.6970630909101285 0.7837216087406373
P 0.38608823553187077 5.551497754332593 7.9360860173552155 -0.6856733610159482 -0.7028141344612929 -0.11653113702022512
P 8.341152583181492 1.6801024634459225 7.863180388387721 0.5104516521330499 0.18870431675036534 1.7810160153385457
P 1.9584651445317223 3.16747980678456 10.304733421424354 -1.7516722720691058 0.5293680294215786 1.7496740106921544
P 3.996548856030087 6.0342896563253765 3.8433442520772174 1.2921947969910776 0.722533210156775 1.244294373765373
P 6.792168535016688 4.054852784531898 10.39141415437854 1.3154493966436442 0.1280702480080762 0.32622002644205755
P 6.308943482030546 7.833346211322277 10.235698177062096 0.052768292840967186 -0.7415580879987099 -0.6112856901329924
P 2.5156868255498783 8.503800781187472 5.853791125403528 -0.5146623477802879 -0.12463782528775956 -1.452574555765137
P 6.793837971136923 3.9034755363322575 1.4276656741084128 1.273222369653633 0.6082268487020106 0.26980796620091596
Ni 5.219965788812083 3.0879514796082006 0.1801222309963691 -0.5879066490874197 -0.05633801247009652 0.1977054918077111
Ni 1.3092169253830195 0.9720630209278812 7.014875825445482 0.34454479289317436 1.4982825993252131 -0.2172926699110193
Ni 6.97766544792231 0.7140620461215251 9.36078009516961 -0.27961183966521524 -0.34848757959100624 -1.242300483263796
Ni 2.7154506492992327 1.4294343739979585 9.15899580251582 0.2491918326124612 0.32607115956901905 -0.13916121571491516
Ni 6.308429115225934 2.000498838845518 2.4351207407852646 0.15747209820896108 0.3193711218410242 1.8308416806114212
Ni 4.2120865951209 6.861689269450668 10.655167915815435 -0.41110371176033067 0.5181562198661592 -0.4769499208311786
Ni 8.282902798553852 7.081865333762026 0.5309790476059726 0.14853185829653776 0.20192184388190382 -0.48556157375958964
Ni 7.7303194427562385 3.8038147119437733 8.410790629342841 -0.4142188603505447 -0.09891393815909418 -1.256584761096952
Ni 3.0455568261332733 8.407190061710551 12.381124826295732 0.9791699290830554 -0.44944991563869696 -0.48691680223590345
Ni 0.13296562378821064 4.651157318721597 10.185852424103507 -0.10898649190374779 0.9150221907605532 0.6461547340960356
Ni 8.47470747280025 2.1625875501517435 5.75035015620009 -0.04947830923578575 0.62426153356737 -0.06238704687765384
Ni 3.665468089460991 2.8152017134780003 11.36664368954745 0.6110902862927348 -1.0467467476917651 0.883198361381737
Ni 1.0874255688255978 3.2792778829661002 12.669722504395423 -0.4525601791329044 0.05004420904158478 -0.5145224797683139
Ni 3.047325526022819 8.390161813284159 7.937962102595198 1.1455763536671688 -0.7616193775249593 0.6747006640545283
Ni 5.6791058417717055 7.827255025478179 3.629158305044842 -0.9086327422944416 -0.15544658313850002 0.0207940539272158
Ni 2.9765594824829336 8.083996252812184 3.5578905282709834 0.6537564577026934 0.8168798406601608 0.7765117212557594
Ni 3.4537926133942873 4.413005488185877 9.259795453057675 0.20563580239838133 -0.5350177715081882 0.5555732270620367
Ni 7.416059373095884 6.316126569337069 11.258183583208474 0.12777097160010253 -1.3603022912922766 0.7536715834327924
Ni 0.7176671257433287 -0.04041118288450833 0.17496683177750447 -0.6789764086117468 -0.3712259017287865 0.2881635858899682
Ni 4.635275115631798 0.14514258108899122 1.620878089083226 0.17170084021383333 0.11920714119049146 -0.3667403551536071
Ni 5.865252481167364 5.743058781145229 0.400118718125063 0.9279707805014211 -0.765135618208334 -0.36935182463452515
Ni 7.84290260511324 8.753620616606776 11.49173137964396 0.04082037645047163 1.4424037858797223 0.4180621453560349
Ni 0.06656718609801988 4.5215007880430615 5.654436990302058 0.19589003586552714 1.285151259880735 0.5063075480576894
Ni 8.049975851875514 8.846955631696426 2.3903600000091187 -0.2907488301186412 0.40340248646133103 0.16805707281365895
P 8.497502043825722 1.5041980402473785 3.6704186443559133 -0.8112318983457641 0.8275044102535426 -0.6181597915450063
P 1.8057072275407535 3.204866151898784 1.6721496307282868 0.00659487960869832 -1.2235465996950607 0.018304711846458797
P 4.557632800072353 1.1346390271016344 8.072031359018569 -0.2463955008142466 -0.5544015753514386 1.2683879243794671
P 8.462561197028165 1.5855672591455097 12.509964686872205 0.8661216084051082 0.7952722896927142 -1.227866310116337
P 6.481833896233641 7.736464772474506 1.3800253816243377 -1.8163745973434977 1.0722214949241018 0.8262535685655771
P 1.6892708261386697 3.114734649364179 6.04569596581714 -0.34196289109861105 -0.5256085623791464 -0.49578042327412036
P 6.6616908222465785 3.768215114677152 6.049922797593994 1.3895349629051488 1.021773622686195 0.22086136109888413
P 2.2914499706757887 8.40497016286959 10.142109588161752 1.5740404110828181 1.1119283265954207 0.8239421468235809
