# total energy = -340871.1795782052 ev
CRYSTAL
PRIMVEC
9.22475276775668 0.00000000000000 0.00000000000000
0.00000000000000 9.22475276775668 0.00000000000000
0.00000000000000 0.00000000000000 13.50135812791075
PRIMCOORD
 96 1
Ni 8.61030102175659 6.626822399405359 6.562334921646528 0.022096574788723233 -0.4287646193752035 -0.5010717535800466
Ni 7.14478303119912 5.748035571016593 0.4518975662967619 0.8401442105047403 0.12647179317270477 0.4196734557072127
Ni 0.04020792900674042 0.5900170190324909 4.137058914582375 -0.942028801256384 -0.63553042161297 -0.37974910870844925
Ni 7.6039450901411225 9.175437038169726 2.4334980290256794 -0.5058005265142838 0.13621318883018474 -0.56957211244429
Ni 6.472732132553181 1.7989466720332825 3.6584224804995906 -0.2048683281047375 0.47538900410196194 -0.3437770614892144
Ni 5.039113336366811 0.2779888410331115 0.21569408695907152 1.0454216011224382 0.24854674282929454 -1.4012041717129609
Ni 8.299177791983874 6.818844848806399 2.473084209709513 0.23059067257150612 1.0564675745239547 0.855897873794571
Ni 1.356001728101226 2.923628504804933 2.781104232719233 -0.0755562372697602 -1.0684448014904888 0.6871738568208746
Ni 5.84507074325187 0.6120835496441467 11.127076427041532 -0.521380640340728 -1.2765444920483304 0.29929209170296195
Ni 9.223267380221243 3.11705311659591 4.73141617969688 -0.2999772906954447 0.5221419439867846 -0.10296651096191298
Ni 7.176968192899746 5.474835299040172 4.162860547507756 1.1041679659237111 0.10295828343179687 0.8523767480151901
Ni 4.030266721558691 4.696736644902574 6.429751242925286 -0.8054559150939353 1.3108471219849427 1.4339345720664465
Ni 2.0076751483302324 6.1651973315284 9.478898188461633 0.2536650378924663 1.4939207228120917 0.35975852451913526
Ni 3.744493111835652 3.212879846245122 12.120911602000001 -2.0922529381082096 0.6660509587993304 -0.30395504439627
Ni 8.960269684582137 6.9045889239016445 9.80203942587653 0.057760860959552136 1.5671051174155657 -1.2314470854890598
Ni 7.787812858274362 8.764981672772953 7.532231863697826 -0.02758562292775249 -0.7103492664960734 -1.0405547599484402
Ni 4.998155434976504 4.717501562927254 10.334505981079358 -0.47915104224755545 -0.3609823696239074 0.47366687920453254
Ni 2.625705895953282 1.847182903197677 0.8728848316974342 0.9627984297035675 2.036774445424931 0.4853414873289835
Ni 3.746365736606425 6.142854980815039 12.243679221516418 -0.9527873253244686 -0.31229184639673957 -0.7039929852607424
Ni 1.3513524528082725 7.416922456630521 11.753553358113448 1.616862391344351 0.35254323771761864 -0.665692547018647
Ni 5.527397939157731 8.739493681434796 8.669558987286104 2.160097151445693 -0.1086638184570064 -1.7311854649696636
Ni 5.3406243739663966 4.044675785065821 4.7445928162612745 0.681486319517794 -0.07382357084936964 -1.5417573826793964
Ni 8.09681439495704 6.933831389533913 11.890996636486134 -1.264800721248841 0.14838659096792509 0.38377982713439707
Ni 2.6225694800810517 8.895447348305183 0.8436442110156792 -0.3016132836369709 -1.8133718059614319 0.04629271241895253
P 7.689541569195323 8.68812103439817 9.730131557154102 -1.9571586933738163 0.31269062449705504 1.0584943751459963
P 8.895382775037225 3.174883090428304 9.287624788968902 0.5921322571329931 -2.2188332318343207 -0.27839982163498506
P 3.6008268153823577 8.38875936414632 12.471258479680731 -0.13924400523670855 -0.7835976815682634 -0.7596727953215497
P 1.631655784260039 2.1508064091347348 12.539872189262057 -0.7263870366852264 -0.04671925843340986 -0.11660749878411529
P 7.257085168930109 8.732879533845416 0.2481642935139676 -1.004470098410741 -1.047782645155447 -0.24923477003525463
P 7.847561580640356 8.083097187892312 4.72999833522758 0.17382251454252645 0.05662931845827021 -0.6185652545135412
P 0.19474190645731423 5.578198651535303 -0.04077525128951155 -0.3096446385818796 -0.27145321511382287 -0.46065761142905826
P 3.95918077828984 7.709199516912157 2.9959920763040895 -0.32623853838481875 1.08205133653033 -1.1416016852901372
Ni 3.926146939353199 2.267453405324019 6.587785091499166 0.7459618734933604 0.658534338707311 -0.8355565911340578
Ni 2.1864693025525104 0.5419671278699174 3.106959392338867 -0.0152911218311156 -0.5524971592398743 -1.244745859480495
Ni 4.981034294215152 4.696718195397444 0.20581068706051883 -0.6921309437158337 0.4219002881552024 0.825679441229662
Ni 4.264935202069502 1.400889374084386 9.144455706678881 -0.4544103449677657 0.6738046346028203 -0.36500100386499723
Ni 4.219023608551584 3.2598430615554936 2.6340875061341906 0.9856287973345219 -0.5500253006606141 -1.2595680120949921
Ni 3.816999666999572 6.140198252076209 1.640239416522129 1.4003400239404529 -0.8420506834988336 1.0469750616524873
Ni 7.791179892960727 1.8968397462571405 10.918588716786537 0.9114781821630368 0.8551825928951015 -0.23378501113908767
Ni 1.4063688771082243 7.948904712323668 7.809833265123191 -1.7144678951046668 0.9192328864077911 -0.6348171975960294
Ni 1.6887477778872022 5.93642346790687 3.0697365932622844 0.25656575647902913 -0.36981745141703404 -1.268393837916738
Ni 7.799316124723396 1.5608281340630183 13.550907837853945 -0.8774264918949662 -0.3059527915525892 -1.508835435140395
Ni 7.515202970462126 4.770645362456433 9.566198479314659 -1.364845944798901 0.062220953613434785 0.5384856754521306
Ni 3.149911685233809 1.094360071089232 11.258620476148655 -0.31816810267185847 -1.9522224324144637 -0.08701307295645015
Ni 3.550939353508759 8.608806611840997 4.915520101495792 0.16839337310715513 1.3918553835082095 -0.2278146524882657
Ni 2.883417808372423 3.750166334663363 8.733191330482125 1.6480053926060587 1.6188133444231347 -1.0705826737690982
Ni 1.9093208364781054 1.8473673982489847 8.321710172600081 1.9092796103043508 -1.8857121073970557 0.10461998740493596
Ni 1.8863235283326023 1.4573540845371031 5.201843506471729 0.8583725605873088 1.2441899869770252 1.6044912713735078
Ni 0.3092026362886023 3.0818330113012733 0.6045109502632228 1.1240603339722641 -0.6115582270680887 -2.274493501511102
Ni 7.653463561912106 4.380253833889371 6.865386492924532 0.21250527582470502 0.6756249756410105 0.12408426677713467
Ni 1.813291162272455 5.685897637736164 7.234958677426778 0.3527021318929861 -0.9789950940680882 -1.511352545135294
Ni 6.155852657179666 6.823872338954533 10.134713522592497 0.8702081197696562 0.4875058419701539 -0.22472547203998072
Ni 4.043568814757975 6.314896616159455 4.550133187232461 -0.14908310281431744 -1.0307470298293993 0.6593113260826516
Ni 7.044270127246693 1.6192392673070315 8.516508350048044 -0.390447726072876 1.1285556507394565 -0.4549556759482745
Ni 6.1520520591227275 7.080283561261954 5.715421458321677 -0.5414591562581579 -0.030687144671211673 -0.8449781415582738
Ni 1.4976201294850053 2.7943251480959415 10.448160467536432 -0.5936183547602164 0.2513281622291736 1.332416363515286
P 6.417438965676267 5.362865252401537 11.893845240078324 -0.2574137063016212 0.981432242754671 -0.007364410784871188
P 6.21092442999501 2.9239790454024175 6.310264867896376 -0.21910529763972586 -1.4506804240662177 0.07052433127280758
P 0.9295045179932498 8.102072503919308 2.295433002330086 0.19944304332410812 -1.1398726184141723 0.07387216469911793
P 3.132366205854448 7.382375758273158 6.582560191646133 0.780933761582855 -1.4049777798227805 0.42028640670086326
P 0.12987805879381475 5.224291019364335 8.524203638638088 0.16612848833237842 0.9651638446119507 -1.3897625055349228
P 5.995166692243237 5.005212370689024 2.4870984538068446 -0.8755153909151825 0.47766031663464187 -0.9514459808052259
P 5.703277071569348 2.5478489843014396 10.155492277746024 0.4300069764227369 0.8573623741552396 -0.022612595193193315
P 4.85447068901808 2.3933251540786875 0.31790157795775964 -1.1702394036314878 -0.0922907764156217 2.065464357160456
Ni 5.669523701932607 7.5254793448199635 12.623931824538866 1.003656344260194 -0.609973141969156 -0.2363193475251672
Ni 4.490166760705924 6.33553238764822 8.330202479811774 -0.8455846647940212 -0.09530153821748749 -0.5341950184965768
Ni 8.2342539834287 4.037904816682829 12.282427794667315 -1.4295367001090669 -1.3206268270795256 1.1315111338233546
Ni 7.675925834408816 1.4301687387269157 5.709075751031948 0.07706778881828018 -0.41282943620218576 1.049151500478516
Ni 6.739152211394043 3.3169627294403528 1.234278350575211 -0.9034740809116375 0.7774632865357514 0.3787890587880251
Ni 4.525340742237734 0.5767702743485992 2.3301051573223392 -0.4270134410120517 0.41977064340670933 0.9252937478898903
Ni 0.30472586386862127 2.5746468905038804 7.095692587947172 -2.0895185698961822 0.05885435113404702 -0.6018474275382281
Ni 6.045229424415577 3.2050203570594147 12.33393604556665 1.870155647719695 -1.1415849731195886 -2.2170450295856465
Ni 5.874220961358485 8.475997849157158 3.7416039193321735 0.21725333203265165 0.5711826514645196 2.4460583303677037
Ni 9.245508258656384 7.833189416143488 0.18566567240823265 -0.6094373240703439 0.8228720536878538 0.8182147574215006
Ni 4.0794162032270584 8.140825689446487 10.143893996345566 -2.628911844764247 -0.14792122129573235 1.9860411807361213
Ni 1.9603521676698112 6.587515728724257 0.6070477572187034 -0.42949249868016354 0.0956154699134805 -0.6252184981640007
Ni 2.9279918127683597 4.092995039003305 4.375398846614209 -1.261987163059446 -0.24853414442380423 -0.3309287447716365
Ni 5.86803115238711 7.358991010519909 1.8003921907602782 0.8189655195445961 -0.37108243417238673 -1.3314372874314682
Ni 2.3449874506360735 4.349821375176168 1.2582700870472625 0.32717621970773975 -0.2614076579523627 -0.9064089951702453
Ni 0.06334822081700686 0.7069730444327155 9.072480497262728 0.34734061047075665 0.22521321030967664 0.34885293335022505
Ni 0.4309832072805227 5.236440018492946 11.281383475578997 2.825708194494127 -0.3294063945898391 -1.3650508617208554
Ni 3.2909120281957076 0.25153778552712863 7.31544095365873 0.17640518766803814 -1.9897561676938638 0.021360725063963214
Ni 0.5012158609370758 0.4570154590200371 11.628071816392294 0.19159500803459908 0.16445418595374903 -0.018772395511496703
Ni 1.4208886376461392 7.050773577805289 4.979125692909374 -0.0366958127591368 1.1537676312287095 1.7402532315988866
Ni 0.284734902584177 0.7412955813027406 1.3992538254545435 1.5344011994246414 0.7596828226238788 0.058637092916918376
Ni 9.126407478284708 4.735277661120749 1.952768498585809 -0.8768222826520642 0.4655928439471465 1.4251725096031005
Ni 5.690307069462417 0.17565220349850802 6.217902032835466 -0.7348439092033279 0.6888437883241298 -0.013913267646982488
Ni 5.417208269764216 3.7268184859203757 8.15897815754465 0.19526988578302498 -0.4303278500972653 0.5890104236745597
P 2.789509827256811 4.678296364524371 10.641729907942684 -0.11275958579293482 -0.47433716579867985 1.8215952223124885
P 0.5266152946506049 0.2919338994862029 6.408784302819424 -0.9346916441650225 0.08756997390118468 0.6653660169171638
P 0.20093909523073938 5.235462194721015 4.606096071145622 -0.7363091808949448 0.7275682014775211 -0.19398099176827235
P 6.510110829948117 6.636342344052836 7.647520053834228 0.819689285084498 -0.3900862289683992 2.2707309491448764
P 2.042544713027385 3.6181601254527145 6.282289883266591 0.4261135549056016 -0.29483199904907936 0.7786004854639881
P 8.271060746164583 2.410473969097737 2.3082461836434045 1.2564335802310682 -1.1844411490531666 1.8545729627900902
P 1.8435206764292194 8.763800904444583 9.722475935000093 0.7839272969935402 0.05799071758217109 1.7454633150449166
P 3.846518875208802 1.5193905455393122 4.178777858059326 0.994884254494519 1.6156897111924884 0.6580193467441054
