# total energy = -340859.2097123552 ev
CRYSTAL
PRIMVEC
9.34342058411069 0.00000000000000 0.00000000000000
0.00000000000000 9.34342058411069 0.00000000000000
0.00000000000000 0.00000000000000 13.67504047227565
PRIMCOORD
 96 1
Ni 8.782721886890554 5.533902439093782 5.6319420166286 0.8996410803187926 0.18574523412204139 0.7204912400260817
Ni 8.731931052757067 8.395353014127446 0.2513127856767214 -1.1796486127605297 -0.12389091981940599 -1.6329855221584586
Ni 5.160501980059436 1.5983042068695115 13.544361652562968 0.7119608339575674 0.7880346342936945 1.120561062569754
Ni 4.505070371591809 2.254857025803662 7.043972053958218 0.6874553926170354 1.027321806197934 -3.216508675920732
Ni 1.423414060933047 4.57072658782728 6.661563603167417 -0.1228856184833432 1.6084613117648494 1.1825009946076601
Ni 9.073190145084423 8.063876483120502 4.848854990495007 0.6887977655775428 -0.5207556051622192 0.10605080631419156
Ni 1.5433648940098892 4.986172439356234 3.9898162330170965 1.8690529015738198 1.4429935969449215 0.6837283214744354
Ni 2.39872701549966 3.323585499072742 1.9390111030421042 -2.09676033906026 0.9762463276783575 -1.0727853378473717
Ni 5.502069405265086 4.7915116155267485 11.016366545009658 -1.4930162087199512 1.434475017950949 -1.7623351510995906
Ni 7.5184169345776635 1.5263131514981867 13.449415681573695 0.828318935735038 -1.6473055383255564 -1.2497877927797767
Ni 7.142755367769163 3.8135357861021437 12.325751632813216 -0.47996556772905086 0.26579935926215514 1.8092521273661033
Ni 1.2629875300147275 1.1880346103276713 2.9475866347822306 -0.17634091008900596 0.4449245169645176 0.5263742369005774
Ni 2.614756242136961 5.454754323577819 0.2213316178018989 2.4890384334736555 -1.5915336827715754 -2.3470703444375642
Ni 4.028415772011258 5.305773482838588 7.295196077139673 -0.8321609351889474 -1.3981353029796502 2.6123261724914233
Ni 5.778223543169677 3.6929122267453875 3.3556502497311866 -0.4029520291874738 0.730063199985233 0.31001539165773706
Ni 0.4768302558869724 4.841003714203181 8.929965785748731 0.17689549704089533 -0.16928348902159232 0.3186686964573609
Ni 3.4469186503902622 9.338300359893765 2.684314270795931 0.8768371950503996 0.272469315083163 -0.7083258083081414
Ni 1.2763766516691222 6.140570735688218 1.622105636389682 -2.816160917125324 -2.044786259985814 3.677216423861435
Ni 1.5872602837742609 9.199382383091576 12.061809345573169 -2.265912958930943 -0.3915820967876353 0.32366100746562965
Ni 4.105975506032981 4.500865832342348 5.117117675399388 -0.06671524193936253 -1.710591699978712 -0.6753596377947659
Ni 7.865805310788677 3.687904153328252 7.021175976489697 1.7187832346505691 -0.8968151808342232 0.8787380116175383
Ni -0.0322908614358597 3.098007296628888 0.7880922965245627 -0.5636367207964615 0.6718395404566494 0.758647696491145
Ni 0.7358373483902072 0.9261740371871359 0.6052630461430605 0.7077300837056715 0.05872168221092468 -0.22391017522753695
Ni 8.667554885137545 5.943219006739078 13.450085604827445 -0.4847560471391587 -0.6552659523686845 -0.3452515891522118
P 2.707246762204546 6.044847392108824 5.571444302881191 0.1063164012707524 1.2245925244610718 -0.22279868733091304
P 3.823953700020252 6.0197789947614835 12.127422582074091 0.5322618060296058 -0.28084519785168405 -0.9090348628288666
P 3.352867779090099 7.420180210869148 8.240414808442756 0.148692295133802 -0.097827904183767 -0.05074509176335131
P 5.050174870153583 3.6448590148343265 8.627788352916143 -0.9258735316527603 -0.8024544092634504 0.7457222466787286
P 1.0942173245413673 3.5678505426253118 12.885867270837622 2.0302512995944326 0.754988759582319 -1.863458695315494
P 6.263240504146378 5.483756300978545 8.808585409327073 0.9882839755691819 1.614413415583226 -0.17732358571724943
P 6.0236378274504325 2.6564278978093956 5.3137929407003925 -0.6536829241522807 0.34225702530026214 -0.2116645250909645
P -0.002485349867459109 7.429803934040136 11.677609761062099 -1.0660912136566478 0.9292185368655933 0.5250498616621989
Ni 4.567671289306005 6.317479060464424 3.841031604109507 -0.2080207576907901 0.9714849017339721 -0.7854673877871504
Ni 4.854299401652031 4.139340860832592 12.979774253461247 -0.4610335067112382 0.09842157190370791 2.6934200517499614
Ni 5.933174829643144 1.4152011942657665 3.116883809174856 -2.2146441334536373 -1.7743792267483185 -0.34098098680131594
Ni 7.177251276455851 2.7571966884881416 1.6042055112916438 -1.1214673764341072 1.4028476208536549 0.5714952976089319
Ni 7.361755802142751 1.4182471493664872 6.480054578110245 -0.5347534621032081 0.02084161933569959 -0.8435997731535085
Ni 2.130991299514544 1.4978437490690593 7.458873184068853 -0.9171227820433236 0.4862516578480787 0.26652698145679904
Ni 0.9922338891905546 6.994082859908226 9.849448065134835 0.51602631800735 0.9955841087750209 -0.8227658671272927
Ni 5.219188004561357 0.15347035431559997 5.910406782436285 -0.6754629961418496 -0.03022743142597375 -0.12932391790951922
Ni 4.464959067151952 7.543915129270505 1.2236031436939996 0.5851833366189857 0.3693561955098994 0.007944708768373413
Ni 6.211122904294172 4.853262281970498 6.085283847583973 -0.1508571639956047 1.213213850310485 -0.4407161353101249
Ni 3.85692663115658 2.4881622370459704 3.557069169647639 -1.1896080379660867 -0.8174403411493213 1.0144107545632208
Ni 2.2196323303137344 8.041433586948935 4.1234897478621235 -0.8989206572130003 -1.6721984449124945 1.0247789851714222
Ni 8.182416459693636 7.410425679810398 8.748580093842877 -2.18343402639942 0.9069710383213024 1.1663179570898947
Ni 3.358772820880453 8.040032073865783 11.369660897353082 0.9651353053668604 -1.0227601549691805 -1.1019951266421086
Ni 6.534984547549313 1.7770999025976977 8.777214874815817 -0.6749919700427021 -0.25615412286290723 0.24003639136543817
Ni 7.405707252430448 5.162445411534743 3.807719506807056 -0.38869140550340153 0.8162974857941296 -0.6818452455191096
Ni 2.2663774633471854 9.031294247318684 9.09224698564709 1.1368312604846873 0.8551332277144047 0.6907466617737975
Ni 5.442719997903807 7.594537781834014 7.9894103556443286 2.325513701312711 0.2959640557709935 2.372496240709837
Ni 0.0650965453442645 3.6726183173013225 3.1202745364940325 0.6853386033843488 0.682443798335057 -2.562515933837516
Ni 7.113267532499611 3.6844751179848028 9.886534904341246 0.3032276793119423 -0.09169479470283563 -1.3645502679353532
Ni 3.2559578211003024 6.047884003788991 9.816805891086133 0.3536868644037586 -0.6151981378135212 0.39983868036947273
Ni 2.6581470871913977 3.550425063291435 8.57772350255973 0.35243268028168334 1.334791805725998 0.2391629876215494
Ni 0.8928488590959087 1.0153775419036983 5.385668137656844 -0.9481662816126897 -0.13443861342826527 0.09232574341861519
Ni 3.1943473059648686 0.06414818815799721 -0.04409253593806873 0.5574835567108721 -0.16721992162434426 1.5396218243936324
P 3.7253152092278996 1.7552736721827185 1.466019124318862 0.3951039938979647 -0.8352902248465486 -0.8014956448946068
P 1.7709332450318218 7.638302363710625 0.36375150862786015 0.9697409224596718 2.3537372149347786 -1.1102367978256105
P 6.4112776594096195 8.592443127301063 0.0464097042355494 1.453488582938974 -1.086811991143767 2.5058997280053683
P 6.974601828052391 9.17465034888419 7.9896420724740755 -0.038943985363365186 -0.3673309375497545 0.20979867552681933
P 3.006413744934521 0.5837339365017098 4.7735741167464925 0.10769914055089194 1.3350430025048556 0.7180453495887504
P 7.853425278554153 0.9310400906118452 2.321748442236419 2.457982592609115 -2.2802525154820668 -0.04556714710683765
P 3.5054458367427577 1.0401282629521915 11.13349286205292 -2.447117367759837 -2.1693703492175027 0.8874206269932006
P 9.085953257561675 6.368185803812922 3.3030552010886525 1.3719972111317016 0.743511612180655 -0.4567045403185812
Ni 7.243206482149062 9.499268809204237 4.518301589438835 0.3898702563028511 -1.658327857577989 -0.8171886301498312
Ni 0.2750329274380689 0.13505353806090578 10.124999552413671 -1.3476614625998147 -0.7925140102212868 0.5317190461522584
Ni 0.5851008789288124 8.728296462161422 7.362354715400284 -1.1907231254071364 -2.0116213431980707 -0.4006395790042132
Ni 7.289998332285284 7.658073041603645 2.3235947021379597 -0.5169953667888387 0.34988497415916514 0.08370740562198487
Ni 5.308660599789884 9.13736075745175 12.165890378838435 -0.43543766052000493 -0.2875406075939887 -2.346603946324107
Ni 5.561876640233529 5.4454015596029075 1.7660634542388907 0.11508926236737599 2.3740419879304016 -0.08671251099689582
Ni 4.952937892444384 2.420880265634042 11.151872304625396 2.6716541208277795 0.8310702732279301 0.24263860487497568
Ni 3.099997445206966 2.535262420060487 12.964690235318292 -1.5682315177105248 -0.44110257211526616 0.2414345572645455
Ni 1.1853717354696796 5.53917212828644 11.69658998557622 0.8324396427716308 -0.7871715149624507 0.8145815315442874
Ni 3.0116927775477325 4.0494478116791175 11.05494365979449 0.10141690708660599 -0.16487533265156767 0.5190990433954028
Ni 6.014210316111087 6.53735777637012 12.855276911942655 -0.22839160803765826 -0.045110004964761016 0.4795516201200838
Ni 1.5277520382635577 1.9834586889612384 10.815247548893002 1.1703910987180037 0.1288814310554619 0.3787867447951799
Ni 0.6380070634758065 8.256061300503083 2.1501948317799155 -0.4228706224882718 1.2405858145655344 1.5784156573323782
Ni 4.632589375317681 7.051871916036927 6.116475922762641 -0.10661027836208736 1.1435742356354757 -3.6828450829021224
Ni 3.982614324453798 1.689309123068954 9.026744001508712 -2.869244684324181 2.9126343641637256 0.531504101927975
Ni 2.656465271491613 8.716654560150694 6.693672267902467 1.7559744989888855 -0.34912032807899873 -1.814028208598508
Ni 8.968609238819498 3.321090805784729 11.233047008059598 2.3466998484720225 -0.3270849455455141 -0.5781212875658818
Ni 4.886926626227848 9.40611490627729 9.678755918053444 2.502585833140787 -5.073623431296069 1.3435029603467508
Ni 5.88464510328381 7.015002778529433 10.40745769616629 -0.10822056027200072 0.5878541985829296 -0.24462658183928193
Ni 7.885884321559991 2.4994864627578517 3.9348694454210307 -1.076323175797301 -1.4459207978940454 2.464435290212994
Ni 2.4120413897896196 2.934058296161576 5.520873973472786 0.29547760305287823 -1.9286127634153234 -0.7091328775904691
Ni 7.194667412369173 9.011990740453381 10.561233580334017 0.48107397030188115 0.8893540965704877 -0.17870735343865352
Ni 8.861505609004897 1.1057751357671075 8.15475526314246 0.11609816324786458 1.5305674275008478 0.6036592839359862
Ni 8.399576240218014 5.482401504998164 10.60723684577545 -1.3740857182296142 2.2854374021171155 0.7169678002538555
P 0.2714273014461423 6.5151017486096405 7.623288421221828 1.0054771995190166 -0.3977134064963538 -2.0415345858177356
P 0.2680010691288594 3.346243293917059 5.257533402516439 -0.48952955726840214 -0.7360962935531904 0.3992830649763188
P 3.8134984124199263 4.78902626565929 2.5339580785510987 -1.7231613091136064 -1.0571514879648567 0.7634253203854464
P 0.6754545587156161 2.768436823415034 8.980836973298986 -0.3055221317730738 -1.3109309399480005 -0.2848985419854513
P 6.9992404280542315 4.625413628331934 0.7021477768973603 2.126820905891066 0.34344101830603435 -2.629748995953561
P 7.180343948659344 6.901396128008999 5.253457802470629 -1.1286818919046755 0.23656823031117968 0.16332829987942193
P 5.3324022314185076 8.286446104145854 3.5547856376641533 0.14648860261426383 1.2898342671787013 -0.35186060982829725
P 7.3675206926247885 1.8651149242197458 11.217963924258699 -0.48325992220960645 -1.3318322088770416 -0.4715729727899814
