# total energy = -381166.2877312635 ev
CRYSTAL
PRIMVEC
9.24430994542946 0.00000000000000 0.00000000000000
0.00000000000000 9.24430994542946 0.00000000000000
0.00000000000000 0.00000000000000 13.52998203430082
PRIMCOORD
 96 1
Ni 0.8938693011467334 8.011396285734312 4.059265220994287 0.09281116769546596 3.683693032724714 -0.23732156353743644
Ni 4.880274569259579 8.75494386365161 7.78803342114946 0.5562211450586808 1.145100442472015 0.7201387417826695
Ni 0.603248535477811 1.2672100006328646 7.881458265826991 0.4979378359367554 0.4958554994864299 -0.4292824395518865
Ni 3.9180713293568044 1.593321520857008 12.837923512823775 0.0519383407405041 0.8450599026388026 -1.1129693662654252
Ni 8.639371501323684 5.659338785799808 7.642857080808501 0.7403789800889443 0.0805115243925065 1.164801263335052
Ni 3.5748393472040645 1.2240113404858162 1.4739830266771865 -1.0117393783786448 -0.9535306312483965 1.032292519939648
Ni 5.957661910474621 4.830004012041592 11.165265475571731 -0.5520235620375654 -0.3513605302634271 0.04976498723826913
Ni 5.703720717613629 0.16758547196143042 13.379176932841677 0.6762623521146934 -1.7276802800298825 -2.1152537698787572
Ni 6.223620706201258 7.020942434787373 0.22261407548322248 3.3499016216933017 0.4715637168186007 -0.6907242931762944
Ni 6.674585875889565 2.0818832988949922 12.686725429016137 -0.8594179711326876 1.27701937480222 -0.48474242029240383
Ni 0.39883465731911427 1.6103125624470516 3.268640994928296 -0.3044425255556499 -0.8472592242829665 -0.5433962253798706
Ni 9.046638818130521 8.405850989024392 12.944972621426988 1.5597152527093976 -1.5927436439192764 1.9316844603621117
Ni 0.8836589608658827 8.311559028078557 10.765711610942658 0.20044680199827414 -0.1618810259099341 -0.20882654142153714
Ni 7.900288925086468 1.9047438326553734 6.8674397445225 -1.0394831241508162 -0.6924456467427752 -0.5607468008431762
Ni 7.597907548367027 3.1073268628007535 2.5458422705740307 -1.4370188674187252 -0.11858107757071837 -0.5503407750185038
Ni 5.129584362862349 0.3591349684679483 3.120027620167762 -0.14229513335820654 1.0169823719451387 1.3645186433664696
Ni 6.018406270805512 1.5102244191960157 1.52150062840795 1.7785166459554596 -0.006146993438002317 0.24524621770115182
Ni 2.6821625620339993 2.776121727823556 5.1364279254788405 2.475808565046943 -0.9989329706425957 -0.9376476414695529
Ni 2.495843496067006 0.8932915317781926 4.0278484338105205 0.08399099830067469 -1.021001520406861 -0.5851195732605858
Ni 4.791436751152767 5.7374716930463 13.123608741438874 -2.053517212100908 -1.0011762581508177 -1.4988369291667862
Ni 3.4578433611520545 5.874222769347451 1.7668261244452637 1.3792142977054311 0.16195275968813397 0.7786534501891106
Ni 2.5275329903927246 3.0639340721458757 7.3625021212798085 -1.3597266212944648 0.6144828569140515 0.34569844688164336
Ni 4.588903165627048 2.8728356979623144 3.712302235367259 -0.11973730266234862 -0.779180012116542 -0.5093825874385872
Ni 5.891694515052122 7.428440859341627 3.2405521593073234 0.3281871774707574 -1.9112896987558436 0.6919489096120148
P 0.36454751191243717 3.6648974142172346 7.62199359780275 -0.21311231328108457 -0.5390232931231556 -0.9690829771606989
Ni 1.5185812753425878 8.714610939572523 1.9404971256116592 1.1833201480748459 1.2593605240698762 -0.508074410150125
P 1.144778360361624 4.938485988678788 1.5773926504740892 0.9267441071831716 0.4553462265184739 0.3856104525852327
Ni -0.07875135157857681 3.6988147872280455 0.3841463733243261 -0.9092341233238663 -0.7967997820808342 0.8621268854234185
P 3.0820344309235175 6.3334523520833645 5.319488372207263 -1.9254639333736967 1.1634005263327833 0.9587196316485037
P 6.9941709133266725 0.21654241274310237 8.057090909553455 0.274572734579411 1.9233299177498298 -0.7156223419695547
P 5.105780264878474 4.088924664866701 8.630071725567653 -0.34089562617636127 -0.2330514754071728 0.8376327569367961
Ni 6.343889177956682 5.020963721576704 4.615076580237436 -0.1401084101195329 1.9188495133809726 -1.0440635444326472
Ni 0.44310843070714295 7.986140831096662 8.096679666685862 -1.878472395115507 -1.3477812760071304 -0.49552794094368213
Ni 5.763614601434027 7.355364589608605 11.167795643190445 1.387259793717727 -3.056286011549827 0.6929896921717033
Ni 2.26341381233552 8.991681395794934 13.07396772172485 -1.175856235597633 0.8695692006340767 0.16581198553322413
Ni 7.9236215632656135 8.896788554705816 3.201897077474479 0.548943380450345 0.6283727275222663 0.47241372352372185
Ni 8.59367687750454 9.059599340605626 5.4654763629571494 -0.002235059978105828 0.4416952113939425 1.2868772414329062
Ni 3.8783207968012072 8.424256410028624 5.61376526244031 0.5964272849639212 2.946224284304029 -0.7669796133956082
Ni 2.442901333288888 3.0443546237847694 2.5174964431379308 -0.41632587939121846 0.7512226076716675 -0.24485283891747509
Ni 1.8463382827283348 6.6914382528311585 0.43205963151866617 -0.3605072297597017 0.23332375523195303 -1.5828850059576418
Ni 1.8293010195888078 2.6403597926813447 11.997265383873152 -0.9198892890448672 -0.5148430963325262 -0.04372289480924728
Ni 4.841208115636334 3.2936736616974365 1.451510109318429 -0.5037122765266874 1.6522947640100318 -0.9705757596561414
Ni 8.335880807416643 6.242691717518048 3.6861214253089547 -0.5725931586588009 -0.30164207999237724 -0.6062959502278849
Ni 4.914145720720907 2.5988066196959005 10.720873934650934 0.8811108827250891 -0.7682232559947221 -0.8105364149406363
Ni 3.1660282306444847 4.265527961132314 0.10672740661881053 -2.4502065482081226 -1.4855826352600414 -0.5607946233619762
Ni 7.12276850829898 5.7440259087630245 9.426216653503923 1.3289823981330724 -0.12759305126134154 0.32579836552360664
Ni 4.074226212131027 7.988997322854726 12.299971235869965 -1.5721321383165119 -0.6396069056751887 1.414700663537499
Ni 1.2280973254601357 6.107715548717052 9.589834467657711 0.0034640472892004857 0.6992963511160215 0.6180605469629807
Ni 7.086447614715039 8.047181009344245 9.612957260002204 0.9563416183346304 1.6085541285889717 -0.9977273803702688
Ni 5.146205632056527 6.441139318069447 8.549974402468123 -0.051526450014066104 -0.2903096856986936 0.21855790977668813
Ni 7.781102037588951 0.20236533908559898 11.628031931274103 -1.3000600586717674 1.4042684124605815 -1.4680518254651298
Ni 3.612842705189195 5.009251180937648 3.923559676142446 1.168058593930085 -1.2132986967148072 -0.6462385520590935
Ni 5.131636599659405 6.5592446213090545 5.940257648232197 0.12143705896227472 -0.023921543812603963 0.563853464792958
Ni 8.205277197196764 3.72703766534252 10.790201636720866 -0.31436826930979406 1.7013064180220443 -1.4695173542670628
Ni 0.41983218281836643 1.5637212405679326 10.039625609989143 -0.5855378917449271 0.04913918072881215 2.5449802389465974
Ni 7.489813832745491 3.520898798957108 8.506028802081426 0.6471155553474081 0.6905767118548365 0.16627272721972655
P 2.0238290327440263 9.113207093696303 8.644197031089735 2.2823405083593467 0.1687659259552255 1.2181339133199216
Ni 7.489444060349625 5.330675836044191 1.50698336414625 0.07675797088734522 0.158211804588463 0.1940550395393174
P 8.1237608725281 7.072414752291922 11.255835677353176 0.4238651251910571 -0.3153792270728117 0.598976019527704
Ni 8.317558585201482 1.276962747573831 0.8544885409870018 -0.6008521535044942 -0.5108352607247139 0.06431357447640537
P 4.572328117982354 1.4969958117339086 5.492333856499888 -1.3294999611994394 0.09928314857305481 0.1517637349702741
P 5.084333465918245 3.6005292844068566 12.742902175827092 -0.6616006363374606 -0.09505831185842983 -0.4938950333259495
P 2.4059333380121823 6.4220220852031735 11.609225307220356 -0.05848385516850573 0.28878527863436715 0.2411069987217977
Ni 3.490087514071572 8.156938700747178 3.478139243530151 -1.7329428139804024 -2.5596154723612687 -1.4164960648750249
Ni 6.37431220182656 4.8001633796952055 6.949147426406025 1.2495551079436802 1.0278545387729523 1.432609939717752
Ni 6.971309734952255 7.494241857185987 7.253193703337853 0.9137209554506264 -0.4223543449734855 0.25383473070111123
Ni 3.106920113165301 5.194932389521773 8.275207628271957 0.01743645030889255 -1.1069730394726742 0.8786264257403386
Ni 0.1810137565173051 6.659166366981951 5.676841962158127 0.1520568407306607 0.1894270538490028 1.445922340555942
Ni 3.2294534408454045 7.26791341798629 7.351041950300931 -2.609265274177913 -0.6325996211194203 1.2530770050540097
Ni 3.333294773914481 4.151952369742065 10.687832922218325 -0.9560243442045279 1.7236261645651672 0.3893105271446392
Ni 1.2671822677031745 1.64194659091339 0.6474529765416149 1.2757749608721576 -0.06937556238034503 0.34613836263253933
Ni 0.2717309428261065 3.9221203370915374 3.3757030455653654 0.5551878186981599 1.024322357249978 -0.4680816718072713
Ni 1.2126685722426258 3.8343548589327368 9.580214838779256 -0.07748147931693107 -0.9392959757062532 -0.020299630789300523
Ni 4.373741852782506 4.187524474224376 6.223859209396592 -1.4282370074610369 -0.26229828808743216 -0.1313445478839738
Ni 6.99368096490215 1.675281572400712 9.712362248751878 0.013175361039693438 -1.2953526258937693 0.5451582023762999
Ni 4.551999880519619 8.138533279742948 1.319185208595793 -2.0741199759529247 -0.4847246796805911 0.2212902211061866
Ni 6.257186795435997 2.999436521996944 5.296568954680498 1.3418913928852567 -2.389058773054208 0.8473669535054245
Ni 0.9834743969749675 4.824401960244223 12.149612535400943 0.5675797646046096 1.0142480037331112 -0.8844605159236123
Ni 8.430154279742688 4.404959887303495 5.714604043654955 -2.068753569434689 -1.0388195224248884 -0.36387331801845724
Ni 2.7761402164433493 0.9075231468640862 10.655821725908204 -0.5873242942213884 -1.0202669562336815 1.3164690961574101
Ni 5.646424484874188 1.962400593480783 7.476491857753428 -1.4641512048591427 0.4580142602689402 0.39169162578230604
Ni 1.6837863375056306 9.075739905685179 6.23327638788831 -0.07752647362225358 -0.0542531049166098 -0.2037630108557007
Ni 9.072735504968767 7.271740562283504 1.6113664137752697 -1.1986405804820002 -0.5226538506261966 0.16083021604791659
Ni 7.838740309794567 5.324685523231159 12.701216809210127 0.011822446556224801 1.1383628666378651 -0.8475788124059145
Ni 3.4867872954384675 7.4463655762312335 10.000618319949236 -0.6605446842691205 0.5593530058194431 -0.7057958427974361
Ni 1.2843119739416682 4.315299325615881 5.403143830186013 2.011059042936698 3.0962080445557447 1.065460007830552
Ni 3.479419580450837 1.5937744920419437 8.719072243528647 0.9716517663291394 -0.3726420653500227 -0.6269925593452879
Ni 6.199557767540276 0.09581912094076282 5.222167050908294 0.5224414775050744 -0.1385338665435614 0.6362323327760011
P 6.891272499867055 8.446664617218106 1.50562999717738 0.30500765403050056 1.0334407746114782 -0.4690779742822696
Ni 5.101740501453638 0.19445960526198341 10.852128344287538 0.42507122968401634 1.4496764082817357 -0.6649577257351514
P 7.612485825074045 1.7616788926948084 4.172281531635789 1.0704692881196853 -1.4272047095417808 1.0995145263121
Ni 0.5684344644070248 2.1167620801350546 5.723493372051574 0.11412124202715185 -0.43635914389300984 -1.36426358993287
P 8.668019617693403 2.400238843115846 12.151547369462312 2.573470118856174 -2.740814738983841 1.1940203081011695
P 5.728763553123655 4.808658900490228 2.6582623232271985 -0.7115903379920261 0.25504417762818016 -0.8467565736149352
P 7.10134944226844 7.120780981671198 5.20352312670873 1.1596600854537447 0.4820468757381117 -1.2424858598017245
Ni 1.5012019727368846 6.100190680461179 3.4966888757687697 0.9794524933204808 -2.019380932538832 -0.6697921710093175
