# total energy = -340866.9838146541 ev
CRYSTAL
PRIMVEC
9.23906459370584 0.00000000000000 0.00000000000000
0.00000000000000 9.23906459370584 0.00000000000000
0.00000000000000 0.00000000000000 13.52230493184846
PRIMCOORD
 96 1
Ni 6.197204271978874 1.0106520476108436 3.5380573241656244 0.6859404986344056 0.9406632883674251 0.6508133159139694
Ni 3.665839132297032 5.643895165694712 8.547313744904017 -1.2977841181533973 -0.6015772045959769 -2.1443887395715007
Ni 0.5665717836497597 7.38513549290291 5.183531974120162 1.1503609195400057 0.07597738396757882 0.5235305968041951
Ni 5.782093095360062 2.104760566585981 7.69117581520488 0.2680079368776997 -0.33044486315668253 -1.249564621025377
Ni 0.8625710904442881 3.22687269064306 8.585973687201896 0.8344008802630598 0.44360117016740375 -1.5445732548616367
Ni 3.267589248741415 7.883703140886015 5.062102022964616 0.09378073069758688 -0.6036484853027088 0.057570599325616985
Ni 0.35211369010883997 6.997187166479053 3.0245205435682787 -0.6069443824451612 2.3761484927504433 -0.5552711224405856
Ni 2.5532802011316487 6.097219113880303 3.454340311177012 0.003911419239264231 -0.2867857317058351 -1.256626670078481
Ni 8.394715809009462 0.5957395108829132 10.809149498134373 -0.611546914214179 1.543754358504767 -0.6277512918881835
Ni 8.42890034837046 3.6181101240973264 10.251759496975682 1.1220039656638676 -1.9660799071228463 2.641655260472844
Ni 5.95704402437083 2.9153591464174538 9.988710390499277 0.16281665035032605 -1.6124573202981198 0.24989965731276315
Ni 3.5533073243465063 2.754479312932847 8.262655390019114 0.15413377786434745 0.613356456619092 0.10530518639741863
Ni 0.642156571896332 8.584181308651617 11.843524692155277 1.411031442216028 1.2809310511518004 -1.394067817778496
Ni 1.1547260224204083 2.773188418934474 3.5293347231897547 0.11623211772256756 0.5674861764495388 -0.3287271091346274
Ni 0.79196708197326 0.7065408420165973 2.170897487278349 -0.24344181750256141 -1.2339053172215653 -0.15187660639905454
Ni 7.365363894461685 2.8216842695036295 4.773657499368868 0.7933966699365561 0.5977575737395705 0.7445770773306919
Ni 0.04276578264707669 5.087019780439375 4.482481908250117 1.506015963413729 -0.7024973745518224 -1.5023423712168837
Ni 4.566463158488925 5.246772448031538 2.0147831633619595 0.014885401752264684 1.149933087973968 0.11472956503511209
Ni 6.304192641114103 6.57651407291556 7.041470003548582 -0.7162319505290955 -3.4623830141241854 0.41100909516399536
Ni 8.651238440187324 1.4442598317433624 8.212596289704047 -0.12887834573166837 -1.6323615154212145 0.16365637264280203
Ni 0.8609958299142747 8.60065456099774 9.075143358580135 -0.038330263038766244 -0.37216204038981066 -0.17905882324080127
Ni 6.670299818605691 8.589133447326615 7.767671575230099 0.4446614931111181 1.5604922400847383 1.0935513667501295
Ni 2.0730428574977906 8.032720015305888 1.227187082894561 0.6466039058183122 0.22523120803180566 -0.7150459006407943
Ni 0.8026428212250526 0.8844233262541884 5.03699116903779 -1.2403557008325994 -0.5292091352462112 1.0948232914840175
P 2.239503086056463 8.399132081932317 3.387756219753543 -1.888650106979457 0.8763769675845294 -0.9888056524006067
P 5.579046170620431 4.51715427022686 8.44451713941962 -0.09671410229429794 -0.5418869878241958 -0.8792851423702599
P 6.88223472357918 0.828770896174485 9.412444056268033 -1.6753367334311597 -0.2558751581699077 -0.6753547526987594
P 5.992337251494887 7.88167054665374 3.3493263301664977 0.5625589143512505 0.3086161973173653 -0.0906342146488052
P 6.522899780506947 4.7942800156682415 5.169834136807563 -1.602976634501194 0.5898455179813455 -0.7824489126758009
P 2.1715312871162316 1.301932040160616 7.621157563435334 -0.8777975020811398 -0.559622714541062 -0.04623871925256552
P 1.5127674964357392 5.32385396475824 7.581726159235659 -0.9043531410824812 -0.30163539512415793 1.3991956259233644
P 8.979483930570435 8.80702754902655 6.629486250328067 -0.0548449728643378 0.13577404441023713 0.5585773039956832
Ni 3.9150813804974702 0.24285066324640087 6.564551331952149 0.001674045268313246 1.4298148934711181 1.6510310668062598
Ni 1.579852345165523 1.356655020332288 10.133804358050858 -1.7412603327071625 0.539142078089207 -0.667635786787947
Ni 2.939399192746458 1.402674801563944 1.1016706934256715 1.4396673607851658 -1.477705803615126 0.39711022569471605
Ni 7.97515140320903 7.652745001711365 9.766065561734633 -0.24417175369005045 0.2590383863892378 0.016234459580991397
Ni 4.6720564288556385 0.40935801103500286 9.141970437405007 -0.13259616090288776 0.5960899562291605 -0.00042860289698635866
Ni 4.879528865582814 4.94418384029856 10.507155886167569 -0.9683360716923453 0.2487462604346103 0.07109151663018724
Ni 0.8790554296680425 6.728201037031466 12.871259770381927 1.3280388032728805 -1.9361167851018526 1.2052776261825435
Ni 2.475487276423649 5.547189875561858 0.8735683491473679 -1.620653740065983 -0.027824735521752075 0.282758612824313
Ni 4.263227816227496 -0.07002379520836048 2.983980451605544 -0.5591663437299338 -0.5265727260646286 -1.0726040750745012
Ni 6.637556573336671 4.2619805424940544 12.10989986192086 0.7604837212586193 0.09020921129624464 0.9765818566409052
Ni 4.587962462027585 7.324462555069486 9.70192889854812 0.4805834038187078 0.26632900651338 0.8880703447620576
Ni 3.0290735546485763 8.810436763897957 10.980801157143567 0.05852859236351211 0.6178584582545036 -1.393370534601155
Ni 6.0390776797725305 3.819346192157294 3.16170402393043 -0.7373893013330011 -0.17371941330575888 -0.3907022652858433
Ni 5.725744039802569 0.5005115471943364 13.355534585286259 -0.2017786334358202 0.7803485785033464 0.7114404426777232
Ni 5.636309893582447 8.150231679125488 5.56058836717843 0.12336024412691657 1.118327802363861 -1.2364409391592255
Ni 0.4617730728465729 5.596018332459931 9.543475243451674 0.4236206132804188 0.9949467323013381 -0.2648485653131116
Ni 2.5349683749117844 4.12333913772348 10.002813822751863 0.09979479810215071 0.0981732033383277 1.1153838892441887
Ni 7.276031377953176 0.8080901737675509 5.987893261377956 -0.06210705374338981 0.8772377729229279 0.9015390686724538
Ni 8.298934425345825 8.916852311022271 4.248045261218867 -1.0944011163449345 -0.31331128880018944 -1.7483267526356407
Ni 9.185385726299943 2.211905999820977 12.400359425525968 -0.838128465626292 1.0707410537238333 -0.16746083399055678
Ni 5.311141011741826 7.500402064002316 0.8031075461790682 -0.2905773375377834 -0.15558285160604818 0.12148770969455207
Ni 7.563523353979162 2.106007840319423 1.0169438506662054 1.1761007475082712 -0.5746934928312555 -0.12094957780289492
Ni 1.7094394665377788 2.9529621397145505 5.844502977355612 0.6723308782707711 0.6211625829270722 1.2824927392119656
Ni 8.176322797816152 6.08399801230582 12.116742313231875 0.40115148564362524 -3.613231693479358 -1.892253508059999
P 2.295390188379347 6.705657719182592 10.354664199516975 0.5729806239052068 0.7709308847338723 -0.7529838133371483
P 6.2118204723218735 6.360874303000513 11.29374768030293 -0.7993672856976942 2.6707889446140065 0.6251987006696587
P 6.773869733804819 2.0854416823146713 12.074377505992437 0.6271493966381264 -0.9867284581566039 0.6390101526314543
P 2.80570068758619 3.5459807460456223 13.394383928410328 0.06246520841375695 -0.8220302745128489 -0.52030129123362
P 8.89308019756934 2.749795107133921 6.452492564113863 -0.44280515662866965 0.03044546097405079 -0.01914623391114767
P 3.5090891607298214 2.0031770502956663 10.391770131133635 1.3707831362189422 0.040634485691910666 0.4220967204367247
P 6.335328289126686 5.041360322730713 0.7433899276348137 0.34542668127749543 0.35168628903396204 -0.730175300083065
P 0.8598437185471621 4.5039239295876845 11.384347796487202 -1.1989210878368965 -0.7651754703073338 1.8462983814861234
Ni 7.616241457112635 3.6195606572539956 8.192298988481838 -0.48572021082464095 0.11984194656101299 -1.2284666627044973
Ni 8.213001884644033 4.999359534640148 6.381770295614774 -0.15791432795270222 -1.7547005173724681 1.1793210542177819
Ni 7.292864953822295 5.423774449403966 9.757073180069753 -1.0203088652152106 0.7055811556834687 -1.4321206587861592
Ni 2.0895807832967597 1.1678270161538933 12.485739470159169 -0.33633706027140137 1.619391585524108 -0.19533776290648291
Ni 3.0427750875870516 6.961986330001918 12.338562093519508 1.256478574536391 -0.2896897927265075 0.9188179103575594
Ni 8.293705114730061 3.9190634173797916 2.520841844997469 -0.7006806330580578 -0.9830229842805586 -0.06634140353971155
Ni 5.523537869949925 3.028879534290041 0.5638462595655721 -0.05848874026451218 0.5572986943935757 0.7980030583603159
Ni 5.632189270729743 8.707338040998128 11.2780218682904 -0.37325115968893136 0.03070334262112777 -0.6529504168616304
Ni 7.569307008476455 6.655471119774771 4.789871133997142 -1.1719473874615298 0.9687366495648735 -0.07174097728872807
Ni 8.905626847421296 6.809532523516563 7.458890022433965 0.14422114673632583 0.927624452905596 1.2041316855035586
Ni 9.036257983103766 4.503157087218235 0.14929312245416687 -0.7052525686994564 0.15892605704666823 -1.2231881879143773
Ni 3.0738183449527137 3.477380690706324 2.0648561222740667 -0.03277153800406614 1.0500133342581788 2.1001423681586155
Ni 1.956565968923712 7.682975221384116 6.992018833690258 0.9908705053494353 -0.14071133381085443 1.6564450387329794
Ni 2.2966744183715577 5.5345970303864425 5.733335779260118 -1.48356843304349 1.656776196820153 -1.0149440013588715
Ni 2.92590091923121 1.15127061222554 4.60522380659195 1.68712164188123 0.6668847675545353 -0.9189348955513981
Ni 6.8442806458237815 6.09626749021701 2.493242910949045 0.20208793714612294 0.23644481735943795 0.9670924290932312
Ni 4.289124914559625 5.112787531865814 13.020505773606164 1.4991835138729277 1.171485360223447 0.3117737691097404
Ni 3.960269645906832 4.261139787607068 6.2079280543670645 2.973054517122996 -2.0115570656190385 1.8250425574311406
Ni 4.56686967733538 3.074178668475708 12.066966852202855 -1.5962984511500702 -2.4372299334427963 -2.0404999739056344
Ni 7.369521473573157 8.985230628808958 1.8345576523184361 0.594507442233389 -0.8378137625993507 -0.7227265571145037
Ni 4.682228639081708 6.004246405883083 4.701191819362369 1.1708580110520932 -0.45760365509408285 -0.796167547813474
Ni 7.5974307213993955 8.062044806638808 12.178146984988917 -0.9529804151718814 2.6391054974677965 1.6377955419525925
Ni 1.0913275605027968 2.8785599517485747 1.0306185903170735 -0.7013930857440501 -0.6303802448705983 -0.2452678149677066
Ni 8.459657194730665 6.707080535145185 0.9558967307127489 -1.1514639227961976 -0.052972695542289415 -0.1371740100815573
P 0.5970856426085611 5.203570581530991 2.1271394290833343 1.7796569302074898 -0.749907745514986 -0.8361464021992567
P 3.530939548726783 8.974032882402058 13.11163251647789 1.7825951869002075 -0.6399095245172721 1.0213509333264796
P 9.079718543415693 8.616795207014947 0.2841252608521627 0.3209068417592602 1.0478417805281566 1.336917336709433
P 3.1336690060285353 4.066121610084925 4.299727665200349 -0.7708347254756401 -0.28620389106043614 -1.3088172360391073
P 4.271081021215833 7.615456136613801 7.568407123575438 0.6949884677692869 0.030719026350411613 -0.15800251679113433
P 5.264188084976262 1.77762376396593 5.406947340880133 -0.30870310060421674 -0.32819771899371863 1.161948110156973
P 4.717789799081837 2.2226695101873446 2.3354239795969516 0.5004230642524542 -2.1045284130414528 0.5781413421705397
P 8.439617663413367 1.7286012867093217 3.1676271883045746 -0.5880742850135355 -0.276318256515608 -0.5204031069188069
