# total energy = -340857.28448381706 ev
CRYSTAL
PRIMVEC
9.44129787721858 0.00000000000000 0.00000000000000

0.00000000000000 9.44129787721858 0.00000000000000

0.00000000000000 0.00000000000000 13.81829378432650

PRIMCOORD
 96 1
Ni 2.299012637734211 3.222352670198012 10.062412351781195 0.8537368615875103 0.022506151522316078 0.70914676154754
Ni 8.06877848815322 8.303366412104916 2.385742286665876 -1.3659445771797185 -0.11517976519865325 -0.1932726528473381
Ni 7.957361733995616 4.718921092516817 0.9905129773397031 2.8452732611102483 -2.7939553275625624 -2.08004096942305
Ni 7.623234208392905 7.544125574964673 10.939031178446816 0.9654196693764986 0.3910030843557137 -1.0221045236630526
Ni 5.4076826423266215 0.7816488131014038 6.522055060062748 -1.173446597714876 0.5425955838554462 -1.0904999815183154
Ni 0.9322375114162735 0.08581478718453575 4.453746196406457 0.7370067211826017 -2.3165235819989585 3.0923539609169777
Ni 3.0915340492669254 3.278179063498064 7.124574131902206 1.1431376623186893 3.044475134957828 1.2321397406807102
Ni 2.224143146973276 3.4080913198499516 12.83054796615168 0.16377438627790505 -1.2170702479420974 -2.858341664258432
Ni 7.957475029568015 8.36840751196016 4.858180233591697 1.9791603944558882 1.71280336291805 0.47426157536573815
Ni 0.12549372902829142 3.5919511512595923 11.625675989312283 1.7919961684991332 -1.5655755681449166 -0.03864830849981731
Ni 9.428230943975043 1.1932006446226677 2.873444793045964 -1.6354735786876349 1.261869149424343 -1.4369767013268802
Ni 4.53064273378358 2.1856604175481094 8.469688088907054 2.1493933918749435 0.6959099511422918 1.5154439415958483
Ni 1.9376941747555236 1.7240942555909085 6.2998569510827505 -3.1307305038126474 -2.4484692538020414 -1.7080344807744972
Ni 7.492292850591718 6.159908595275771 8.895166778665574 -0.12373536807814817 1.2095027200074848 -1.3892667968454266
Ni 0.2829556920687552 8.97133822437934 12.421719949016863 0.31924025269011475 -0.5484309595903006 -0.26600479040474184
Ni 6.213431311937025 6.8231691999978965 3.834549072179963 0.6454322541077142 -1.8033455320736815 -0.18175899578078375
Ni 8.212578893421796 3.5411947348244364 3.8675190278781044 0.30923146230386095 -1.2475439910509223 -1.0186613023094586
Ni 1.4078391065342821 8.394814821627039 8.478973605194994 -0.45552594662944773 -2.0307452085117155 0.5817293166321142
Ni 8.816274350954673 2.585556022928963 13.722740213373438 1.4921865137298045 -0.8504173102959741 1.056720056854393
Ni 6.538070333351244 8.191534240848513 7.69866923288607 -0.002367471790912052 -0.21045970614958592 0.4704342311998479
Ni 8.369455496004859 3.335789862063414 6.2433120750277284 -0.5315526957777232 -0.15470302010425613 -1.3169509208898351
Ni 5.269386513617141 3.5284395416317476 11.287280053019405 0.04080417850055553 -0.6434427344815112 0.2893514355504823
Ni 7.255967727863222 0.478494408733286 9.253379054700964 0.04895766084562536 0.3509458113235117 0.8201502838813165
Ni 0.08876236032647321 0.5336240342630784 7.6975353330323015 -1.6867043518381533 -1.3815504020377756 -1.6368066956767617
P 5.903180828217593 7.0321428832895165 12.130112251735836 1.576279327715666 -0.1835068317098259 1.1665853518186684
P 1.3156825996846617 1.4421015758875524 12.805081009735723 -0.3026430104530659 -0.2385677772397117 -0.21714791680303894
P 2.522931895284917 8.50787436158444 0.648311253943959 0.5587768216009988 0.9351757828902926 -0.07278741627537141
P 4.535910977900176 1.6372154341555838 1.8849258177804993 -1.3415599776877671 1.0023340259043447 1.738074478780013
P 7.0507422397585 6.384715334810276 1.3956749385776126 -2.2446496786767924 3.4504708360676317 1.0296532825445879
P 8.598765734542262 7.777372834642971 7.671999455143133 -0.583176333491286 1.430692153869749 2.4558231230639516
P 3.7690415722183395 4.804157128152344 10.137528260412099 0.1856354480170545 1.1621926220676113 -0.2793670706442608
P 3.8936855844536313 2.103143475650181 5.527676815444668 0.8904822966376599 0.21229110293136985 -0.4299203302462015
Ni 7.7372284368226065 3.856080895714564 8.637870645485856 -1.713369262723849 -0.6927858036910133 -1.2927838367253284
Ni 1.4240214907920679 4.037873082927907 5.51380282847453 -0.8765050085219614 -0.208692329836518 0.8783250924498358
Ni 4.0465779594072995 5.7620995166866145 3.1587655301885675 0.8439201326074047 -0.7316259164866626 0.0632257407288653
Ni 0.7460702268487545 2.3242586677839894 8.6223387666396 0.15136778508343607 2.081192309418674 -0.0358594329007705
Ni 5.832135063025154 3.2981568494312468 6.806725291793821 -0.26455083156703474 0.3226703614175862 -1.283091806248545
Ni 6.980149656855661 2.6299490047143244 1.9866558004979114 1.2491637860425324 -1.896811816854643 0.2961682013619996
Ni 1.6303799346207897 5.624738076449434 11.486704807817253 0.938739588982151 -0.329782032761703 -0.9637111713258241
Ni 2.9771999341200246 7.387673830778109 4.330970616985993 -0.7980917614193802 0.9246856819922461 1.1879039107907865
Ni 5.896411417766699 5.633367422547226 10.453773968171026 -0.9706685764802638 0.43118145634681226 -0.11885875671213723
Ni 2.063253992867715 1.7634833495952744 1.8001920591826128 -0.31358356862496956 1.3352299217046812 -2.6946948046973267
Ni 7.681402043522555 1.022766338542415 12.021252200995391 -1.0016328860722619 0.06811057962499237 0.22170211183262462
Ni 1.465393257313432 4.494510887485712 0.6692378902959911 -0.11479435683477648 0.15472770269460448 3.9847332174670336
Ni 2.8025642505632757 9.23632712692501 11.866348829631624 -0.7121788635056445 -1.056955827014283 0.4037614124626466
Ni 3.720664362803581 7.852874892349806 7.504010445167178 0.009452403662151464 -0.8010025073082722 0.48077340834232685
Ni 3.5458870597813323 1.449588524963646 13.703753763698755 0.5476133487850118 -0.5309677698085308 -0.7446644948381757
Ni 5.818549035634867 4.407178883760787 1.7059509138008342 -1.5028997863822504 1.5885195785355997 0.33079684717946256
Ni 1.8818205749669719 4.5533490547520605 3.1871205795709527 -1.4201840552495735 -0.05194965359441375 0.5941243478623575
Ni 2.965738198712234 0.7172346154134395 8.087018131179834 0.0055381562094098166 -0.7085374100983153 -1.0553136634251694
Ni 5.448761728619286 8.074584886238714 1.9579004400930462 -0.07583314508023067 -1.1822539115938606 0.8744748654658101
Ni 3.9108593049699167 6.584143866127204 11.946053208944724 -0.8129506808090838 -0.6253542524109166 -1.055214418843144
Ni 4.818224661725331 8.38088890751955 13.556823568242631 -0.8467961686036191 1.2435083875289683 -1.3339477125581478
Ni 7.805347399728047 7.859125031427201 13.21220959328454 -1.2399183561848646 -0.1715000370569369 1.9936056233469408
Ni 4.8529025481774015 6.031705213807582 0.2768481165866305 0.1302348597595628 -0.19568126228883073 0.4741479326060092
Ni 4.894661407904465 5.205572782462896 7.990414773113517 -0.6728641250664218 -0.035802097300273825 2.8064712006413863
P 6.169312127784963 8.95912118515555 3.9957394036821534 -2.474767782487254 -1.1713709461327697 -1.1319585057734183
P 3.0430813094705673 5.333898900801185 5.207341137522105 0.0854326158432077 0.6004104379813854 -0.12199550256890603
P 0.27089821077609566 5.340894902396879 13.116669325339242 -1.5343634042081704 1.1428617829494832 -1.0642950409881735
P 2.0825331227710984 0.643796425383823 9.920000761404287 -0.4609648582568319 0.1425627851972964 1.370396442303485
P 5.502558242913839 1.2685422002686026 12.477117707401336 0.10002028384939549 -0.22388086465149828 -0.10063554883589121
P 8.347740511294878 0.5582356091074171 0.9961418790284383 0.03923323446900985 -0.12498209600105571 -1.0000958806024454
P 0.22117561643908865 7.496352608602715 3.689567560569118 1.9947546493497195 1.7305851123815033 1.101114009588736
P 5.070165690849614 9.320515178515835 8.46102381000777 -1.2597461895440691 1.628217154235538 2.3852543117064533
Ni 2.3499862040164667 9.168387548675868 2.6908642574746717 0.5419965168188665 -1.0093742205805778 -0.5067045263857919
Ni 6.61098547548828 3.0566012477769555 13.41869643876198 -1.6005117179004693 -0.15734894236753547 -0.7730684999021653
Ni 4.162583184247099 1.36393707222932 10.770336903532671 -0.039880638245021645 0.3120200807925917 -0.5326765249695214
Ni 6.853343587447071 1.389324721744598 4.111218748240064 0.8430508426285739 1.4419561568193424 0.719462027430619
Ni 2.1146807414395705 6.650780545293746 2.016020124604426 0.15177684759639667 0.24320039091571666 1.6846281860354146
Ni 0.13240947959353547 1.2453071666289226 10.696644742594925 0.37473288644078045 0.2371300163519206 -0.23781084446902914
Ni 2.1957153995986003 2.151945543461438 3.913727571211174 0.8626436771588368 0.29492841541762754 1.6052525750195645
Ni 7.456330947652449 1.4826802734021172 7.055137163837846 0.49792292353841994 -0.7607747701364769 0.3250301198990144
Ni 2.1643325260438275 5.831370317911455 7.560568539038979 0.29841765951780863 -0.8219770526774103 -0.0794000364958826
Ni 2.9168511592216766 7.187688262896882 9.866662150048183 -0.03300293728858187 -0.5584605759121608 0.09155852623528747
Ni 5.21328632268379 8.516645327147732 10.650532500498397 -0.13533361443870887 0.6878050626469703 -0.3261932869691801
Ni 3.613222394977674 3.669256496827126 1.9924593661940961 -0.27399500769907004 -0.4574535026694638 -0.07520605301919304
Ni 0.4374058811429216 6.950900516581086 6.434183958239154 1.9603700012222625 -0.008058865748734509 -1.9928939419918967
Ni 2.2441020503110587 6.656133761089642 13.5716785060438 -0.45309111193570994 -0.4890952979444609 -1.0552781822015438
Ni 8.884940909126714 5.297219459236717 5.062110375651981 0.16550139627134078 1.399444508709377 0.7479089699174022
Ni 9.322280701185734 5.173274103031225 9.887030805706145 0.9103692653695741 0.13367293890683432 -0.9199656508087576
Ni 5.191665750950809 8.017370622176763 5.737162217071627 0.1489848866735563 -0.40186136722645627 -1.1037797293463572
Ni 6.083471849096637 0.6171700776103061 1.0384181218694617 1.1660829582609529 0.1783556265261896 -2.010947714169814
Ni 0.372220329432868 7.824484910165931 0.9329286144079129 -0.044364127937671985 0.415925044408374 -0.7661607170387387
Ni 7.321688601152865 6.775207407681938 6.210825513771827 -0.14690692109860506 -2.810080772369515 -0.3773261010892534
Ni 5.029709730205148 3.119980679237001 3.8942303473309208 0.15762970683274788 -0.3049893991980554 -0.172797929932754
Ni 7.868632418211093 5.018455703346758 11.878854772565033 -1.786651359247452 0.7789645536716263 0.6513349927453943
Ni 5.158630650298537 5.572452169786879 5.891360323497203 -0.895914780507141 0.7509693540102809 -1.1007856797150395
Ni 8.883855159891215 5.899479839519197 2.834325720155818 -0.5112366099281905 -1.5843387076850326 -1.400088570051279
P 0.024378374791148908 3.2834661902100595 2.039525179358326 0.7154739893171485 0.11169309220163344 0.19897124589401216
P 4.03449309835131 3.7558992858199507 13.760574325646616 2.3114626225362835 1.1493008537066076 -0.34882850787019276
P 6.506149305827571 4.631966740699893 4.619842226193564 0.831966045569322 -0.18724727258886464 -0.2644292183875059
P 7.884408826667779 2.9482434740741494 10.458914754768672 -0.3045497405574755 -1.2815365459462833 1.810810730102475
P 2.1479518745343418 8.689071747042682 6.272482852531394 -0.2674332953211523 0.1615159292610315 0.19148033683360569
P 0.4629294853450795 7.292335606603592 10.506794407794642 0.6197672452414423 0.045933272197004764 -0.1646678446264519
P 0.11195962877535313 4.233515653867138 7.606735540662169 2.9928946917773747 1.8095658019517804 0.8800924687629037
P 8.787535040755898 1.3501999840758319 5.222914558078242 -0.2053933473702721 0.3504094792040675 0.45734525922637365
