# total energy = -340886.03954350244 ev
CRYSTAL
PRIMVEC
9.13876628422383 0.00000000000000 0.00000000000000

0.00000000000000 9.13876628422383 0.00000000000000

0.00000000000000 0.00000000000000 13.37550821761499

PRIMCOORD
 96 1
Ni 4.534134795226883 2.8387931699347106 10.544367649264318 0.13592419683485624 0.01921745346871529 0.025893065716677988
Ni 4.458410979888866 0.5479933108137507 6.422397599199796 -0.5757954676461826 0.6019327881631826 0.45185261154291856
Ni 3.673628585689384 2.9319263345629674 3.1305510171240427 -0.8087145312405492 -1.0454419128374124 0.6153593459817337
Ni 5.5023139461489485 4.347685690649738 3.3979403446900553 -0.15449964584419842 2.434188061292679 -0.5013111232843624
Ni 5.361467284069596 4.701949955865553 12.059063286409426 -1.0534089902032893 0.5845130500248386 -0.29585941187232917
Ni 5.93843413871 6.061935422861335 5.280075606038766 1.0629688659775822 -3.6345355971634565 0.8547817579122569
Ni 3.4231075924645387 3.0472210068179066 7.64652342873968 0.013130109624054807 0.2815255117481603 -0.6616715987847122
Ni 5.499014851611534 7.896752895328118 13.041213782840634 -1.0726084459498753 1.4853237251717 -0.11852708440433136
Ni 2.1654671662568874 5.30491659986592 12.122691031027987 0.3106247431069618 1.4792785474188845 -0.2818152750744372
Ni 8.209307832375611 7.632651695780282 9.879524248217047 0.2106671941747017 -0.6311842288291324 -0.08841303862777032
Ni 8.102969150831662 9.282701596619736 7.639367774936921 -0.9216409816286514 0.255341911374257 0.14712315087446923
Ni 8.795906946413345 2.4805718190272037 1.7738865777041513 -0.6732755015722276 -0.06486559032513345 0.12855181563018506
Ni 1.365678918233483 1.5663479427558322 3.3399174052786864 -0.7155596070524192 -0.4162803708652637 -0.3524211103174576
Ni 1.5990007537868167 6.79179383321077 0.6936807772600543 0.23937921739741352 -0.4116215319370137 -0.25641663249567453
Ni 7.814184144232415 4.191385375210912 4.2193043054375154 -1.1834384188202651 -2.242944523060227 -0.06430740382881828
Ni 7.433947505954731 4.344231237089784 13.028106050721478 1.3863527085224252 -0.9162509209613318 0.3761652480119328
Ni 4.867882530701707 0.26740943285128244 10.806741622032177 -0.9995240672593753 0.0010518383032820594 0.40556735532313376
Ni 0.43684032732434236 0.2561897697942605 0.8703559715663807 -0.8895057916570035 0.06974888655936376 -0.26234585349591594
Ni 3.2212505283580786 4.836911252620542 9.627637009470474 -0.08941705441225245 -0.9974815829080499 1.242644496866776
Ni 9.250076201886849 4.985900555234069 1.4900584378004575 -1.1036221207225703 0.260176613758739 0.5436733903006572
Ni 6.149356858719829 2.118950847155933 7.323665446868137 -0.14097024389919594 1.2157741548384933 1.684892495440395
Ni 3.907489608438583 4.447810011292185 1.4039602952633432 -1.0808619442079193 3.152237010425855 0.2465443676872851
Ni 0.28941923696184013 0.11653571668203355 5.468763708293659 0.5631189006197785 0.39930440513255744 -0.4563433003244205
Ni 6.4506436972503325 0.7290258687639544 0.9416374327364267 1.827790295379607 -0.2822793591950493 -1.3014862495953328
P 0.02408978725935479 5.84478006441794 12.74471931321711 0.35465231364082145 0.5713124921741645 0.3005719868566501
P 4.009926036887031 6.318177283621975 13.24953743779107 -1.161312276345187 -1.3256654179446976 -0.9782798131686183
P 2.1254028159742577 8.558637163934351 1.9069323890989127 0.6138333962555106 0.9338552643066563 0.9043737099077714
P 6.390373535271787 7.768143040965106 6.526646244952314 -0.33429714702323715 1.8649787315044464 -0.5110157521666361
P 4.497241596757227 1.1730337302868976 13.066253087890674 -0.2953639602931494 -0.08067864609799008 0.3155820871122372
P 4.079718793070526 6.543292507278913 8.79335357518411 -0.26596750940890324 0.30406663027346986 -0.6750019973450311
P 4.489409674268126 1.1301363625344654 4.242711426874308 0.9241048697881118 0.4960552742020618 0.16943466988747594
P 0.1572900438000505 5.665285560790858 3.8804352054785705 0.533301817258346 2.314086433312376 0.21962980268462817
Ni 2.548820123751354 2.0615228414132223 5.350444104482253 0.766763383619744 -0.6411464822481668 0.05056228632858389
Ni 1.5638804759272944 6.7385331047784796 5.3175664798068905 0.4822561635354405 0.9982750253436228 -0.19497086648536743
Ni 6.816815774605351 1.3228637993753354 9.857588468111345 0.49931517590025615 0.9744511834511477 -1.188628704771953
Ni 9.010430340239632 2.6495384641858566 10.861501108093654 -0.7657110310958296 -0.08552954643238819 0.3854415311075362
Ni 3.567938756533679 5.063516095140632 5.358161792395958 -1.090436732380548 -2.3408691007228586 1.551538116215244
Ni 1.4976061446659736 7.039207645984864 10.037449436256294 0.4871510297338965 -0.4936893450730465 -0.4847123383854169
Ni 1.7714309912714548 1.3699193056721555 12.308583584753807 -0.5166135579693877 -0.13684285199438367 -1.9881777674631502
Ni 3.9973967886576776 7.22391124624997 1.8902934377851393 -0.3474714796216661 -0.29425015840368035 0.3048058224323396
Ni 5.354183687542392 8.248988354484913 8.468528930862561 0.9383351544548808 0.4615217592015664 0.2517259118882245
Ni 6.729595391599553 0.8739438511103954 5.572062836255491 0.6259342932841027 -1.3977041289795027 -1.8470422016306833
Ni 8.17322798408277 7.162471322219378 5.2979318409879514 -0.1833376531218133 1.0725745073881463 -0.5965836080361274
Ni 5.063717147993329 4.821384489132816 7.815883954714297 -0.23617459441718677 -0.05324497536706959 -0.6251081978383815
Ni 0.842119012281876 7.830432870236638 7.75498595950938 -0.21979126796315698 -0.7352784256375854 -0.4453204668513556
Ni 6.2967651548098855 2.1922071956654126 12.17516308395175 0.3382404479417013 0.19288287360808717 -0.43199495338704313
Ni 0.2673600835147117 7.492024364085688 2.6319655309836514 1.0768674783365455 0.5608051648849374 0.7425654462173018
Ni 7.787032870352467 6.644568312441344 7.747254563446628 -0.08191457538762022 -0.47549621910378753 -0.695840274246621
Ni 2.1681265471720894 5.771624242334808 2.875840813550302 0.3807155863867766 0.798908858004037 0.7954995752121718
Ni 1.3062586614958789 1.4529724113675333 7.399572037526786 1.4320149864462304 -0.7073562453060205 -0.8442404920613009
Ni 1.1921246125269553 3.8709710993762227 4.272324684323175 0.5388296890551107 -0.7537841977512566 -0.7668870536818018
Ni 0.6980445380401537 8.1449435032149 12.13570554773362 -0.48827203071221714 -0.5620534354697416 -0.44150289287747835
Ni 2.4039524046180873 5.7856248318952535 7.486940468542296 -0.3379054331997858 -0.33925063437377057 0.0321704140849575
Ni 6.240634853843666 2.1358941193785594 3.1324774690035087 1.0060577546128349 -1.1699627529313334 0.3339330788155991
Ni 4.104859538423518 7.382834387539871 6.0287562189069295 -0.42290327549842 -0.5563923805292225 0.4719311274603485
Ni 7.959143251025998 7.594872037005558 0.5896889308330248 0.7414025362574521 0.3581096760618026 1.468230002914207
P 0.40437120549059363 5.562995352598916 8.495025869094645 -0.031313465401300915 1.6973543753528317 0.49419379551329085
P 8.950553145200447 1.927941498329008 8.700406841382899 -2.128221385783019 -0.16201240928147584 0.053557364401165826
P 1.941996920485642 3.4700534335689794 11.148552490776702 0.5409325943307265 -0.7090642291360626 -0.20803387031691267
P 4.197499209686066 6.244281221490283 3.903548058649145 0.5963966888363019 1.3109589649724585 -1.366589409852569
P 6.5768957499771865 3.6768728476306096 10.422315773405597 0.42229495249045984 -0.5001952645123644 0.6367074726402068
P 6.241320261296036 7.70511297164501 10.576536105695626 -1.0753916651219673 0.49026206455905247 -0.1275352014402126
P 2.4080831268643803 8.697189995739768 6.376452452975817 -1.6801251559587387 0.2552331537105346 -0.6164538645974932
P 7.033770080196049 3.9101032955236272 1.8840342969300814 0.8002890261810153 0.9497693644337514 -0.03159422986651333
Ni 2.4140507410830288 1.6105978478809444 1.1089709804052295 0.9162547776160735 0.49272003918124163 1.0130087320093715
Ni 1.2866651471240818 3.583648295342037 8.723372560420364 -0.76815897841569 1.009714891749448 -0.373718329133337
Ni 0.4369801504446262 0.38260632030968345 9.927154582897254 0.4296441937666794 -0.9303014855171269 0.707045656044137
Ni 2.465611659033439 1.8758962257789222 9.721573471632908 0.4777914428958674 -0.9628673352682902 0.40627363736153904
Ni 5.343016115451751 2.851167059141526 1.017208630681716 0.2970991978167012 -0.6405576996242323 -0.4123792360386447
Ni 3.8329081388545188 7.016379008437873 10.993516980556652 0.4823458950357693 0.34733058316842763 0.16139585874339948
Ni 7.125331377066867 6.627762121709192 12.16602797342654 0.7186477590594398 -2.219375477491036 -2.0987382887222368
Ni 7.868971046591987 3.778358844411769 8.4856494951462 -0.3789957754821925 0.666188255708143 0.28804377248265234
Ni 2.976614900457597 8.4668930917429 -0.3453877817693009 1.2109546219626628 0.5829966133803121 -0.034978058737081694
Ni 8.850008441320545 5.126491331864538 10.654943062740527 0.026974985926947092 0.28116915685000604 -0.07281569841014557
Ni 8.451009916379942 2.4377384226369925 6.265101158263523 0.17866235913333103 1.0018851112923843 -0.13700945947923499
Ni 3.4706474533610345 3.2667707219615862 12.894805267754435 -0.13609131854033982 -1.045984929825076 -1.4555629489694997
Ni 0.9457434803144344 3.397007276678227 13.24719699981037 -0.5707357937350881 0.27993091356753075 -0.25409646900293015
Ni 2.8591726181852266 8.800741353644073 8.54309760617418 1.396225230441131 -0.1095477637238565 0.3351553812584744
Ni 5.857702279586653 7.999874731228937 4.258199807544701 -0.7127447633114434 2.0149897454496712 -1.9861347688911923
Ni 2.8312628267246542 8.896652703145943 4.124605670188042 -0.08479395381794429 -0.8569078031163243 -0.24009989761352196
Ni 5.062401165684775 3.0250412216591607 5.245927692885009 0.03329167217359428 -0.10854194816716145 1.112672918070929
Ni 6.534948813892043 5.6351367716525385 9.549256554847062 -0.5919401957268451 1.0722790876349146 1.2154172857197068
Ni 7.851881554112855 0.16169584290389533 2.8962120369113897 -0.10883865347197384 -0.780813691065223 -0.08456821096038339
Ni 4.513892428466841 0.4373932226692555 2.100703473020594 -1.0444440677005173 0.09352824836714861 0.7386676538247924
Ni 5.950469893573645 5.800521020526796 1.0184195171809058 -0.13917638522356676 -0.7500437568722179 -0.4804322229528241
Ni 7.492728049070122 9.108142026649732 11.85463274578846 0.28652605028654526 -0.2162369749529953 0.03709999017609095
Ni 9.014104124184344 5.1041287713851595 6.038118884706326 -0.027961775320248614 -0.9884115022859815 2.160919390236672
Ni 7.472732428992934 6.176206553320733 2.8922266210449994 -1.6498756130455778 0.30076661936595944 -0.16304599275231277
P 8.37012269823406 1.8136063965073888 4.089280683969411 0.4585315662249909 0.3769725744045766 0.8268647197870147
P 1.909481190945132 3.8517888294758493 2.062142449750166 -0.24896249021047442 -2.549937582951873 -1.1414587319543696
P 4.568414306611496 1.562262914339697 8.740426411711972 0.3949720963057907 -1.2135465510595551 0.08651916403916712
P 8.354504547086016 1.6679892985595288 12.882700972145553 0.8020697722305218 0.8015900043806259 1.0482536712545947
P 6.178564354956891 7.787160813076911 1.8507289780044394 0.6366195409120907 1.3059268018651897 1.277948828595025
P 1.5750846030820627 3.712559728984093 6.367370347293592 1.0569231740041347 -0.4465386555291729 1.2865378558156164
P 6.725437253055165 4.229484890796742 6.5649797129485545 0.5510406292990059 -0.4551891321153193 -1.10633309189583
P 2.5042046679849768 9.03149519594252 10.778331940069673 -0.616133505143597 -1.034910160068153 0.840475882812546
