# total energy = -381164.8396124359 ev
CRYSTAL
PRIMVEC
9.32903261340994 0.00000000000000 0.00000000000000

0.00000000000000 9.32903261340994 0.00000000000000

0.00000000000000 0.00000000000000 13.65398222279779

PRIMCOORD
 96 1
Ni 8.280300209026612 3.5662653255419845 13.123948941999435 -0.23589717238608404 0.19858198087539347 0.7758476053091994
Ni 2.4652062346048274 1.9285069801958912 0.5428797386092821 1.6345315264893399 -3.493983414638286 0.7249029959405322
Ni 0.5581093845822108 1.4014166295248522 1.9996800368921654 -0.1675341104306534 0.27933261786189956 0.9557160689354894
Ni 0.031007839071865478 1.5805060713271875 9.55833385004049 -0.8504396788934774 0.30995522784376295 -1.1175644418352753
Ni 7.280479781549314 1.2146027486011788 12.632104609980965 0.91292442769126 0.5632608255142816 -0.29121342845988557
Ni 7.776149949900706 7.388827167968667 7.979482749124083 -0.06981085014555075 -0.879783422162917 -1.4438865410728359
Ni 3.4812778371417514 4.027716601747158 1.3323351419723028 2.014206587426744 -0.9781098632496573 1.3101387830640083
Ni 3.2590509478791883 0.49758821748586923 12.141230497369042 0.12534667842932604 1.1989115747552 -0.4444439777836732
Ni 3.968458585685875 5.275260165007087 10.961444631913693 -0.17242254887120628 -0.7064591874130478 0.10052961938564622
Ni 4.687615062721788 6.461763866949484 4.002009519086819 0.9232561486345713 0.3801113771438744 -1.3834337351034176
Ni 1.9873731768814533 0.6297106438819504 8.019530420935775 -0.49771517840298796 -0.009903889377273266 -1.7296518019339568
Ni 5.411100210956131 2.3069205358466762 6.277924081668181 -0.5152737561120416 -0.8904655844671115 -1.7510220400796166
Ni 0.8818352173185056 7.363610792431254 7.112495620338816 -0.11680778772037947 -0.14198660097885227 -0.8058804042258637
Ni 6.361280855142798 0.32793415941218346 7.681402427431941 -0.7975546579689877 -0.5842171160509744 -0.7780111886194214
Ni 2.863817146170706 8.79943289475743 1.4806238492299388 0.07115579420921939 0.023979136523416766 -0.36030154150679883
Ni 5.9815612349062794 3.698187177733828 0.3564455493187468 -0.23404135012426788 -2.212363564949577 -1.117855490713133
Ni 5.751824474275748 5.844321834043949 8.91063030068351 -1.0689734203004493 0.8693095192147868 -0.5249321051374122
Ni 1.9028614691517374 6.493809094463732 10.672280066825735 -0.49512710596083764 0.485014700117184 -0.627698584273377
Ni 3.861445250950521 6.649715889869297 6.050858223115475 -0.02867191401339578 0.23336077911747555 0.08404704834959073
Ni 0.14857137695011977 0.17570113710563212 13.589617873913252 0.12675615718234298 0.1285052786629658 0.08759671337406204
Ni 2.3644713389137495 1.4541256645919562 9.966997727303417 1.3923197247391375 1.8239192424599748 1.5589830025290634
Ni 6.240040745455704 8.183586126453042 9.463070432060361 -0.9654471801803244 -1.678819549773438 0.34525981668232797
Ni 2.0187093979063033 4.16877157700638 9.974425503183138 0.041899725557579454 -0.578589742561868 -0.6122465113843649
Ni 0.17483073834956828 1.5074597448536613 4.811430918352604 -0.7414896966546198 0.46140040313235375 0.4994313897631463
P 8.055134674446148 3.051274730354491 10.93967999849572 -0.37479870668170934 -0.48310462757866474 0.5660263040745607
Ni 3.910945098749823 8.459426966959967 7.854139730831234 1.0406246939544272 -0.0007096244725149068 -0.41761888717102913
P 7.13374342534215 3.355932953042352 4.736088716918013 0.027734746911107076 -0.3449127177555544 -0.4192487094649683
Ni 0.4042307208976352 2.09312709219485 11.887102047696661 0.04142638546558672 1.588072206585536 0.7933745584493691
P 4.559769997843984 1.8605822927049915 13.40949384237836 0.25847531479691616 0.455118426778384 -0.03493383576270758
P 5.560644606022622 6.747241598292572 11.390479385100962 1.356488059752509 -0.1862219166481438 0.6747322886234122
P 1.7166912914881756 6.288271844800293 5.388189039412539 0.4434039665549332 0.5735912609060122 -0.280699159192123
Ni 0.024824556161692653 8.45757981847443 4.945636517762931 1.4063047261643198 -0.07196054949870188 0.10748291077502778
Ni 3.9372902872506197 7.52790438828378 10.184314746626896 0.06980802193207332 0.8642961251605954 -0.09964233168468646
Ni 4.4022959249355385 5.321019070671538 13.429770495071873 2.6977711296298055 1.3444779226655101 -0.7115939375364518
Ni 0.24673705702040427 5.697921323015974 8.918698981113515 0.17587014110017452 1.0050840778456562 1.067153336372575
Ni 6.886141566985335 1.2202281553525882 3.5982611091826295 0.16723689090520877 -0.11572226796568456 0.6339458507346695
Ni 7.816096868158643 6.856372623463365 1.3634138816931083 0.3422300287170687 -0.08794998294842271 2.1962581747472822
Ni 0.9025904493923627 7.356968521109524 1.2851759484912908 0.4802550739450116 -0.3560173123091482 -0.08416711886722279
Ni 4.767415608910107 0.39404155132236246 9.717362139805958 -2.363462155532026 2.173254000542625 -0.9696015686683302
Ni 1.3651173630742148 3.6598261950442827 0.9658468888925407 -4.481804077417804 2.1451729260356927 -0.34755606891567237
Ni 7.548334970017755 5.912218534436583 12.82117145231503 -0.4896059190322922 -0.9800009096247833 -0.09154438516790041
Ni 5.802490451169455 5.256844654348244 1.8524081942048507 -0.8488638497659251 2.3570919903396246 0.051325389746853536
Ni 2.2138447760476505 0.7086641138960945 3.892518393251674 -0.5207975141437483 1.9096513918214724 -1.846679418974626
Ni 1.989145693104949 5.03945953308565 3.5839382451935107 0.47131689091511736 0.8221300333155067 -0.36501128827764234
Ni 6.090888169764933 4.323390965891722 11.65857619551776 0.4357479926715721 0.1385706333187678 -0.20856506023003435
Ni 7.350083694936157 1.9143455084734375 1.3266780165095255 -0.5618472329962065 -1.2812892058221677 -1.22990030982723
Ni 7.604728973023178 2.1341188621213725 7.095360052973992 1.3264637454762769 1.0906473057294572 -0.6403358134214133
Ni 5.609873911872022 9.216888452488893 11.779686631649557 0.25033365952638825 -2.0724973527478374 0.39479006220197166
Ni 1.798964031356634 7.743731561076248 3.713337526928337 1.9601370592758502 -0.33734621826220607 -2.311160517914833
Ni 6.721400177560557 1.7973314506244669 9.43639033128365 2.3874783159409656 -0.8546277488328959 1.310694398457162
Ni 6.888623089698229 8.039284647794995 13.409672026903985 -0.7426528637247856 1.8577318201340456 -0.5257790265187396
Ni 5.107813356083291 8.973204787889278 5.516878381754691 0.13469675218565832 0.48718111164088357 0.7816765532861505
Ni 7.904965234185054 6.931098175832834 10.626198376627954 -0.15643337253180156 -0.4023737880865006 0.23475431703089247
Ni 4.091293959974116 4.365828735895307 6.62298727812226 -3.2383535397099648 0.03883959857501698 0.22606681655922356
Ni 0.9218157200943605 9.43967508371677 11.246280525803222 -0.45693979625783887 -1.9709673171221347 -1.0277486093227075
Ni 2.3089449359545635 5.334462206871838 13.037122701243144 -2.1171301609658637 0.2741515878815924 -0.3629407789018588
P 5.7614427070464 7.495318076869728 6.9897059583110766 0.8807519567237735 -0.7442749727092408 0.36723992049784493
Ni 8.19789686269958 3.72338489520573 2.062447635075969 1.2271417732454866 2.21838765965647 0.43745571939129824
P 4.064584939195864 3.349132088163782 9.802275928847425 0.10415024685736902 -0.7175532404436803 -0.24695420153119405
Ni 5.380193125438022 2.032357772827219 11.219763683099728 -1.5391952783791751 2.023398281228341 1.1894650846303192
P 8.062887100665751 9.283469759263038 1.58794410914294 -0.16959433539379182 -1.3064101692595114 0.4168030761379531
P 2.176127496618217 3.0752690026009675 2.8840760737019844 0.16448066831631025 -2.3769974710143 0.5103655201771468
P -0.05838295278884065 5.404523242863688 0.618985987826527 0.2416253331191129 -0.276392304286653 -0.5381434616213635
Ni 5.814226374375546 3.3547108497514153 8.28877283657492 -2.534186233654887 1.4276567094775348 0.06034404830569607
Ni 7.417663208215113 9.065814096050543 5.553484573382976 -0.8041289687523957 0.826559272731454 1.2980664252805063
Ni 5.815327200240664 3.3030186792546323 2.7818074850259458 1.9105034554091225 -0.41897462986797523 0.4583932408749138
Ni 7.729738011943389 6.227325273810313 5.597831996391559 0.059719527347819726 0.927286609950203 2.0728783902363395
Ni 2.503361978573757 3.0067752441119984 12.261576885718185 0.9852297621238904 0.9820536783887538 -1.3368042081703362
Ni 5.251900266987967 0.5862569422113199 1.429872045234884 0.3168866648562736 0.580435280411039 -0.6912531690965708
Ni 5.410904301268272 7.5111214583571035 1.6734596207971197 -0.540769586390301 0.29100414066255686 -0.34878762732992835
Ni 4.474661232017933 8.959024658101315 3.3988175837149126 -0.8697558627235861 -1.6104863126146778 -0.5978128524575381
Ni 6.083275679036657 4.654450351276911 6.33634901510442 3.7845327271516114 0.8642213060586019 -0.9313101292872994
Ni 9.45404179415984 8.34195578650599 9.233410169498423 -0.6480750910472 -0.3516425802802202 0.6110419495533025
Ni 3.318728770414456 6.002934048948534 8.226196483562598 -0.5102071402224118 0.1096729764478111 1.5938757006411906
Ni 9.368494563794291 4.047596770548573 4.617408493818957 -1.618576288711664 -0.48503424050120986 0.15784182284355397
Ni 3.3366498423372715 6.225338189833447 2.020516431550993 0.0926846694199307 1.2337919315721526 -0.7046735562675348
Ni 7.401803852531206 4.496388549304886 9.545457919031708 1.7974098833155367 0.01816381539322033 -0.30134948845262294
Ni 9.431652115547264 4.861666826836293 11.286450407944006 -0.19921498647370206 -0.8284492906653151 -0.13926148873820532
Ni 9.405064372194833 6.359890829262267 3.9728721510823792 -0.48299741257683915 0.11513657066554363 -0.8669996401346876
Ni 1.5512315665412455 4.993103569324864 7.03144591666457 -0.15538307689041625 -1.2707183722848567 -0.16443593112130392
Ni 2.7408231783256265 8.733047497671146 5.569513717463028 -0.4580330293220176 -0.4907567448072839 2.2024313934375295
Ni 2.1728436770883723 3.21514851973303 5.323359724989827 0.3834700092034622 -0.6450195920503278 -0.46772403135753643
Ni 4.160440750755952 4.178772300119998 4.219571891971762 0.2966546540801149 0.3112019557666705 -0.035883344160170465
Ni 6.81430801476999 7.885588833152422 3.6637462546080344 0.12311393244406539 0.38008258078846796 -0.5414871812826157
Ni 4.0590621518047625 7.7312493152497375 12.905539492940315 -0.2641983333236224 -0.8911867789038523 0.3534585504430364
Ni 0.6125330958697278 2.730010829362304 7.13469778539301 -0.10970588656827557 -0.4617955816882434 0.3009823349211913
Ni 9.238438518153497 9.552463089727617 7.1539081296426 -1.0394021344012356 0.8778571516744816 -0.7816978934423892
Ni 0.40557503451766524 6.8651512432860455 12.398403010429458 -1.164123520541737 0.4105776640535316 0.9594426258574573
P 8.59870009696294 4.492582303940748 7.559950548701304 -0.6541626920021767 -0.7505926873971525 -1.0697216113203833
Ni 4.403891189536685 1.8776357645815696 3.566311037802485 -1.561601156878201 -0.4116271883639685 0.7023197113233776
P 3.4598677069684762 1.4572042454011853 5.65153364054382 0.23909511049809143 -0.35282965860978593 0.5171048957835095
Ni 7.389536174458065 5.588939562369265 3.5073664772417787 -1.295394534875298 -1.801541388985407 -0.5117204915431445
P 1.828984858762995 8.33535083131528 12.724692461366892 1.6637785962799154 -0.9419436977417455 2.320061419948888
P 2.054635503046731 8.001091587695043 8.780165643408035 2.4485952378569444 -1.9457805334438616 1.190538777310472
P 7.8301557205207875 -0.07687029699989902 10.23992697668743 0.2807079009428714 1.141289296256041 1.4200004784838576
Ni 3.1114003464620104 2.617297455613499 7.65236114846488 0.2118696991232351 -0.039090024022926224 0.6180428063511678
