# total energy = -381166.50281902135 ev
CRYSTAL
PRIMVEC
9.27404484356673 0.00000000000000 0.00000000000000
0.00000000000000 9.27404484356673 0.00000000000000
0.00000000000000 0.00000000000000 13.57350206338347
PRIMCOORD
 96 1
Ni 2.6333464993244706 7.472580220757642 6.317433938404155 0.5661751709475991 -1.247064994531975 -0.63922561107637
Ni 8.290986860444791 3.038668631380256 12.992827461594699 0.1427867282826444 1.0414705868944902 -0.04680796149247422
Ni 2.3876492279698454 1.3851157009737944 11.431888853109344 -0.04632999341479118 -3.2090666178203895 -1.7967509095752991
Ni 7.033315084392873 1.9156745352668823 6.21777690679118 0.449240113620736 0.39748714941816055 -1.1461669360633164
Ni 1.7441139787882194 8.50560680736242 12.576731671586524 0.8522039698827517 0.2512533431271802 0.23096373964020867
Ni 4.93011936138619 4.734353547736367 12.060531841001524 0.7704485457808151 -0.020543885589622685 0.8091539327708129
Ni 1.599874758564821 2.970931007480577 12.528614217062826 -1.9570859311543523 2.9842719831053706 1.0766281086322298
Ni 5.656944807753333 6.812203306050028 0.5586814480271218 -0.7704634581791505 0.4781765941494281 -0.26758679017988113
Ni 2.6946386620233995 9.480670613384916 7.894932281450747 0.368719590367165 -1.5735336466497287 -0.16387440219087906
Ni 6.63889922913145 8.527743952522405 2.164050150786654 -0.14857222461616995 0.3642849516345791 0.1674963152141825
Ni 0.9102614173315037 1.6603879014927239 7.478877297240102 0.7326618139503446 0.4974819793462594 -1.810837212465036
Ni 6.179398126809795 0.5026374673332352 4.061707999039584 -0.24286434773253657 0.8408548634185196 1.2508038927491167
Ni 2.572045062580649 5.542039391527016 12.03533889804924 -0.624365406135086 -1.2004663208368294 1.182096302970074
Ni 7.782027276707885 7.503703915419105 0.39684472761894257 0.6307080605236621 -1.1364857042198104 -0.5129314811321102
Ni 0.5823182062463319 1.9227042612959016 0.8106544655609522 0.6012961830204483 -2.194854095310904 -1.0019355049143452
Ni 0.9767887783726242 4.594176359176174 10.600701652154923 0.21118192902759111 -0.5615273877629425 -0.9588296748638067
Ni 0.17077597228070118 3.4550361509038003 2.2300859874484367 0.3708862590011806 0.04895380419088343 2.71664328394396
Ni 2.0652463313038503 4.397650073845111 6.6878003404486215 0.023509138865533706 1.7775321705550033 -0.5316519403597489
Ni 5.440126912196024 5.572782850347859 4.050563379291468 -1.3324294761414086 0.17472445753150553 -1.1335765009928156
Ni 7.870659323751865 8.982042315658996 6.011364489604002 0.8325129192117275 -0.10546819433784418 -0.39849862140181047
Ni 7.659229648277485 4.419471901478729 10.815502442947968 -1.6914454660675642 -2.45960007360788 2.231357846663893
Ni 7.071385038679315 5.317561134887953 5.520275062971736 -0.3779495936058652 -0.9352380035867958 1.9349518182594738
Ni 4.863643007591983 3.75934538598323 2.3651281373512827 -0.18149648614801644 0.2980883012028479 -1.5178684918769407
Ni 5.174944872520858 3.3584376992965916 6.765386072620351 2.042183532255644 -1.9579169116960797 -1.3129412855098097
P 5.7328250430692105 7.54198717273809 5.924059558384234 0.9589456316163808 -0.41825266410028616 1.1568922929006205
Ni 0.3262655363639982 1.7281904437066546 4.779908583656083 -1.1406226092063194 -1.1526481729122857 2.191959547371928
P -0.027907455892512707 1.5637709017957289 11.36900248209328 0.10252453832848794 -0.16690084772202868 0.8739845560929529
Ni 8.915621606134147 3.6885102310892344 6.243553187167243 -0.4634981662016469 0.11991290900826444 1.0465374598944366
P 5.950375588173079 1.0349092177180905 9.335379716470634 0.9769148145002916 0.1614051147147801 0.269168275734388
P 2.905382058175685 8.422557735344126 10.587032637386887 -0.06133109480931374 0.6930354578079742 -0.045110262075077144
P 5.8356463787997335 8.825264586740039 12.51578728557109 0.6243610352597119 0.006275548596066612 0.3388791099669648
Ni 2.6523768394452456 0.3795551257246147 5.245955306863335 -0.40316543074986044 0.4670781702434214 0.35010583192071965
Ni 6.399267183136955 5.252679916815369 7.892651793811517 0.46031899714271685 -0.6030887561444969 -0.009674804085602692
Ni 6.919105221533543 7.605607120705204 7.866359876539393 -0.43155812295994067 1.4744870395675123 -0.06022757733248983
Ni 4.605741093157951 1.5662007015577382 11.590236677828713 1.0199885057613145 -0.6239897679632221 0.9370580875146701
Ni 5.797901016084551 1.5167978644118472 1.696049386320412 -0.753183073832148 -0.0077945563437543195 2.4199559768536965
Ni 0.1327542430277025 5.941824918781581 12.351670077523682 -0.6910096856271971 0.34576503845352063 0.3067850576458975
Ni 5.177179917340111 8.371810161688726 10.314396120426593 -1.3244487719287772 3.0385551699289666 1.0984115230559084
Ni 3.788428790768196 0.7353928090394487 3.0713438737523444 0.28826437313389064 0.3613451522799648 -0.5702940782119792
Ni 1.3449219904068166 0.9503113802026376 2.924994808315751 -0.330841841484785 0.6701688376224458 -0.0017488643703066655
Ni 9.04083048623677 6.994438288200723 2.7814140452797678 0.7055343616059333 0.8117070382099698 -1.016248836213224
Ni 4.556866876570971 7.986149004806451 4.211111007459497 0.38234283757755444 0.3581341015418348 2.196331708297695
Ni 3.073084611978792 2.4214531216054325 6.906346917974016 1.0630753096484595 -1.6153557248918373 -1.476492242922999
Ni 1.2643676364647838 7.030978025079795 10.523183620510911 0.29153250236220113 0.2806086563608458 0.46448444137431616
Ni 4.326842741085795 9.144811077578938 0.5531225855181585 -0.18217962825797013 0.30008142037347674 -0.02575345481502016
Ni 1.2926071031644717 3.70801354749956 4.560737862909378 0.011493602461896336 0.038524638437759454 -1.284996993691058
Ni 9.026771034178731 5.350567460662727 1.1593641179708996 -1.2448533315926367 0.7786817323238847 -1.8373864237084745
Ni 7.9730076831928365 1.836566932328183 3.072402969679144 -0.267068712892882 -1.1334456318419062 -0.4228225428591557
Ni 2.6768788660529883 2.955656655541534 2.2386913737048046 -0.7661972267036289 -0.4086305676294898 0.0903130838639606
Ni 4.428078215139585 7.50339787193763 8.175808787298616 1.1162935455426517 0.3791644398495728 -0.9178329207364708
Ni 8.223119399916609 0.909711466469339 8.012873092570596 0.057399106744759204 -1.7805161928839917 -0.9340421835064817
Ni 4.242393288288632 4.346104932328899 8.432714669311121 -1.0614138627856367 0.729035530051667 1.2055141676733818
Ni 4.411969199160158 5.347228804501188 6.2041496252251624 -0.684029654764938 2.3159491975527273 -0.14303535395834074
Ni 3.7606715744029526 7.538166266242106 2.2913289977094315 -0.7490744509804133 -0.8325106052188823 -2.1837489865366777
Ni 6.890105283152615 6.679343338910544 12.014178309816506 0.020247951615758677 -0.0033069528860459173 -0.8725647929272908
Ni 7.154174437440601 3.723241529214138 1.9117868556476671 -0.3923305449178856 0.6387036771346289 -0.5419168126208667
P 3.3155359676208094 6.117614439731528 4.177150382465215 -1.307550967732174 -0.11386130349754583 -0.03890644725721041
Ni 7.412975934229269 0.8500515356716072 0.3027178089757624 0.7532113559669221 -1.0274380200608242 -0.5966142041637467
P 0.8947533594611529 8.656310036876354 6.61261658590422 -0.7970792609944659 1.7391869951179015 -1.3008414169224825
Ni 0.4862177708498862 5.905359374261656 4.8804614880057375 0.21878108153108772 -0.2182468062941725 -0.503507616715049
P 8.728425009965607 9.093544157409521 3.7306774584094775 -0.2625073187744447 -0.22747680953287275 0.05760942298335239
P 3.244153644078117 3.322584241739615 10.929343198820549 0.18913343386798395 1.1708711236782159 -0.2577425503959497
P 6.825557930696186 4.917923992351678 13.362338796700016 0.4092774571848693 -0.547777642277018 0.3461399052944361
Ni 3.802460420691555 5.661683844693741 0.6817647170402317 -1.5366506575804502 -1.068273308909631 0.23929308544151043
Ni 8.569764649933337 6.614332284209455 6.735931706039659 1.2086347155802346 -0.5091990106728714 0.4259096664249117
Ni 5.427588403500465 3.3041938107164683 10.170462016280183 0.8261098438988611 0.3914183175162613 -0.029066578348653165
Ni 5.32101107958821 0.2838525468540858 6.824376417376797 -0.6588233307026395 0.2214897387115024 0.12453755226446939
Ni 6.220676900629273 6.648488591550983 9.773926114356183 1.4594314307859704 -2.520898772517362 -0.37183756717085636
Ni 2.1467280897351997 3.2928609278570202 8.78927665553211 0.024100749702945592 0.7630633090603375 1.5053287075387172
Ni 4.1544382465218535 6.007670637523054 10.346415687824738 -0.6728584686394671 0.11516176747652425 -0.917887171013174
Ni 3.9461246501315768 7.34127829316021 12.30666035544368 1.0021059690539387 0.8324139317400181 0.5513303926252828
Ni 7.775618911686708 9.040589361069548 9.816031205575642 -1.0171988588313192 -1.032108686063616 0.5699765469715603
Ni 8.875362977252916 8.458383370766423 11.790717415902224 -0.6853620004231165 0.4377945907879557 0.6280945341602151
Ni 0.17303234740320825 8.694287250713867 0.9369855050956485 -0.615241589456947 2.7215471490034804 0.7375296835656072
Ni 1.7056916107958358 5.266386955167468 2.6037233451267223 1.3667498466898331 1.5699006778828317 2.2868990742643067
Ni 8.454182228429818 5.920253490360079 9.692973903888232 1.8449938037420872 2.6538852268801327 -2.5953743751284337
Ni 3.7047861798767387 3.2927496393183024 0.055272380158775246 -0.7786197687376978 -0.10698514520300285 -0.03511407009431372
Ni 6.9887069284567485 1.5434792915694833 11.583613154966015 0.2213742961795607 -0.6434949278756853 -0.9462945185112734
Ni 1.6720268278336463 8.024487906394796 3.6131984947253075 0.8569062604544274 -1.02941339861964 0.5382005401115441
Ni 6.076984849054571 3.1703322467285218 4.332797605311696 -0.11494605192129237 -0.51745816535787 -0.07860865094283881
Ni 0.0882796333380395 2.5893782524859743 9.485570091301973 -1.8169350978326582 0.9380482193420813 0.27172498071797074
Ni 7.559320362643416 7.216885529008184 4.429509200266601 -1.1018053792288056 1.436090442067185 0.3631325831976907
Ni 3.9488141231505947 1.7220046557629136 9.093798266239594 0.11309665741737941 -0.12707985907034888 0.12292135681728508
Ni 2.703189331414898 6.217848316936857 8.55350539442664 -1.7350696305154183 -1.5843783026737166 -0.41753326943575836
Ni 7.086622294438786 2.6709620254111486 8.391478556098152 -1.3391523966875387 2.4185966346123253 0.8849500539655211
Ni 1.6345040421958998 7.089293219368018 0.9503883547752507 1.4979396141634977 -1.5783027859035978 -0.19074088756441987
Ni 3.558747794944067 3.6349804439658846 4.308148121390152 0.613346429316763 0.9380867858895006 1.1106882835407321
Ni 1.0465110478794402 0.45741629702967235 9.680607892427686 -0.2043217115726481 -1.30048891867907 0.40889873368921187
P 2.1858460110945703 9.420945764272933 1.1655888569031918 1.29365904024143 -0.5946087436979437 -0.5516227270547209
Ni 0.8299556077926076 7.570180269213313 8.343509486292742 -0.8452797319590927 -0.12078579853152102 0.5046414732091761
P 4.38976713568592 1.7664737010256406 5.061450038522792 0.5512162356449216 -0.7984992812704442 0.3828765985938374
Ni 5.857125066772304 2.735388815283968 13.485884840553295 1.1690379271242188 1.4396694176676947 -1.3531165721771148
P 0.5279064574536424 4.939050266618309 8.071564813081482 -0.6885100591337948 0.5305355673671186 0.8802485347247936
P 1.720020010155776 4.323235137622353 0.7642990795669553 0.3074034079561867 -0.32242764927916084 -1.856934263933415
P 8.03328897499841 4.120986766592207 4.139647072321744 1.7253076660326478 -0.9622726391070847 -1.235950115565736
Ni 6.8777800774896 6.216355195709058 2.41300261189878 0.17215412570116803 -1.1412759265196024 -0.6263340998256827
