# total energy = -381170.40557256783 ev
CRYSTAL
PRIMVEC
9.24884174310591 0.00000000000000 0.00000000000000

0.00000000000000 9.24884174310591 0.00000000000000

0.00000000000000 0.00000000000000 13.53661477828408

PRIMCOORD
 96 1
Ni 7.0271404932609975 4.980677021280228 1.7237390116701001 1.7249541393479713 -0.4868144723300841 0.5261199547979263
Ni 1.6361386068430548 6.960789302401132 9.228235350798794 1.527150688509815 0.28561536554681777 -0.7333002188652918
Ni 1.26347502539385 2.2172988283192967 13.380389102804568 -0.5196248339918857 -0.5161389323258143 0.4806283981240303
Ni 2.756950247930599 3.922174827198946 0.7545630562901938 -0.06157200717552622 0.18571720909758335 1.3081047833531148
Ni 3.2961854696622392 6.42922137049704 1.9669780009229532 0.6739725276392522 0.21887466968615857 0.7870043932569672
Ni 8.32585360579955 1.7311242118236552 10.026855264861636 1.2777613951745672 0.05987739308192268 0.271915499462222
Ni 4.807159500828326 3.839499430614565 9.277224615887524 0.6297734645245348 -3.505361317457924 -2.4783832677526543
Ni 6.6495380303064735 5.560033718611269 9.586792598779994 -0.023931828225249106 1.203663230507572 1.9443597418369356
Ni 3.9685762663603548 0.4345781029118759 8.584217225999314 0.6563265324227149 -2.342340800172379 -2.126163217702409
Ni 6.318327757671587 3.70917400122979 10.878443295742773 0.6803570910093573 -1.4985713342102256 1.879983946664027
Ni 3.5223751439957893 0.8537439358977856 5.932800887088301 0.3164986853892356 0.2371135612916884 0.8388584018137811
Ni 7.209536901812354 0.3576073919313936 11.763020095450084 3.4738241660815916 -0.22385181118577574 -1.053129254179341
Ni 5.622555888978247 3.8305465517809507 13.606328133526143 0.1076736866295952 -0.2746434399163464 -1.0561353879955167
Ni 3.267356829864329 0.4198946417174064 3.5681976056623803 -1.270395184617483 -0.9587018910366908 0.9654952598094405
Ni 9.059795444478766 8.528005540372188 9.098838505127754 -1.189460970865261 -0.3919615916142411 0.8385550116407493
Ni 4.309118620341437 2.7043243382578024 4.442242749245893 -0.7303557915249873 0.6232127805878815 -1.1026409877562235
Ni 6.478323471455366 7.832807099868603 5.155365445100246 0.960633817952081 -1.0128349254356686 -1.188105485278631
Ni 1.3444671327760425 0.673630141495331 8.234742340636513 1.2106139507937923 -1.2764177366624792 0.575334468849364
Ni 5.5332213263192775 5.709125047947908 12.016317200128098 -0.5639082292902934 0.9024183859536137 0.10009021785538247
Ni 7.496657945728397 3.7144180945135292 8.582660645929378 -0.9952218403395957 -1.4132472189204242 -2.6294594897376005
Ni 7.498285741879963 -0.008286962226155594 3.1043515429685073 0.23689604596424363 0.42457063589851396 -0.6809942103727239
Ni 0.8830535154677488 3.204806912972041 4.383900130474897 0.14431833443582243 -2.618161548226278 -1.310758161815562
Ni 6.094921984710886 6.596819632215975 3.268483338791947 -0.007717166138599613 -1.5548340133576963 0.09701260737132324
Ni 7.58051719405937 7.4974348484370985 12.79518713747472 0.9875216434818606 -0.6280945341602151 -0.09449472604547597
P 4.381398318776041 7.606127236921228 4.12520170220305 -0.9393520257551693 0.19078793875227143 0.6908392214876037
Ni 0.9721087631052566 8.040813551281817 1.978078460815623 0.19439571070818779 0.7433540035568681 -0.30806212458610815
P 6.4819582662710795 0.1713810380029723 0.7870958572170937 0.6483139465308835 -0.18942319719426085 -0.07199268828821795
Ni 8.888654876361821 3.865655155140869 0.7603926012579906 0.42157324383308686 -0.2324241262358191 -0.13277639523449392
P 1.5631190010668286 4.036425769587003 6.121744550728826 0.8657786232433927 -0.25201567521450147 0.18046727355255368
P 8.04799065249554 0.21488573992193508 5.240185648091151 -0.019481248653063225 -0.014816239077226094 0.33637768370134974
P 7.4361150275002545 7.763348298173928 10.561754629571377 -1.026443774468355 -0.4915681849649857 -0.8138446533782628
Ni 6.224766474323607 3.1584887133865642 5.889280462138329 -0.5556166787054625 -0.8834356742035236 0.9073358778598891
Ni 4.287929523845763 1.7840553332748699 2.0620190989541753 0.8428446401550388 0.7318490882410622 -0.520043409586543
Ni 5.541554532754284 8.383427645819436 12.486417329627024 -2.732968760576861 -0.786924174838335 0.8563082218591124
Ni 0.06824997807530131 1.8149094694204668 2.246048852962159 0.97358035081042 0.7932336619961307 0.1342046430405882
Ni 0.9356220823215693 7.879467506599579 12.724648071061278 -0.6339607631330049 0.8751883465930669 0.5681821740752989
Ni 2.2443054462884646 6.1803720338263455 6.359718174361868 1.4791088546102398 2.547298088446497 -1.627304155502965
Ni 1.966867939705887 2.0658952885400925 10.7866651890881 0.29279439979376026 0.765643668193004 0.3336111766998061
Ni 1.7007417666083413 9.007909442147591 10.679103009068296 0.4740664286357965 -0.9840167156523957 0.019536270260714743
Ni 8.39796682508229 4.422999609058683 3.849177418642968 -0.2717020978998353 0.8302734883582475 -2.0580009589038752
Ni 6.734146434820838 0.27749484940155306 9.289867782587473 -0.5615839520324909 -1.2512890599156514 -0.4674031576830079
Ni 8.550054779152495 8.069059514048199 6.848336334853213 0.1285271330398367 -0.8083589476733434 -0.39748740652847675
Ni 5.595798989736876 6.41163007345 0.895020591834292 -1.7843463652633593 1.0345121532987862 -1.3873852635519979
Ni 8.965226037377827 5.729934941931 8.83835320062589 0.3840186826180806 0.25674984746537716 -1.40967184286434
Ni 4.208759438292313 5.643865220416933 5.133774948871745 0.5024285247182573 -0.6750886435215664 -1.5159411929472408
Ni 0.6388295245663627 2.8528329905629146 8.350182684076227 -0.5764924937132071 1.081557427613047 0.5977891983084543
Ni 1.5771032498234663 5.967056747237001 0.43549743778384 1.0858198024338268 0.28921233886945674 -2.255140293795471
Ni 6.535250092551333 2.5824708479345886 1.9661798258781795 1.1847645938308562 -1.1218044480585518 -0.07585551367773387
Ni 3.868929245127542 3.5553842602738577 6.551139602712645 -1.3791734171651666 -0.5388278892828978 0.5910151128094143
Ni 4.123133661183219 5.618921094162534 10.062808287475178 -0.08431778551247414 2.4619462052425534 -0.43948946199187544
Ni 0.7846449141479741 0.2727557428784703 4.084605761020835 -1.3705928745850071 1.3339816511198768 -1.2895470749555857
Ni 1.1981689536540234 4.064847460347021 12.11497274552314 -0.9816196761751287 1.1282044380476248 -0.3552709210614268
Ni 5.626310918736974 1.6728935040380797 12.279023151539 -0.27858982615860406 1.7366832548594413 3.052118767546015
Ni 1.1853315612768984 1.790816236608932 6.329640016040796 0.6596797651656638 -0.14930653167903318 -1.2686926001040795
Ni 3.035506864367378 8.270443794753904 0.13719454416754936 1.6496588690490814 -2.2755695081841005 -1.3631127641578782
Ni 8.820176451894794 7.318007318093998 3.9855451163562563 -0.18444014215737267 -0.35140398190685285 0.7046920682102961
P 8.78136831182677 6.07923594906852 0.385267903013719 -1.523068033800009 0.044370555695575194 -0.42593846278031805
Ni 9.343734886825837 6.819124793006015 10.82988780133307 -1.197630136939615 -0.7107768409517953 1.2908747926280737
P 0.35278689560073256 0.9947499277588603 11.888342826321324 -1.3036629455316775 -0.3387418130581521 -0.1578420799538701
Ni 5.756053671090221 7.353208409871618 8.54477184073332 -0.2826444558439519 1.4139311323613262 -0.42119066368268754
P 2.31448565764122 2.4158899588103826 2.871860632736877 -0.06982704809546685 -0.21471025389582377 -0.3861331578579221
P 2.5665628400897362 4.071922824301273 9.999943909962703 -0.8918285262529092 -0.1501987044759994 -0.04205142064409532
P 3.6928960397141277 0.19006832279978855 11.86458532646605 -0.6136019969709948 0.6217436522415227 -0.15929063947493857
Ni 8.786048225762523 4.009844598339268 10.278108375508422 1.3127001160332812 0.04914895092082503 2.660505817520444
Ni 6.298341010606049 -0.013609670664941917 6.800836133289497 -1.1549886481200045 1.9364083482003425 1.431365782898006
Ni 2.3637172423843293 4.5905053823599165 3.3990307403792093 1.2515312578334445 0.2925478310005929 -0.4524714760738401
Ni 4.867082746657858 8.48940087482311 2.2455623638850435 0.8319963845866253 0.5826577419836546 -1.6767562394865057
Ni 2.2762416969211823 6.093118460565685 11.401457898777727 0.17202402788120696 0.7158159460375995 0.9552481281601355
Ni 8.19991212741388 1.1544589274477608 7.465010258958911 0.9989998193247892 0.8789434427601249 -0.07759666473855668
Ni 4.498960346517853 7.709436799495066 6.3873463144979965 -0.8531195397184855 0.30873729627626184 -0.24550332801728042
Ni 3.5928883136522742 4.05351762917845 11.926610834029963 1.2227912095862747 -0.3251417057762142 0.07900511505030909
Ni 3.675323240350628 2.092254487585342 13.292197696988401 -0.6179039667804584 -1.1689512809476836 -0.620426476091996
Ni 7.801111319121912 5.099663370654661 12.272389882221368 0.30062418025082416 -0.7817724554340665 -0.009152870143861656
Ni 8.876141193446655 0.43781519753146786 0.4631237281516154 -1.089687512919349 -0.7938561260714779 -0.5439356428231085
Ni 4.970281323130452 1.4131860271290961 10.30474781445931 -0.9349700946373898 0.8410924333506223 -1.0595354148160012
Ni 2.0701867511214944 6.992300106312418 4.0017074673497905 0.317557208560737 0.13525725267481867 -0.36532547708395147
Ni 2.024941417181368 4.86680528140475 7.967204794284825 0.37345042018393104 -1.6129484010019253 3.909243057548519
Ni 3.0263690086983583 2.3366088871556885 8.636523125746859 -0.6817817392710258 1.9478633841148194 -0.7542950759494043
Ni 2.3579644628032255 0.6686209687925566 1.2088199198366583 -1.5109843631625977 1.6077192913925018 1.9860254970068376
Ni 7.2246957534738145 5.273199388790104 5.471012691688311 -2.717909552250893 1.7579473064445403 0.23871407300958886
Ni 0.017345277855951118 5.668171176589183 6.357688053593295 0.06503785423693961 0.7998483390991707 -0.004517428254379317
Ni 4.984552285981969 5.394359215980549 7.359681674226625 0.8737883809217467 0.3209096699727377 0.4832077288154324
Ni 8.603920033622506 3.404581895209721 6.118982846576224 -0.16320360137609957 -0.634460585587559 1.1877421884019415
Ni 7.684760889652004 7.477448101371561 1.717755935928917 0.47583920426550314 -0.39927509455651883 -0.5521690864764941
Ni 4.025965329544836 7.894321146482621 10.237484687800897 -0.46669764697555105 0.7112820627229879 0.5113983323170354
Ni 1.7027302675889477 8.515972797229075 5.7162688533312584 0.6385949194709066 -0.5854533024509208 2.384616163901822
Ni 7.901452003487495 2.491184779662093 12.477617981566796 0.750103920686192 0.79469610547427 0.059149513776962655
Ni 0.5275909299428791 5.797053786657798 2.2748821171809537 -1.1842133493130766 -0.878195765960823 3.0747640157493565
P 7.2722902932235876 5.913607690646651 7.526398521324854 -0.6607670846925717 0.6132340721086148 -0.6696708149401048
Ni 5.55058140232206 0.7808140438867311 4.219606479920477 0.26512598734421433 -0.2890022797411797 0.5286054402239413
P 6.17736616025101 3.965172692588898 3.8352616113154308 0.22865386056010945 -0.0350302521312558 -0.1046932638450326
Ni 7.821172056921612 2.086945652409211 4.1118824451696945 -0.18883929966633284 0.4417718302681488 0.7281680398450491
P 3.599168277214283 5.780729580933283 13.416125702520686 2.0180367598061113 0.1473362953265398 -1.0165756234250234
P 3.184764672855881 7.695406306529577 8.025114567260973 0.21833576646355302 0.2703512402988957 0.09296106300976893
P 6.163622381380399 2.0489699081005113 8.108621434720499 -0.9183062608284637 -0.26103484799397625 -0.19289804311673875
Ni 4.774844047683026 4.244441469841988 2.2135474980972782 -0.9423154792588675 0.7126452616191017 0.9610212831984868
