# total energy = -340897.65016357414 ev
CRYSTAL
PRIMVEC
9.02478027964044 0.00000000000000 0.00000000000000

0.00000000000000 9.02478027964044 0.00000000000000

0.00000000000000 0.00000000000000 13.20867817802854

PRIMCOORD
 96 1
Ni 6.375357428953782 1.9759485510160184 11.37131149810677 0.5649346136722787 0.23847187509179574 -0.1657824178468693
Ni 4.557658398790144 0.306436411778873 5.917830854457243 -0.43871813104348956 0.22003218032936947 0.41725353341181043
Ni 2.715836131144987 1.6416075188507435 4.636391483755541 -0.014085531558788644 -0.30879103233233274 0.6980609360470236
Ni 3.3816212410305058 4.390167503010314 4.776336945401031 0.0708338920934264 -0.06866362391498497 0.24249102355351787
Ni 5.044166249951253 4.469477271430657 2.813871416007679 0.44864824567300793 0.13888353657349628 -0.3206042229171769
Ni 7.136083226570527 6.034301960317783 2.723841111184682 0.243716925540819 0.27213455745156356 -0.8958073083949992
Ni 5.190728680441281 4.643041844286827 11.425889758859942 -0.21076026810914025 -0.5984831390516854 0.11389755605211996
Ni 5.711016283900678 7.67892375575619 12.392950008726475 -0.24363567868092234 1.2885232616767615 0.09829095986311459
Ni 1.8838145699277984 6.515070051270047 0.3440742576137659 1.0440584022263244 -0.155938435173254 -0.540835920851862
Ni 2.972527954447195 1.5675862716291173 0.24971025333748634 -0.9881878163109498 -0.3047271466756042 0.41335368413677204
Ni 0.4181009197035136 -0.055786678822297264 4.748334857388442 0.33874952636763594 0.09999045905272456 0.2532652313508864
Ni 8.567296044558338 2.3379234601616177 1.4867684624369222 0.47623669681423786 0.31151177369760547 0.3164084396682745
Ni 6.7639825140376235 0.6063045885263024 4.809240391541647 0.2805718895856394 0.40736712753603393 -0.20422683786599663
Ni 0.8114270127948829 7.313510405353405 2.296552965234934 -0.3368003730610651 0.3109924108590257 0.729167427643841
Ni 7.441535937307318 3.892965287309138 3.8350604925732927 0.7180618046489827 -0.39452883812078504 -0.22111847141501273
Ni 7.6512447548748534 3.77262886808783 12.675377797732402 0.3032060820453875 -0.39530428283422886 -1.6025398040740917
Ni 7.930724148188596 8.809439922173974 6.869767377660279 0.240011965885406 0.5120526780715827 0.8802073970742131
Ni 6.894056671097523 0.7695231533582267 0.5301525906988453 -0.7440047497669896 -0.6739709849773554 -0.7119212389688837
Ni 1.946852659642875 6.388795326675436 9.3271094368966 0.340593007334278 0.5920929192546255 -0.7495884145023541
Ni -0.07801380998325105 4.781093907045815 1.253936353034316 0.45516779195908064 0.6092920567417314 0.9656981198488659
Ni 6.584154743720857 1.9667342504291763 6.97309930602387 -0.8706477784102361 -0.057772173813461794 0.3612240533210682
Ni 3.394932791829323 4.35179413758891 0.4290533929573743 0.09655777922209179 -0.4097191727079783 0.1729689082929795
Ni 5.917042991145557 5.66276078415744 4.932913272003851 -0.3110592595412191 0.8316580274106 -0.559626571195804
Ni 5.379779776125093 3.0174442855154755 9.15131574333039 0.17377237803088136 -0.47035041323678994 -0.09936002455757727
P 0.24595774972925027 5.633033158170115 12.45068513759451 0.3331517205648843 -0.7655063712841913 -0.5434633311723802
P 4.197046231455135 6.124504638442649 12.808244221786982 -1.4218154202054094 0.047488018278634345 -1.483372257872284
P 2.4960646836515656 8.462527371186495 1.2627310013417377 0.4359066297366235 0.6531201096702752 0.7830142982609676
P 6.241772632395076 7.784811501873155 6.000848002584809 -0.6745116879721739 -0.40124738779154123 -0.6715454062549983
P 4.9087855221322325 0.9185240794589937 12.511141237693627 -0.5967095920910304 -0.5696068223369674 -0.1137080657491332
P 3.943874072431936 6.112149714345305 8.37278315189592 -0.9282700569093948 0.12373999606383852 -0.7953031429306496
P 4.634711972159839 1.0828472773877147 3.7620166290476074 0.39700018247941304 -0.7409716193676207 0.8956538135362705
P 0.16239730983348866 5.558696043641398 3.4014459757015305 -0.07619078552996555 -0.45191534646005393 1.2548636646407871
Ni 1.3441327138130403 0.929407964383315 2.601330622412571 0.13696729338738992 1.0696581050722997 -0.7280901354192622
Ni 1.7665285264149655 6.503987621181269 4.691669164974412 0.10902608689243158 -0.1696742967021078 0.04662284206486164
Ni 5.904931736113685 5.5129674823548855 9.06399287256817 0.5295546915110879 0.9857028451055669 1.555112978050696
Ni 8.538073806262357 2.3009128365508045 10.129867245828876 0.28391843746036904 0.48466477297693306 0.46827090499994195
Ni 2.2346799746440116 5.335883245219706 6.905404429724257 -0.03449726244592124 -0.6492961079384947 0.49146302684568904
Ni 0.4926013827538972 9.07658244095078 9.092880291518632 0.5238332156462785 -0.12259456960548565 -0.008403650682662946
Ni 1.381982641982694 1.1846106989520961 11.31269103830086 0.15950969746428012 -0.4460624872237028 0.5114680092127063
Ni 4.271401395544257 6.772014568417927 1.7537954640271343 -0.3054421704647578 0.792794260465867 -1.3675615439578515
Ni 5.35689293353133 7.965577849330991 8.132595846628204 0.608043786156927 -0.24574115505969937 0.032808047668956404
Ni 5.234128848435526 2.8455583217769855 4.973939020326795 0.3592111366560975 0.06881300500865567 -0.16902046516819277
Ni 0.8169203965041981 7.450497544048487 6.799708911425609 -0.7098854394857773 -0.881076687053044 1.0651288497433786
Ni 5.1202451470590695 4.749398878974326 6.990481935172074 -1.002919980314802 -0.9922910398460458 -0.001552432088784423
Ni 8.137644308673531 7.091717407094604 9.184839191870923 0.201610226178756 0.39686622800471005 0.11786836777440991
Ni 4.579200549133721 0.2012336464792853 10.318090769168112 -0.21755646509536725 0.4627008671113322 0.1986316031664063
Ni 8.046178161320304 7.124739077855874 4.807628565797464 -0.17025330913402936 -0.4298534815640081 -0.2492085447830095
Ni 7.2762019639959075 6.173012832031559 7.107801370371657 0.24154717158300984 -0.03347164939488429 -0.5277258658324654
Ni 2.3418041156487304 5.336163013405986 2.4958724558332506 -0.45417251792534685 -0.8701096465185788 0.44843021612493095
Ni 2.4447317338592454 5.156705259077524 11.414873209666643 -0.22482445951169022 0.03041332218453472 0.5575966852499687
Ni 1.093839459674467 3.289658730766135 3.8647935334287395 -0.5704869109490756 0.6255103183728066 -1.1278820217111993
Ni 3.701793368277718 2.5642649476425228 2.4244656874363137 -0.0040386888457478835 0.2341027994898226 0.654021795548938
Ni 1.0987489401046746 3.3625248061218294 8.239110814969248 -0.12235597123211832 0.6304962016231722 -0.09758622048660612
Ni 3.7465833524231615 2.6707302796924526 6.927357207567053 0.17766914198212627 -0.009794874603234744 0.48024633219426316
Ni 4.022145991128982 6.905175200307112 6.227601020042953 0.12576319714145437 -0.012182400998804827 -1.0698162279167187
Ni 0.7803240103046839 7.419307903668343 11.2180382410581 -0.23056778975337067 -0.16683939835647396 0.6953890456418154
P 0.28279148764809264 5.563388929346745 8.050847582597124 0.022697955818148007 -0.028073618307764555 -0.6736987051525752
P 8.593377659343817 1.7318823952172304 7.9478071546340745 -0.43873175789024443 -0.6817017779627098 0.13536523900759265
P 1.8288085345930247 3.206802223726175 10.608113813192537 -0.4828619154402394 0.16075334006339412 -1.5117904040036607
P 3.9842238647177064 6.2286957258815265 3.7779200967206075 -0.3930447973760908 -0.004566279214443749 1.3614564595013778
P 6.978050300443009 3.957438317076426 10.333677467056 0.31534168896665693 0.36409289022843105 0.7333840368283499
P 6.259876341481467 7.649548096196767 10.203571723265393 0.3421194712811334 0.09197504494741579 -0.33116400071089414
P 2.2710408140802385 8.558244190015142 5.728801418245918 1.6687853054658874 0.24568124835604138 0.14901136903611753
P 6.717225127808016 3.811958860210708 1.3971217107725353 0.7736215441921579 -0.16283104852802924 2.1913239706704584
Ni 5.163518968130479 2.773784244825804 0.35227958777395885 0.36167271082271263 0.3959061780842859 -0.06897267051497154
Ni 1.6064830743022713 1.2705627056015436 7.02129704717381 -0.6953967589512992 -0.2881175631433812 -0.7672644916258786
Ni 6.886683425672009 0.6333202680627494 9.276666330432255 -0.2444743725321338 -0.00043811597868311647 -0.9850718963897873
Ni 2.7502205437168468 1.6679057283610847 9.104913933440764 0.2804518190680073 -0.7573991687960246 0.7114358146920329
Ni 6.30420606183658 2.014439238580056 2.7334173054576483 0.7946570247062185 0.2281884908879167 -0.5933339907505781
Ni 4.134495479870998 6.788529916188663 10.600862402299759 0.1455429508715429 0.0605510221101796 -0.5223923694346938
Ni 8.105073876922392 7.2188855849292715 0.3075103606229809 0.1878892770482377 0.22983708223493318 0.4717724903952971
Ni 7.650622045040874 3.881566989913269 8.202959350433721 0.4067012118172609 0.09207968884608013 -0.3249573576795501
Ni 3.1463903450500514 8.401546931357608 12.320605565666488 0.48380473896948284 -0.23178032200423307 0.38244542459368974
Ni 0.1822103122902502 4.87261420308026 10.189372134094642 -0.3055329304063512 -0.7054919384037721 0.6062085327204012
Ni 8.647255597153267 2.3910703907746576 5.686414733068423 0.1438730193682877 -0.5842667383419873 0.13843153663774221
Ni 3.7537400031238137 2.5897689764950362 11.324619090294622 0.6293332916633226 0.08672613784365063 -0.01566753133392786
Ni 1.2274152314529707 3.2583517682433576 12.781443332019355 -0.8648540545465945 0.29280596975798606 -0.3281722650724219
Ni 2.9136683379659165 8.358083589901945 7.92742559102455 0.08256737848027071 0.1592559295822612 0.7508068602904876
Ni 5.650523182202731 7.83766061473951 3.5475607770935107 -0.8433930564593412 0.24431316436392117 0.6844862826863826
Ni 2.8404593209625237 8.386466523639083 3.538301352605655 1.5385203637993374 -0.5533492228275244 -0.040847115923349005
Ni 3.295560937018627 4.12233007615791 9.138542971909668 0.009532107860151327 0.6421322432002038 0.2320070933030585
Ni 7.408216448799363 6.150180138119011 11.411716341551777 -0.38590484389719987 -0.9497140857157838 -0.492712582982074
Ni 0.6386728652009044 9.017912344853755 0.32438308968973933 -0.06518363578618451 0.10612074032017853 -0.2821785719511269
Ni 4.672200909121389 0.4794044466636529 1.6701583134996507 -0.4046209322494645 -1.7498195351310832 -0.571665504638209
Ni 6.181523199762599 5.611084892717422 0.3991831754428488 -0.3158661940115592 0.07149800803998654 0.2708263801631013
Ni 7.876385946588814 8.797418914944128 11.343137036792312 0.09825650708075336 0.34085140320198715 0.42567955269197655
Ni -0.07687127280960343 4.8131860254462175 5.7113402735099505 0.8086276279536977 0.649134899770282 0.12080045381954035
Ni 7.91138404421445 8.664303406955955 2.544995236953957 -0.10770942496353708 0.03128081239115258 0.06008462399672233
P 8.472671224134203 1.4460856557616761 3.584637281599802 -0.7562835671343426 1.8371632519540746 0.10913664432836688
P 1.8905109568381184 3.2517185547944556 1.6634483894190264 -1.4304427568631042 -0.40288312362275125 0.008571029498462657
P 4.776491269142495 1.1215545596766143 8.249004681505346 0.031410138880165264 -0.1419269513855104 -0.81323915858378
P 8.525204469693469 1.5738945929907262 12.531587779720608 0.004584019826256621 0.6460254076070229 -0.8615972381721935
P 6.260661497359092 7.739119039707452 1.3883378922013565 0.5402790199071276 0.0911648903412946 0.5013504611627302
P 1.8626424355725268 3.2848936468191683 5.9935568826591386 -0.6229309876814046 0.14898617222513696 -0.14421549030937098
P 6.90806312997194 4.029907302103207 6.027066794029368 0.1928041978513518 -0.7380619019199933 -0.2802584721102786
P 2.3982811901565255 8.49902358232576 10.26912682417897 -0.021278192652485935 0.12130876091452657 -1.3286119021675311
