# total energy = -340894.74552603683 ev
CRYSTAL
PRIMVEC
9.01537965761357 0.00000000000000 0.00000000000000
0.00000000000000 9.01537965761357 0.00000000000000
0.00000000000000 0.00000000000000 13.19491941746526
PRIMCOORD
 96 1
Ni 6.318122108202565 1.7132736799968997 11.319090078220384 1.1535475447981036 1.437881986749969 -0.6004145517464433
Ni 4.466922139231967 0.5398057566650127 6.0025928456500806 -0.1646105090259552 -1.3967088549457687 0.7197268510562315
Ni 2.7220225084069267 1.5148451800746114 4.532969710030725 -0.7757470751755929 0.8665651237004302 1.4214390107025971
Ni 3.3140714869801475 4.273551267135958 4.626877507694993 0.17540040055260758 0.319080844294115 0.4274862668834121
Ni 4.968384585900638 4.620508142170455 2.7093126265718315 1.1719530438884849 0.35321018187765624 -0.06569631375654493
Ni 7.381314812624891 6.112995181408752 2.492718137220038 -0.5502479581943813 -0.09610655061728608 0.3620231521835958
Ni 5.131157260416627 4.521347984485527 11.364743959347438 0.3560314533765352 -0.49129513380925716 0.07828957704052324
Ni 5.521757586978784 7.684916728271551 12.221305070159184 0.3588213574168465 0.7546025798874939 0.6857281255132835
Ni 1.7650940806126794 6.671957717695976 0.47297745401285707 -0.08648342570522526 -0.7238244181643728 -0.06313112413252998
Ni 2.9695938412722587 1.7231274896477429 0.4200625863416222 -0.8271046037119628 -0.4274158186567929 -0.23954325377910357
Ni 0.5112567548156757 0.20355554616971253 4.72776591360505 -0.415987007994561 -0.49059502241843894 -0.4120215955889097
Ni 8.514502922471872 2.097409979551138 1.2904460768026573 0.05033140126470041 0.9500195327713443 0.4524516785794982
Ni 6.694541243016527 0.8274702846623032 4.919395915944812 -0.19680637703220946 -0.748842280364949 -0.11174322871327852
Ni 0.7537966044549002 7.535117184668245 2.716002939601924 0.815928532490485 -0.6605588253365076 -0.23677417567439868
Ni 7.409478857775151 3.9739611953087177 3.7865855504934136 0.3107813232894841 -0.7615869816251272 0.09198944312511899
Ni 7.661098095977381 3.795880406623349 12.68143831318434 0.07217189417855957 -0.49115423735601865 -0.8043392849909888
Ni 7.961454475051027 8.803139308365193 6.964251642999495 -1.4348578552116642 -0.5936587210798485 -1.4732842775086628
Ni 6.742944814851273 0.7366105867628575 0.29033308029065696 0.3805345807242221 -0.7879022224808883 0.60891359035639
Ni 1.8508573845545573 6.39731320058409 9.392631525349227 0.8280597685363804 -0.25858612934316755 -1.1161331087053874
Ni 0.20117097832648465 4.6224734948730015 1.4008123510438504 -1.2489753241808104 0.7370239475737823 0.3883381359290409
Ni 6.281330344995711 1.997429422343588 7.105279222476295 0.8500085048933296 -0.4111307083435243 -0.7071418153023693
Ni 3.457199649850036 4.287245628398201 0.7571440148147887 -0.19010042576694358 1.0844812861280613 -1.023247121907928
Ni 6.023905202479535 5.716309473772196 4.7873016758852325 -0.5460354627749305 0.24469805850716567 0.682713764166992
Ni 5.523713924301961 3.034360326662614 9.015930209161 -0.3643600278468886 -1.1467174092501478 1.259210114534941
P 0.3435030831980482 5.338583108949658 12.466875890342427 -0.17907013609471095 0.829389028870765 0.22372916956498243
P 4.018902861465583 6.045280666964576 12.523798995681334 -0.4603799322876394 -0.0030002202789045102 0.3546847095406536
P 2.514055737111727 8.609669267096118 1.3037897398074272 -0.2769258081926198 -0.3991879341593512 -0.09459088530370806
P 6.204618481940792 7.841567960195661 5.869983827428503 -0.4053243860743922 -0.17772082115566812 0.05183446817278815
P 4.721119775933868 0.923995246957531 12.638212273721487 0.352336006802819 0.12030731623320569 -1.0098308485020222
P 3.8914524433192224 6.16222816814549 8.257023687679478 -0.041347452598535235 -0.4975863661346076 -0.15167760301437105
P 4.662700117619629 0.9551433826790897 3.7474227425123856 0.7066268233391637 1.1731452644243732 0.5226607926047321
P 0.14265936314267566 5.655410586131347 3.7545611198971414 0.3937217688384574 -0.3190790445219021 -1.5103225612088829
Ni 1.4516473706945456 1.118186518576163 2.463003446818227 -0.4258698143259117 0.5586865758800379 0.31735537696257604
Ni 1.9026597544115982 6.600213328673642 4.8831495831898115 -0.06747191759972897 -0.37707233320723443 -1.2871032414007835
Ni 6.2239654860677 5.386788342438276 9.19945809006141 -0.5772550829108446 1.760466473321968 0.06465013188021768
Ni 8.4261972815478 2.165467078411354 9.922407672465692 0.54076367285303 0.7338586624719233 0.9465182044863054
Ni 2.4010750028533843 5.087081070679232 6.988385813571597 0.11672474108826994 0.1857138666634737 -0.4328467598643771
Ni 0.3760458981080656 8.915732381310647 8.851626723228074 2.0187980634521683 0.6651572433404673 1.113868995261559
Ni 1.228742115784115 1.0876965055485766 11.140839800402869 0.9202962946752988 -0.18764219403443813 0.40274017028698383
Ni 4.048635582626133 6.724111687348426 1.5359150231990264 0.3289104287900271 0.9342388728983201 0.1311152054819871
Ni 5.558053504320316 7.6224762107585216 8.054310177942876 -0.4439631814925128 0.5427413654046911 0.3101547454490788
Ni 5.153758816495918 2.76004036320803 5.1332326007474816 0.30660842285871714 0.8436252270748053 -1.5121927816484022
Ni 0.7182868281943863 7.4068373516198935 6.713574511941377 0.5814012438687342 -0.16840237196821964 1.157841029967135
Ni 4.916690400596032 4.60007929251921 7.147120499667995 0.8961364095996438 0.3715580882572246 -0.566684763594166
Ni 8.422437868350725 7.000063434468887 9.282203044990386 -1.077246716052835 -1.1487544942848344 -0.21371883651683193
Ni 4.486539604739959 0.37746221420701115 10.550380233212486 -0.35878664752416917 -2.277250238320633 -1.8461443724067623
Ni 8.030566373297471 7.207119652447769 4.795046788301554 0.1394581781300437 0.9614164617543765 -0.4524645340953046
Ni 7.339961267457078 6.3522813806335305 7.062302909021977 -0.03265275303801473 -1.31662053413361 0.16372244999404706
Ni 2.1511596713519867 5.4187929391999345 2.7340931998447253 0.5740823416098177 -0.419802010865277 -0.4592316776158091
Ni 2.317484405339551 5.1177243451561 11.448782621215933 0.3086079697872492 0.18976438258376352 0.394644794873359
Ni 0.8353776739072755 3.444109319005549 3.775897818250893 0.2951803835274336 -0.3376465231114443 -0.061905736365861136
Ni 3.6539693199683403 2.755271227521574 2.6235457164782057 0.0989800155103392 -0.9200985768421961 0.4595643783648795
Ni 1.228688023507898 3.3753039436576664 8.284205958016402 -0.6142820537571549 -0.27280664381792374 -0.1305673033983171
Ni 3.638949697938784 2.6709684150375526 6.942440735690909 -0.7919244562664038 -0.5604665505985961 0.6592853579407226
Ni 3.9204729495095836 6.843971156065684 6.006129578976728 1.6073603653911865 0.7695432603577262 0.7201783367713532
Ni 0.7437291303130001 7.3050537185384465 11.398391158230217 0.9802479926385828 -0.41226199373449 0.25809273464651683
P 0.4631506905001222 5.499354369245622 7.892778019628127 -0.9311823454601835 0.3398039357740793 1.8004661536433573
P 8.483724417304462 1.5645379511591935 7.873474289322194 -0.6380045941850754 2.2934615579731727 0.05562170312936227
P 1.851263076626184 3.1398492806649174 10.511257092900685 -0.21440892060532107 0.0009520795006241669 -0.561584209142807
P 4.042405955481821 6.287271480000198 3.837478268572074 -0.7528200340657745 -0.31621534982086186 -0.49663994306093817
P 7.063856258887338 3.8337089384576934 10.375573830314114 -0.3345596566560044 -0.1075682713999825 0.7288321557916093
P 6.5609062746227025 7.661990618534959 10.272231438139684 -1.4961593823346233 -0.4960557884226941 -1.6232852641515594
P 2.3814755681041313 8.55171840850909 5.720485397496139 0.2829820416890288 0.19585481175221753 0.300387895870302
P 6.819909108528537 3.931652019927741 1.5450593224934916 0.7227059882892134 0.7774092933693643 0.7610421648652507
Ni 5.374121734424155 2.958820462925728 0.2912355197655421 -0.496113638243823 -0.24760777595479294 -0.5300984798296999
Ni 1.2857283287786077 1.1113799071522046 6.865818124891748 1.5270671276570733 0.7336174929953946 -0.04268879711777809
Ni 6.866356343040106 0.5170536437502522 9.019690523896012 -0.9201836803568346 -0.5621765913111674 1.1828313813638855
Ni 2.81185174844444 1.7060162996044672 9.102449001894042 0.10554789853584404 -1.107636641198602 0.10510104080641254
Ni 6.150345898136513 2.0261614363941254 2.537739138715355 1.8943785248228018 1.087138264134934 1.030801022995786
Ni 4.2739930207250625 6.716809230059146 10.306855002608177 -0.001559374067319895 0.386049082784548 0.1621805594282239
Ni 8.15042584201473 7.0584290005069095 0.37824655221215603 0.7006065852870128 0.1594904141905705 0.16695612643999636
Ni 7.705850439167486 3.834601461015272 8.08745612173271 1.1684087781806523 -0.06568757200579654 -0.3315311542423258
Ni 3.085306235479554 8.220240939851994 12.314316739114124 -0.032180955607918775 0.30274868279299477 -0.16778325032698202
Ni 0.08750417369812465 4.757704185415224 10.19833958575154 0.5012998104304529 -0.7777774753420605 -0.09229206196720234
Ni 8.497851516776437 2.540443752526199 5.790273449195295 0.29042718511316434 0.11765162377791351 0.19862029031249664
Ni 3.8445273937010715 2.4312584929824084 11.27983441183185 -0.6460470048735777 1.5780238212105984 0.6307206589291525
Ni 1.2549227774730893 3.2817874134580345 12.731131084268924 -0.6685472428586229 -0.5689216233444847 -0.5164996580993428
Ni 3.0651839087268713 8.325820047647992 8.039545691149476 -0.06839751473779188 0.2680331336886803 -0.35651482077085694
Ni 5.668987747461786 7.932442984240035 3.557851852820613 -0.1684486518251228 -0.22125165455876733 -0.4440459710143062
Ni 3.103075548216802 8.472337993160805 3.395950063951716 0.10379260640763414 -1.5155683829888544 0.23697780704477253
Ni 3.564861310280385 4.183577781028532 9.428072784726533 -0.739046891541082 0.7860417722333818 -0.6440775398520328
Ni 7.449083419345283 6.018198467338654 11.452463600612493 -0.5317648117885294 -0.5185652823791198 -0.1277185210956123
Ni 0.6222559086886061 0.051075730279860634 0.29281411269313823 0.18308928455643306 -0.43059164528161326 0.06680754454285269
Ni 4.773607314622989 0.5638858349608978 1.5591647850549823 -1.6457075977108173 -2.4710157716439896 0.4017826914697209
Ni 6.034354027168765 5.663244950803427 0.30422217374728017 -0.2380101049640288 -0.45029323747559874 0.6663124399908331
Ni 7.903756047086345 8.559381480973151 11.64623114940076 -0.4186396151260596 0.5583939843402834 -0.6690648059249896
Ni 0.04839004876569209 5.108663888889771 5.855746740328218 -0.3381190918724886 -1.6118788220868305 -0.5840348248368394
Ni 8.039753044874974 8.875541820081498 2.3937824624814104 -1.563228922289611 0.670265253990994 0.005323211985126316
P 8.22031306288695 1.6597403573009182 3.702573033225089 0.7441749567962667 0.8521700313210228 -1.2694181654161945
P 1.7812857019602684 3.2342583334221278 1.7061289918465856 -0.04362287889627326 -0.4499888188613025 0.1753050126253239
P 4.752601480692098 0.8873035544616782 8.293297066572588 -0.0021039337168802475 0.6473117305186142 -0.21262894588676284
P 8.458760831830366 1.476493756236837 12.29846950525845 -0.21986145907946006 1.7224221169547371 0.20102350043735057
P 6.25039857837902 7.781011656970854 1.2731879360756588 0.5354569159281358 -0.5107972083979267 0.6873463778429969
P 1.8133173448600362 3.219229696013202 5.848912181228214 -0.49969595627844265 -0.42145497308766766 0.28702073053477667
P 6.836867037122532 4.048356105865679 6.107308280102483 -0.6053862939294219 0.5596499682345716 -0.9232150109839906
P 2.233280762028594 8.409455722058672 10.094878190569434 0.3178685691535687 0.7088711392886501 0.8934614338706419
