# total energy = -381159.0391543939 ev
CRYSTAL
PRIMVEC
9.28189188640925 0.00000000000000 0.00000000000000
0.00000000000000 9.28189188640925 0.00000000000000
0.00000000000000 0.00000000000000 13.58498700377968
PRIMCOORD
 96 1
Ni 2.196114225650454 3.5736305446780117 6.710739274815971 0.8953877043590773 0.915943674133558 -1.180411201958167
Ni 7.217070199554234 0.6610526398979513 9.020947445881585 -0.03584297784053827 2.7393983182522885 2.911288391658793
Ni 0.2851118784680814 1.9967484660510166 8.901644502641238 -1.1746827841148222 -0.5869771952946149 -0.9801461769533959
Ni 3.8475763069955216 4.167198260150075 12.20347525844647 2.7994819138077465 0.5390438619484459 -0.7458137779512702
Ni 2.17013420976895 4.949104847451932 3.3653142565631993 -1.9100797376081426 -1.071570234493348 1.0108407778237753
Ni 7.171542518990185 6.057789726688135 7.913553677831206 0.7345078660201478 0.05268833153265119 -1.1879499335373733
Ni 2.7442563613711477 8.60764614071301 10.937544917598926 0.21084562873409496 -0.6023112545485241 -0.8900459804311897
Ni 2.219838741760895 7.500372109070229 7.9857992846956884 1.5078486457470934 -1.7521412412857245 -2.2812051092033228
Ni 0.8243656743502155 3.390359585914061 4.751566692399501 0.240943733671056 1.1553673716156618 -0.666076412720627
Ni 3.4734139560847286 2.927647984731904 4.60213194295832 0.15562398925662874 -0.8409757052671001 -0.0786317908712904
Ni 0.1731657628760643 0.9854491983291902 6.6343641541731095 0.1938040998707759 0.8714306793228476 1.5671547397065784
Ni 8.037988579192628 7.6043664277327405 1.686725845666972 1.8512253864740955 -0.08777386238187464 -1.1743194872381324
Ni 4.351610891637649 5.224981243318336 10.193821249672467 -0.2384968147924602 1.244314171259715 -0.9223871157660567
Ni 9.145076972994168 3.853275388721582 6.839334320199576 -0.7674668374446718 -0.3951204489581969 -0.20505216198076942
Ni 0.37731448145504415 8.884478571461798 4.525689064503407 -0.008941782574320083 -1.2213650186627094 -1.2232221264761063
Ni 6.738115287263598 5.570044862614797 10.109526818722317 -0.4470649603462881 -0.9008243019936164 2.020995842434435
Ni 6.2957960029416284 3.4644012388925383 4.895621657201552 -0.6849007445159817 -3.631348971905359 0.6745836788606898
Ni 5.885638474614446 3.985245330058926 8.516510027123969 -1.0240907008551459 -0.10959532913234028 -0.22810235893201358
Ni 8.043167874963217 8.534541958832794 7.679294501403137 0.9478356377461481 -2.5533545790532224 -0.5037300171385002
Ni 7.567842182468818 0.2842588725875847 5.600696454771099 -0.07700402545988029 0.23868039155817605 -0.3757489864101206
Ni 5.751153140528304 3.1238857467064514 10.63208620354176 2.950378929902351 1.65641778503947 2.3850203413187763
Ni 7.048427502679977 2.3814086368839176 7.269530525299384 1.5942917051326866 0.20576718576992303 -0.5624416720470958
Ni 7.792881655511714 6.178277967544799 13.16398865375113 0.9621430555077558 1.202366880293652 0.8082455620239306
Ni 8.33790507549958 6.464392290355575 5.461002122859769 0.2370503121539208 0.21841675621313353 0.967263921674089
P 4.079809246386459 7.412602537732071 9.377906738044691 0.08413549429833897 -2.0663477882066736 1.658949036101756
Ni 0.5103574095147534 3.981421190529387 1.7481023569268668 0.15322360734525226 1.2946381163252478 -0.226661512720429
P 8.242821373216575 2.6165375265981945 5.334375766782513 -0.8704796282634879 -1.5439029682674896 -0.21714200326576796
Ni 8.834179998377884 6.668890936265293 9.68511787332316 -0.8251492797578047 1.0019892409704163 0.16821879520250385
P 4.943470738970306 2.4399773757950616 3.0780183488929325 0.3232054079854499 0.321874090768536 -1.4241288988299345
P 4.137830353665945 1.9013027699775953 11.820324323262849 -0.41317010737105614 0.41254944306792174 0.5969343065073267
P 5.957480319174233 7.750416999328119 5.498074927944555 -0.1213594116468039 -0.4245863196277978 -0.03540331919995838
Ni 6.806986926363548 2.464825000845003 1.4481051081589758 0.26856895158749233 -0.8255825106404814 1.0140680265118214
Ni 7.929427569635617 3.55947565928348 3.289903524505579 -0.01463677607656834 2.323461189659057 -0.41879233865384
Ni 8.158875941407958 4.055332897018997 8.926627643315285 0.7205053810934688 0.5228975912058866 0.523116649195228
Ni 8.648235854700083 3.780561046307969 13.44296984251227 -1.01698828548241 0.49055182788532936 0.7366891899421829
Ni 2.6954800185854015 8.946026797724839 1.3117309090382188 -1.824927372009515 -0.7990831787983722 0.7454062581002066
Ni 3.7820832766061354 -0.023420998240013993 8.538096923492533 0.338707617386107 1.1876604273214126 0.4272193863752707
Ni 5.8661465012842715 0.3550203049113554 7.274584515527136 -0.11704330076995326 -2.453414770732775 -0.4490477951042718
Ni 5.1561281680025095 7.244637418978338 7.3654811563009766 -0.594337235204112 -0.22219344964674637 0.23736681495307507
Ni 5.330191489840969 0.3876526528336862 4.832166002119772 -3.9505624851225964 -0.8598391178305063 2.331944544539719
Ni 1.7862165903010077 1.557232313131767 10.63488469399845 0.14855859776941513 -0.7220210464070468 1.010652573072369
Ni 5.860029734415422 5.384119282721118 4.202203059683449 -0.21642132304965955 3.5831772972961384 -2.4466980208342317
Ni 1.96506008655139 4.851867746210547 12.767850495194375 -3.5713378814590495 0.2560523071777203 1.839539208385419
Ni 0.5191445767298374 1.4445594253912961 0.07096841851675305 -0.711891928392845 0.2029582555662182 2.7365366804337774
Ni 1.0953653641272505 8.916816683405763 8.99625018748305 -1.7781127256488216 1.8863880504181578 1.3116775883060379
Ni 5.531627111370229 4.47927403505823 1.8654635283478478 1.0274061383816242 -1.2660438496273227 0.17598738340432918
Ni 8.403333132644532 2.614541919804867 10.74156797679132 -0.4833558243575224 1.1356701502970508 0.6541912312472669
Ni 4.625352452329795 8.246589821393743 3.196276151087101 -0.5875204693925945 0.2902623774005259 -1.2197670780479704
Ni 0.3600436648953033 9.191514278980295 1.9139205740466616 2.760117295967195 -0.4499669644844315 0.3552927754382978
Ni 1.8213578336476939 5.80310389039925 5.665319771874278 -1.3056344674357514 -0.3027525394477366 0.3094770026557638
Ni 4.755512424715051 2.1568054127679352 7.332877582244039 -1.9039903368809532 1.8633478807692425 -0.5396928083863544
Ni 2.532090872618229 2.0020205807422258 8.181504266065877 -0.4671457902565632 -1.3946244616129144 0.5532319805233699
Ni 2.5528823108370817 0.463714045524852 3.3819826783281175 0.7746965224238915 -0.8383176988189627 -0.18656438758922708
Ni 6.662235819656848 1.426283379921242 3.7472696840492374 2.365807515835751 0.998651691956751 -2.684713525114899
Ni 7.355379673169916 2.004109006456173 12.803062280920733 -0.8987694763471166 -1.5002965444314484 -0.47009433136192585
Ni 8.790675770283348 5.0174752643805345 11.529279459388746 0.6634420604215736 -0.6796898897390037 -2.1642610530153954
P 6.70894230051277 4.313582979859685 12.289169398719567 0.4083981399037096 0.412837920842618 -0.4438989039134807
Ni 5.273015034739123 3.065381981039742 13.399484178201856 0.5153277492784286 -0.5968299197189786 0.7193270445146516
P 0.5201498056401506 8.074633489053356 6.439310761625672 0.5394305558639033 -1.4986898620659608 1.1296928496676932
Ni 6.385347697555687 7.792668171994288 9.453194949127093 -0.13183074349177293 0.5488392507723129 0.43532915996659866
P 8.222067062565971 7.840061512862799 11.390454840763624 -0.0016956425348680477 0.21074895525523063 0.8969568486184101
P 1.0116426977281199 2.93664213813997 12.435207903855266 0.8776239526177531 0.6294554190634837 -2.8450544602312227
P 3.843844986386603 4.939080404024986 5.078394178361774 -0.30933327798904786 0.7562897377819298 0.5571140891865953
Ni 3.4730798079704974 7.094177948653514 4.825618555459246 0.8479698771967461 0.25225298803628815 -0.17476585229240224
Ni 7.17320397766928 7.890768489197439 3.8200712762482327 0.2660225310165548 0.13440236087369112 -0.11235309438313552
Ni 3.572693073579751 0.24921323272913712 13.008834402421355 -2.2416728554366556 -1.503435347170746 -5.282609124003289
Ni 8.943641351464908 0.6897698857485356 11.689772655032577 -0.5629700337467402 -1.7699119350055843 -2.038715371201386
Ni 0.7466168336821802 8.597306112955955 13.078198909989796 1.0057492222334807 -2.2245804187307425 0.1324262109839268
Ni 5.67469819561371 4.896058834317672 6.375557157808702 0.6290165317538522 1.1034686258638415 1.3557059301708458
Ni 6.295860976186062 8.533418849893293 13.234576514693341 1.5945814684589634 0.9887789129277295 1.7228892863991425
Ni 1.673525138776413 2.548306338050522 2.7756170900809862 1.6316675746779834 -1.292575063148632 0.6723776723483066
Ni 3.8462211507544715 5.821955413177148 2.4984969206782766 0.7627462920405509 2.4438289268165523 -1.0116352487006126
Ni 1.1054640626906933 6.5649058994948435 0.9195171344452718 -0.27536206324992574 -0.5422939934546274 -1.0514302692103634
Ni 5.534987156296668 6.069336400413248 13.353621421334369 -1.5686706621304727 -2.0252173367149506 0.7294641329486533
Ni 1.821979720415847 1.3171283292722646 5.206650434685116 0.8680849027790664 0.879523483633311 1.1791806719851756
Ni 4.254095333634405 1.9714089007217896 9.761492993966021 -1.9727730028723056 -1.1494342939606788 -2.1946399224175686
Ni 0.45547729450904395 5.869283780801224 7.674512470612801 -0.2206047650033878 0.8203456877215743 -0.48549189686391875
Ni 2.4076763914193435 3.795300690902406 10.622603822611232 -1.2806615995404977 -0.6355016252575635 -1.3444103026523686
Ni 1.1813435302974442 6.6825260357043526 11.59148577179898 -1.8845605102911156 1.8730653651673228 0.5911506099460142
Ni 6.0310578775496095 6.908391597140766 1.9405066974798133 -1.1859511579397897 -1.0506319416787844 0.007399634898180805
Ni 3.134467103657118 6.8520597942165615 12.59605473958666 1.0903297744890383 0.5324628662968185 1.527698590593485
Ni 9.156140988332059 5.872476751670548 3.184837147309907 0.37029593371534936 0.7133613138495198 1.284267828834517
Ni 1.7084157710374253 5.844928096030567 9.673584194246933 1.6977906915593017 -0.44972759478011576 -1.1957023237892828
Ni 3.4250274527655864 8.981808491623802 6.308189185222794 -0.2787844586679134 0.6713075792125793 -0.8322380682837861
Ni 8.90311661072227 1.5451287258829347 3.2948080762711336 0.7682325119661029 -0.5549361076986701 0.6483769385583349
Ni 3.912577397105623 5.086857407543894 7.671496783881862 -1.8785983791704097 0.3966343144995621 0.8505101271200964
Ni 4.701120537231803 0.9608800300411083 0.9014128039783644 3.7049370297051545 1.6633011424228648 4.445840000618369
Ni 2.737879701524562 2.249596487711628 0.7529062437433832 0.08979089281190343 1.1039846462683116 -0.793024374198802
P 4.389694494767985 7.87891551303428 0.7393658196033553 1.3347712369007076 -1.0114449870666773 0.1262581345000019
Ni 5.556511863988418 0.3850722868404536 11.176016216644724 0.726508135644123 0.514230659559508 -0.431690791883063
P 7.875824642977638 5.208069635981394 1.7125916942761137 -1.366049478188699 0.12579096505559625 -1.1002179801370275
Ni 5.2436471282549935 7.420334353819706 11.694310572061683 -1.1556419654332872 -0.37847795530550943 -3.4173871661397857
P 3.497027089490426 4.495396681569903 0.7599419179263701 0.1412561505707309 -0.2138167955472769 0.7830307533211999
P 7.800483525110482 0.49587580151963995 1.3405270509713298 -1.8557818954965266 1.0094976335323196 -0.9855416369373543
P 1.2580676500818357 3.90261792692311 8.686784480622725 0.15124205813884922 0.4909570337435481 -0.020940349697092967
Ni 1.5981468933410095 7.468590910649982 2.8677769963644635 1.2808307781285104 -0.08780394428886168 1.9231113739811203
