# total energy = -381168.3432681801 ev
CRYSTAL
PRIMVEC
9.20605072647463 0.00000000000000 0.00000000000000

0.00000000000000 9.20605072647463 0.00000000000000

0.00000000000000 0.00000000000000 13.47398580006109

PRIMCOORD
 96 1
Ni 8.814664865120342 0.8548453490849927 6.207020563857044 -0.9168016512584791 1.0949184223009851 -0.3978172790640697
Ni 8.009687773229576 2.0479044378463502 0.42847814827974784 -1.1644271678250848 0.14209021643625205 0.01534974298319292
Ni 5.769892410138817 7.8284482488922755 5.608155904662114 0.8573016961206332 0.532723833267689 -1.9963443624343422
Ni 5.074007021574967 8.19782262970121 3.3641717884056366 -1.431990303855882 -0.11185404325952993 -0.858185127166851
Ni 5.072009308526701 6.163773298479924 12.349245258963354 -0.4046253031248386 0.5172115965647028 -0.23785763854656455
Ni 6.105158372312626 4.980326247477524 0.8528356681705398 0.9978096556714301 1.094330153897683 0.8329816313180299
Ni 4.188633487055173 3.0584618526901446 1.7937778466102994 0.7782785833481951 -3.5179607513894897 0.016762821280635644
Ni 0.9515558345381226 2.7880433131521825 5.232905301554988 -1.1406246660888484 -0.8519779699148747 1.662908534970136
Ni 1.4750303015908763 6.333450022869663 10.50228497682991 0.8428952908873161 -0.874396446819391 -2.1501073872228327
Ni 3.27494213992495 1.5201951873733113 9.21434740674724 1.1929928952779194 -0.03137851431128145 -0.14140193211997582
Ni 0.4605170466694808 7.45494955727402 12.189268029816251 -0.28718682379899574 0.03299805219257543 0.22478872117774834
Ni 3.322178387162959 8.736781674390746 0.01706617718375004 0.18911080816016462 0.1532881420346005 -0.12483965688592048
Ni 7.544736171834983 2.3769471096025234 10.23876084882119 -0.7197124528785284 -0.5172355078241029 0.20667915606123116
Ni 2.093023293374217 1.9148493839911667 7.0412756594685355 0.37356303450239536 -0.4246837644376105 0.668507390759623
Ni 3.343140565093372 4.453675692859555 3.4306385553971985 -1.9107929616250834 0.5943081817383893 -0.9759352241958417
Ni 2.1304919205928288 8.691515522048261 8.978040047659679 -1.408256450574052 -0.7529354765977162 -0.3318810813825768
Ni 4.571117284365165 1.3016711568356725 6.963639190903425 -1.3383535549353274 -0.9251489947819098 0.397361936694206
Ni 7.8729687111107545 0.10978952198617233 4.134815834018986 0.7219670532406598 -1.4949563631654579 0.111562223050724
Ni 0.04938678073144108 1.926587098906088 8.479421918073818 1.337845247840341 1.6621372040217506 0.3746076737168258
Ni 5.3114771048929255 3.9279917735875225 12.47003969421172 -0.6874245393791 -2.0217674304931372 -0.985374772342187
Ni 5.8904824710569 7.080336933495211 9.383418372986862 2.0438773750182992 0.19112192505292247 1.8351007129980912
Ni 5.218008069966497 3.3277204298129845 9.912636495204652 0.1877895182455798 -0.9878355751778536 0.8033663795547583
Ni 3.751355274707054 7.578614439197266 10.758505944648821 0.263939680345597 -0.21969125205018292 -0.9420974497107906
Ni 9.10657953354171 6.471117308232592 3.146432113405842 0.9649738400883316 -1.2683470438392026 0.07559069005212142
P 0.7459994473174708 0.9403060403216253 10.299083497432974 -1.1016814520564315 0.5782210463685398 0.11521267531911772
Ni 0.9521818460002518 0.6063473373775558 12.766426662166946 0.44140030586134305 -0.7624493296254224 1.1979893200512464
P 7.767577840251131 6.713227241211037 4.994941773908057 0.3719098151696886 1.2472141185153294 -0.7029097794988927
Ni 2.2126283068445374 3.479822803008539 9.72820431241049 -0.12141726146793282 0.7936550658042654 0.46941530301703027
P 3.9673200230906946 0.3477521290280123 4.718845862771637 0.6370414589408576 -0.28438329291192954 0.811919154220776
P 1.0252870963056564 8.911052218186404 7.188479492972928 2.29114525113517 -0.02291264293211538 -1.0249959862782347
P 8.304870589725294 6.58553931503852 0.4126152019504137 0.8852552439107658 -0.7929588110681892 1.422918166351285
Ni 1.019873938368422 2.8253186133016075 0.7164130408911379 0.908489788958674 -0.34997804809360367 0.3567871005956371
Ni 8.631059385698231 9.027711295364352 8.490780343691096 -1.4709047215328925 -2.472194879553755 1.4571012399908971
Ni 3.423629068231535 2.5653121173469993 4.753312396787304 1.802629222732947 -0.5314688778146655 2.97551480573803
Ni 5.635751042275821 0.6130548660732512 9.65661713990075 -1.2157363596220223 0.06615705544304736 -0.08760776911765557
Ni 1.1562984068580064 8.334320746598104 3.3915367747465024 -0.6224301367855861 -1.0118321952027671 -1.2151452630052426
Ni 6.274337969953027 1.1129931433601319 5.371013556756681 -0.8081640580537179 -0.3274958078306876 0.548105972150714
Ni 6.885463247754775 4.763873578395459 10.7702694365063 0.24891235369882936 0.9811759037694909 0.41029561403673853
Ni 4.070326526763679 3.6966437141271498 8.043713337406478 -1.9881883089861117 -1.4972721557828277 -1.385430196708156
Ni 7.147808080641454 0.28726100968450985 1.9706380525279696 -0.30967189227538927 0.8975440885804479 0.5543321555660841
Ni 4.052448375889344 5.348365750903977 9.448646005525443 -0.3703357858143493 2.3583813985750095 0.564103376020235
Ni 5.457890138623836 3.515450220044418 3.828997266902712 -0.12337001431892947 0.4557874278209505 0.899322006416477
Ni 0.1162807084853967 5.0969853246554715 5.780367054868384 -0.6446876626322059 -0.40940138435724327 -0.08279826354415418
Ni 7.521684220347169 9.035913886728427 10.728405840581505 1.170365644796707 -0.07212124344628223 0.19903603769367656
Ni 7.9159517628266505 3.557107600428747 7.449780359685998 2.8587802944577474 0.44324044439387533 0.1008198969325554
Ni 2.4494631726494536 2.8724535939795666 12.270947795942643 2.1537704378967164 -0.9031259535435994 0.1134560976393272
Ni 1.1127537860363765 5.0941498609740625 1.3915802118737877 1.8042099369565057 1.7771675881267328 -0.3993262595094284
Ni 2.7324295595827395 6.462749007952072 12.506756187070687 -0.5332789344402106 1.0204430768002297 1.5792540940732736
Ni 6.098124949414587 7.807476864910949 0.6557994810704838 -2.1166521928881803 -1.172711262210748 1.471489133281453
Ni 5.520804290567814 1.0698720008805305 0.42582772622170406 -0.4888412729521258 0.7310322487667217 -0.4158905916260128
Ni 8.917505659876882 2.001579589648794 3.120400163237275 -1.3766838179740934 0.42968533141726 0.7320488629566941
Ni 4.468037132284871 1.7079433897065717 11.535133002750959 0.6230880820845591 -0.5426189808942139 0.3942434456698823
Ni 5.40973328629446 8.5735675977424 12.004297293043644 -0.695342508674596 1.4133001836455465 -0.4318622844639208
Ni 4.1960627701424995 7.989673818543271 8.421982604608194 -1.7374566426903562 2.4719742789025165 0.2470670729599745
Ni 6.332363708861851 4.983216947464413 8.479098785686746 0.2275295171476791 -0.4498582068207091 0.06559244118882897
Ni 9.005607567120645 4.025714004036065 9.887668764521703 0.8196445478894916 0.03673335086529157 1.5662831357349025
P 0.7178436612031213 3.9386431744946315 3.6398083176014633 -0.6428732351312865 3.146052478881698 -2.2433864956936524
Ni 0.2672590228643924 0.4872532597329433 1.6127684735458407 0.5425444189025367 0.7117222355842 0.44502530420844005
P 6.899042172852429 1.5301561344618955 12.063636735417846 -1.3028949570174013 -0.5193859785082023 1.0774246363915962
Ni 1.8634335896383543 6.2732332438433875 7.7423946879768035 0.12176616016691932 0.6017702944433895 0.6951918420293447
P 4.740655917991199 6.13328285785387 1.988760163751517 0.40934379164643053 1.7425787944082698 1.717595642100371
P 4.519591017401389 4.683265396595417 6.195176979356615 -0.46074862848096776 -0.6329199805733164 -1.330700923486076
P 6.4722036222404045 3.1576018149793907 1.9525288297757015 -0.002312707293576662 -1.3674242470490383 0.04019045617595659
Ni 0.9686054408302281 7.830482786144196 0.8305422952780114 0.40897818077689563 -1.820730303209032 0.9909111287793837
Ni 2.4899421785168334 0.2620493186523501 11.138001457832237 1.6036168391883543 -0.13196341241489531 1.0732905596185645
Ni 7.023333066237805 5.212466027316471 3.5194051395169277 0.2172031955210066 -1.098521052050579 -0.7908137397007283
Ni 8.026498022197925 4.440575482409412 12.995201630396949 0.3287116825156597 0.6027943648325296 -1.1605895392465495
Ni 2.137746288712796 6.183566307944302 4.509877713082382 -0.0200368640462171 -0.46281990918769966 -1.0895286187439814
Ni 3.3331796180047872 7.371800505421809 6.126661866036763 -1.2300427489423655 1.828315571755458 -0.9917603641535564
Ni 2.387699777069683 4.506085740711044 6.275415077909926 0.20283792793827002 -0.8880394915241222 -0.12508673989972005
Ni 2.7542755184008634 6.920952574026948 2.070695858093308 0.22576034106239828 -0.09124356609802994 0.41493336991906604
Ni 1.8123123889147787 0.5408343172606497 4.842321100046062 0.28814147440278115 0.4819689713123247 1.8432225707742773
Ni 8.498087186301271 3.99236048157586 1.7241451187095287 -2.0092032206748813 0.10952590934698557 2.2336368725060565
Ni 7.421623652966557 3.0334858365613746 4.932382054924253 2.1866728450516923 -0.6280590529365893 -0.2534459799031248
Ni 4.706492263050592 5.944347074952747 4.412770446834872 0.5728371563488069 0.6261582363694507 -0.28563490593084356
Ni 7.918952935424506 8.91194520512503 13.286725041654485 0.9268469513096232 1.6935820527945928 -0.18650936598157555
Ni 2.0255337341261472 2.296578285126238 3.1811002599365175 -0.026924078084353632 -0.16479202890914202 -3.154382338903632
Ni 6.731473634121919 5.03308612526373 5.834909224111477 -0.3892953576359876 1.068448915255547 0.3995306622107506
Ni 7.141253372390924 7.11448217633399 12.238071146919768 1.2319605347903686 -2.713865206978191 -2.986872396842695
Ni 7.409333574996816 6.856961314126072 7.230100049153603 0.22852273429888384 0.6692779503770603 -0.8593290109633072
Ni 3.0349127744529922 0.2019982485425208 2.471452745861831 0.2533925009573701 0.0017984866613194833 -0.35935460421249726
Ni 1.208404655029344 4.728918203076277 12.291562905753612 -1.1183504280716803 0.2954133254738461 0.29488984887020825
Ni 8.7757600939592 5.734476732273952 8.499188229990544 -0.10362239937835702 1.5599674779295198 0.8470000570843091
Ni 0.20485580674612203 2.4922252791434225 11.937816716975712 -1.5559215899949206 1.2996386548636325 -1.9897664521065086
Ni 5.918293950867079 3.207019896283938 6.844461338195498 -1.4761202042955612 -2.5262299549222877 -1.0335675299973295
Ni 3.6063783849186755 4.792550426991522 0.8392622667034337 -1.7181039491953574 2.1874392909040714 -2.0904212842161094
Ni 0.6488664041274036 7.4055498880713 5.72457102149085 -0.8841404135800321 1.1622327312769274 0.18669654229171717
Ni 6.993928939619562 7.319556166486766 2.7610088240391177 0.8106186902417974 -0.1063804217394684 -0.19499014975907708
P 6.907576182049396 1.6756393570505255 8.260550819416734 0.003267357897362115 -0.29957054217532925 -1.084298994913926
Ni 5.009739580146679 6.455310518813832 7.191241308247028 0.8632540570493262 -2.058293293333313 0.6887486575071622
P 8.69972731946325 7.198653099837618 10.34427508076306 -1.1704767164532743 -0.5930948781565786 -1.415982101353084
Ni 6.314264612765587 8.843065532188996 7.501911464194802 0.40037064161354274 1.717347530645307 1.2453143303894554
P 0.9200959967508592 4.159164918080536 8.02666925474492 1.0719713265865087 -0.6033777481398254 -1.1866468984552339
P 2.855044951701828 1.5804948208578093 0.7238358797428252 0.18684360939254274 -0.17907219297723997 -0.13534184196882498
P 3.4430354235575384 4.7734478713456685 11.36642567552243 -0.08714959853431443 -0.8124624283187555 0.7447341717338464
Ni 5.271532049978538 1.3085941071227476 3.1963390360139052 0.2512777686072124 0.07832480115383286 -0.5799938219982462
