# total energy = -340895.4321780973 ev
CRYSTAL
PRIMVEC
9.03757403242609 0.00000000000000 0.00000000000000

0.00000000000000 9.03757403242609 0.00000000000000

0.00000000000000 0.00000000000000 13.22740312844491

PRIMCOORD
 96 1
Ni 6.4320686138938274 2.0428261413521076 11.549467529522854 0.6114618106995404 -0.2447116853539205 -1.3414177956829478
Ni 4.768368706873802 0.18665030702717994 5.776486602261992 -0.5973102017895068 -0.500198606946474 0.4309384870980707
Ni 2.662008419458416 1.5450275212509055 4.7523812382556025 0.08116021372009893 -0.7340237272948779 0.4304502346077425
Ni 3.090642484819608 4.291446882989694 4.696111494269943 0.5230932521564604 0.2910141679648859 0.8477436201185529
Ni 5.057715679898259 4.471466321885064 2.6592501518370057 0.2709629057409656 0.061772553222106515 -0.528952796261031
Ni 7.42605716590288 6.22593058579179 2.5166851313669634 -0.49376827794009803 -1.0349536117115787 0.18372331859600616
Ni 5.110458962462312 4.745684395832717 11.600882288691272 0.6278621064344347 -0.6090516585961511 -0.6169578008171053
Ni 5.801200752450418 7.82538237839306 12.637434199775662 -1.5286776666773028 0.2906177038574156 -1.4666192067836614
Ni 1.9039638149990101 6.329049306500469 0.24192501410223238 -0.16551939399346977 1.1453220715645178 0.6128671756874994
Ni 2.937229664133384 1.6618743170477945 0.4789480480018016 -0.019194570650579845 -1.1718571417405688 -0.5661162926852057
Ni 0.5478197853403252 0.20923610851035773 4.755198250108792 -0.6867203142232238 -1.0206940164687712 -0.04457958638258774
Ni 8.504989877065382 2.4156893368190615 1.3892215509377175 -0.27592513484224734 0.0954275222723905 -0.3225531191134316
Ni 6.96529452454525 0.7036311781979852 4.816309422550511 0.13763423754742748 -0.1544677641649985 -1.1057905891287987
Ni 0.786898867352184 7.323679526272039 2.5491987080209104 0.12027877698811543 -0.3170147057937056 -0.07928150864014732
Ni 7.517273401495578 3.8238337604491397 3.973485142786639 0.24106483262995254 -0.2447096284713915 -0.5579059889602714
Ni 7.63766292634749 3.837471459796151 12.636600935441802 0.055699093334516975 0.08123786103556976 -0.4634441730352599
Ni 7.701965266210965 8.714327206405885 7.007322859232686 1.0916785752074487 0.4244001717589207 0.6886278156585818
Ni 6.939040371726784 0.6982113449982487 0.32515836047477537 -0.03066503318402461 0.45399922557227623 0.28565753163866286
Ni 1.8458974012783038 6.472584058673583 9.19834985227604 0.2551153971857477 0.26274900247160554 -0.19043209807474945
Ni 0.12045821041522274 4.753619385910037 1.2526023504811927 0.14368352906530096 0.14499941966324703 0.8298004053765708
Ni 6.308082134542175 1.849810670872244 6.831940599618266 0.6355008539266152 0.6006148406827075 0.7321324238094359
Ni 3.444373135874619 4.384669460037023 0.34600262142503796 0.2747791941632623 -0.4673419654277693 0.27687798567381994
Ni 5.88401204411156 5.582265519394526 4.80284343711178 -0.06362117639507107 0.9052604833880991 -0.015045067258580543
Ni 5.354880154536476 2.747793073005022 9.284393884199888 -0.43309949930513153 -0.33336640767885173 -0.28010754835471113
P 0.14701150693706042 5.447424913524808 12.367687917502561 0.8504954718320772 0.9065509200647484 0.36852675763006854
P 3.9599305891215315 6.274534659408904 12.586337563216265 0.09184391868619021 0.8785166396353515 0.446500860312702
P 2.1809202739050093 8.539974326483726 1.5202121502323351 2.394691288749637 -0.495353877259663 -0.6910173989366809
P 6.442470861705895 7.670550658570004 5.689199000139237 -1.400904638194671 0.08775612177006177 -1.0040396957415416
P 4.824555305177558 1.1159958026284353 12.694232641847337 -0.20847995671539582 -0.914479945103838 -0.557647335982246
P 3.9094467000874666 6.209780440839432 8.454545753357447 -0.7449434595311751 -0.1905565394677557 -1.6595254774305161
P 4.53141255102272 0.9974499428969951 3.7428390211861093 1.2713061264675267 0.585659504924456 -0.5398511883410897
P 0.17701083047083668 5.444325025601663 3.49753666563525 1.0588350463148666 -1.1372400658873318 0.7042012446168067
Ni 1.3030283990408895 1.2490921566930022 2.4334454586925363 1.2659024389534521 -0.023770620057036482 0.37263358070959046
Ni 1.7845051602814541 6.486745937319551 4.716362890357938 0.16018718314727895 -0.4530980539142455 0.11698493672819207
Ni 5.852995089731877 5.620123917383014 9.364816545021126 0.7058799178708102 0.2891002387716247 0.6245145301184405
Ni 8.81391223563366 2.38644374696689 10.16483616248066 -1.047686743007531 -0.6703007352146199 0.5453294378468415
Ni 2.2040383885038524 5.103219865592229 7.109054312313951 0.5548746583331153 0.012391945906449627 -0.22215745420248836
Ni 0.5594556620197664 8.977221199981235 9.08018899320211 -0.14518042532580158 0.5412447262545066 0.23302345038271483
Ni 1.6862305793010712 1.2200363558973493 11.431558818766868 -0.39014099346573455 -0.07725907889347984 -0.25992593120051366
Ni 4.171644800455581 7.014269138701283 1.697936045301236 -1.1718923658538785 -0.9522512503153406 -0.934934613413764
Ni 5.542464042970247 7.56059953182664 7.911084790015176 -0.5650821949937365 1.7540549133686694 0.32599608335670954
Ni 5.125226358574317 2.9721237378105276 4.61498842145441 0.14194777732111682 -0.8232988568126273 0.5181431072400366
Ni 0.8077593959358624 7.43193158908085 7.049161404863603 -0.82188475007392 -0.49672324680336394 -0.005602433788441965
Ni 4.914623768857023 4.516211351352958 7.4450044400453645 0.661899398524802 0.6189002692554567 -1.23160777943664
Ni 8.07087000421338 7.126036817842758 9.135823395727137 -0.23147436072804006 0.5532486926939182 0.6599286479516764
Ni 4.578688101244201 0.4369630936701419 10.457135710970105 0.6979704332157464 0.3353009056974032 -0.16478688670281944
Ni 8.332742751913175 6.99696218426157 4.708744215374816 -0.5738900230933536 1.0127485363694493 0.4587215707486099
Ni 7.214812908423069 6.206707665638648 7.017653710209205 0.6341805924532948 -1.9318937481594407 -0.13732519094744092
Ni 2.444094432278078 5.219307505163042 2.4296623301659235 -1.0813864492528213 -0.2882728577743229 0.34567582117382406
Ni 2.503778571766256 5.144892119859337 11.31483945276507 -0.5295546915110879 0.26461690891827977 -0.04803386347977534
Ni 0.9890359613913177 3.259319768194435 3.938657947157983 0.12694281927185233 1.0982832250081602 -0.6538981254868803
Ni 3.4136001959961746 2.765081952296495 2.795836817026699 0.3337736704195994 -0.37684967567346705 -0.6225550923992246
Ni 0.9536448211375766 3.1814339544286687 8.273767158236002 0.08862541174889253 1.2972935516702238 -1.0014462239827528
Ni 3.923979119272353 2.4728881434242527 6.938236027630108 -0.8847626205450633 -0.24442809267523063 -0.28832119451375504
Ni 3.8760257509918756 6.8694420134290155 6.085385463137557 0.15344472221712283 -0.4528273167513621 -0.11302492363917954
Ni 0.961272533694818 7.268224971471999 11.273807962503065 -0.17153320428771748 -0.02544235133250457 0.3714958675607215
P 0.10380648009920697 5.566422651962246 8.136876830555877 0.42584410329429884 -0.839274406305277 -1.2216159583312511
P 8.434044920223743 1.6136769342660782 7.865370932601622 -0.4073149341418598 -0.2922336421942838 1.0814599828032343
P 1.8984780075081977 3.284272510339629 10.307638871150058 -1.3300663752258706 -0.4650336290095669 1.1518483027188098
P 3.996975605439224 6.0398830849584115 3.7402868102546343 -0.3870399859429076 1.0738045231405056 0.6110257516033865
P 6.898561077243508 3.8841776428480745 10.323036186178225 0.1633100450469768 0.39081976470031404 0.6931403588169547
P 6.38037368992769 7.863385377567468 10.403498612325588 -0.46532390655647604 -0.1670671980965639 -0.47514680618416877
P 2.213835118849883 8.388576884826252 5.78866925217569 1.3688797485486424 0.5060200987242575 -0.05996455347909028
P 6.910499712655968 4.113316297085396 1.5869175810543057 0.7344001367976901 -0.7758301218077026 0.3477550723003559
Ni 5.392060734465968 2.9871080357014117 0.36230369386519956 -0.20255150704610278 0.49139334995001815 0.4799226303062573
Ni 1.440535089275994 1.1253677669908282 7.049849164254131 0.013814537285589111 -0.22729734653221498 -0.6730073355125054
Ni 6.939673001915181 0.667688745922927 9.253468209318818 -0.576717979460452 -0.16250657530907495 -0.05547977823485929
Ni 2.8615851687493667 1.7767418841124134 9.161471127322155 0.1154949824462269 -1.4336478940639632 -0.2924012781203997
Ni 6.204945338685256 1.95732165260322 2.5012625111312614 0.6225990582632827 0.30916975582799017 0.6847274521629112
Ni 3.991507873096652 7.106063779037658 10.434648419044835 0.9795967322078291 -0.6388638568615772 0.1666977305722871
Ni 8.268829027736857 7.0882959083178285 0.3665974453295898 0.08181224548180104 0.22422436403384607 -0.35544652740734267
Ni 7.491660916439628 3.848461149926015 8.146268677581334 0.2734424776297097 0.05388569427486204 -0.3910298238285911
Ni 3.1365714364972157 8.475708136916731 12.22959378494966 0.14023670816728107 -0.2206525875221877 2.0002768647195293
Ni 0.07648679729199714 4.837506148891453 10.25951830774836 -0.16782644486009163 -0.2472272526869226 -0.25249827127787483
Ni 8.676992987716353 2.3570806686511583 5.841300468820656 -0.29053774254909964 0.6430879222452537 -0.0040577150091413985
Ni 3.7044474063245434 2.8192622091456205 11.530935983789886 0.3070246844605293 -0.5393552225412775 -0.22885723482016715
Ni 1.1529685183531684 3.3443904533855644 12.504089312422796 -0.4477193061008354 0.44423828953077044 0.10778270140363372
Ni 2.9942296441079357 8.609283482409655 7.949140207119479 0.3658206715528151 -1.388115713960119 0.06264287164220178
Ni 5.679338103016955 7.699398595160898 3.509573810605617 0.09404863964699287 0.856769220655931 0.9557075842950573
Ni 3.2533097814046656 8.230365112282332 3.7677203664957557 -0.6483980216042574 0.19656906421042275 -0.4685146455796318
Ni 3.3360035846022473 4.198332756831806 9.12846952166573 0.5847825016361413 0.4331987438871572 0.025266230765956486
Ni 7.296539691189815 6.149291957254578 11.454402191112464 -0.2159947770352022 -0.3621658484090472 -0.17395004125932623
Ni 0.4825206010514195 9.140692840662966 0.35755625617998754 0.4675677082853302 -0.30260007303027237 -0.4842469687132241
Ni 4.66002626832379 0.2543778874821174 1.6334258412330023 -0.3983209581733656 0.5792983385931185 -0.29013047980835194
Ni 5.873401932094733 5.697684378480462 0.5427903753425707 0.28331422821746693 -0.11433592914111922 -0.3597814073372707
Ni 8.204110959463865 8.763184332098357 11.442325280815972 -0.7871126367000574 -0.21021879378337344 -0.5882174954596192
Ni 0.12206328357892662 4.953629938758746 5.885797868757662 -0.391903484682796 -0.7193692106064965 -0.04993416582628174
Ni 8.143405574100132 8.943981002368043 2.3834721925962485 -0.9939679133278365 -0.02348291361328859 0.4485741979019629
P 8.560760746959621 1.6934516010229148 3.54381989021836 -2.0279483624928685 0.6476215484495492 0.7896099492006143
P 1.8338955028470043 3.1906251673086623 1.4069460413017718 -1.0872495929018178 1.2185712579676562 0.6729767393848861
P 4.74300023631909 0.7710578074347281 8.09621588083279 1.4992722169319923 1.2049822064293119 0.3587501378592789
P 8.66557853160285 1.6004459257544652 12.29901139176503 -0.6846006967770597 1.2411409157380562 0.498381094121761
P 6.3958731295434115 7.845879596497117 1.4444194386327502 0.5824080878666937 -0.19680252037746748 0.46319349047703456
P 1.9261510594634978 3.073597620029374 6.112303877653841 -0.9344350480695262 0.9905473176820616 0.37767011469223344
P 6.460826174743522 3.975665005664372 6.022873466707245 1.577889352515263 -0.8025150872980565 0.7306396413139933
P 2.403823001999562 8.643029784173565 10.145748805939316 -0.23600593004980644 0.01660958353222301 0.020641330399435418
