# total energy = -340890.4755173133 ev
CRYSTAL
PRIMVEC
9.07016229775699 0.00000000000000 0.00000000000000

0.00000000000000 9.07016229775699 0.00000000000000

0.00000000000000 0.00000000000000 13.27509934882315

PRIMCOORD
 96 1
Ni 6.255827087288271 2.1536828608850587 11.643257775232087 0.21426391038702455 -0.0827193306771027 -0.8641783686358084
Ni 4.542754577412383 0.18808342343656909 6.180740654545171 -0.024134431154358434 1.3521015006490391 -0.5619940429867161
Ni 2.6086875596864707 1.5115335004596147 4.700447514577567 1.724766191706881 -0.5502263609278266 1.1419863223230657
Ni 3.267389966564872 4.17592999785242 4.8609966458951 0.6947889501639711 0.9656986340694982 -0.34238583756864266
Ni 4.944517422691134 4.531906663134171 2.802506046833837 0.5695939668211609 1.638728595289823 -1.135201181080432
Ni 7.361216854010626 6.222539591133558 2.379508137250613 -0.34344693184330527 0.26009279579568106 0.6024251544185689
Ni 5.038928743528848 4.542001753929864 11.763277792702828 0.3657836476672926 0.6043514249070043 -0.5901856749295836
Ni 5.811325636592352 7.984962854845358 12.226698695232294 -0.2974545242735909 -0.505089102269556 -0.265291309277485
Ni 1.995698771505551 6.362474057257513 0.2933081919352224 -0.18501992592024266 0.6738758541603879 0.4896506562272987
Ni 2.6808588422213626 1.7572986219332132 0.5880775870395251 -0.26293669300237943 -0.5051240692725494 -0.43073125618327107
Ni 0.7163215207945943 8.943987410273815 4.607946369949713 -0.7925302081712029 -0.6016936755691832 0.15151768039773905
Ni 8.774366302483818 2.3658339603561047 1.696863222579407 -0.3261940583001286 1.2835443204049315 -0.6219945919100642
Ni 6.625726451915385 0.7069547640428306 4.58527277788226 0.44240200765298 -0.9339046294873529 1.4610656239552837
Ni 0.6854856895474067 7.329979214567348 2.2250260375891804 -0.8281579846771414 0.6051641506162869 0.8796553812254849
Ni 7.753855115874762 3.70473505909565 3.8568806849125448 -0.2543492084436845 0.9627182112849357 -0.5468661862063421
Ni 7.525441215148837 3.814756129492563 12.837538761931183 1.3820648797803488 0.35782814026564186 0.08119800893656984
Ni 7.9695345085349585 8.901874646065005 6.441875166273309 -0.4280004875156693 0.34089125530098713 0.02826053750759004
Ni 6.706659511367294 0.7064150893776522 0.22563298892182707 0.6536708399674226 0.3475645535561046 1.0349993773478496
Ni 1.9656221128545892 6.491052680006617 9.28862727952184 -1.246725351804369 0.05949969802752979 0.40479036794779316
Ni 0.12182497979629801 4.844029093018636 1.5700324201324858 0.17956353079136173 -0.729651309258795 -0.9711856253259984
Ni 6.618216357415085 1.8534514139594023 6.930664406131146 -0.7855285800423891 0.5262299980132292 -0.5124902798296336
Ni 3.309847396946401 4.529221895051938 0.8661723955141751 0.4120151678310065 -1.4604377605632974 -1.1164393270918966
Ni 5.948765808045313 5.407512934602166 4.702093749060423 -0.21158173556917112 2.160113606505925 0.3738101175161949
Ni 5.162518776935965 3.0064504633291924 9.516467945981557 0.42853990495890715 -0.2722006348028086 -0.18999963852302115
P 0.3244233841855612 5.384247967943626 12.587688439294618 -0.6319586451013116 0.8032779336060101 -0.9509464154609881
P 3.9731755866691896 6.19479396422967 12.611862236229644 0.3360511535998664 -0.13572262234701143 0.719322159418645
P 2.1372205160565017 8.412575663078043 1.1925921224527751 1.2385464155380024 1.3242520825369388 -0.3016245964908805
P 6.17959237198027 7.6427274856601715 5.654183258287274 0.20678945638685034 0.5030407043809595 0.2851749355752895
P 4.632512904918388 1.3212142819815913 12.940938613746914 0.0764941757029973 -0.25427618911390404 -1.1943301260321044
P 3.917239894901855 6.136890047212862 8.476602846758079 0.5934445481865135 0.43808641099676165 -0.9795062293765517
P 4.704702327778159 1.0702338171050065 3.7971563862940325 -1.0024798074535897 -0.4654380635368371 -0.4836437879115864
P 9.290385984018952 5.676851408257263 3.5366858104565004 0.576895899799213 -0.17716443443156585 2.004625371496212
Ni 1.4293487585909892 1.0822608525004151 2.692641890247136 -0.06261793194153732 -0.07766762718580818 -1.0620298991030805
Ni 2.067770282253603 6.6597758417150565 5.03091797606186 -0.5086685920906981 -0.46374936298050456 -1.2441807310056443
Ni 6.106078705404262 5.6288158279751475 9.309309970933716 -1.1008237320418268 1.1647562690297295 -0.19867428347888366
Ni 8.558178980726982 2.0937109468319353 10.058383848299068 0.907735941511785 1.001634942954791 1.1294737916783515
Ni 2.1841767470082587 5.136296937321994 7.143835898876689 -0.19126847793311574 0.15076383295085002 -0.38541967673066524
Ni 0.8581008579588402 -0.18698139870011196 9.097863623084256 0.30525525126493236 0.8956795245678832 0.7729072917339528
Ni 1.32556795995278 1.080764275697819 11.593582309580823 0.7625537164137707 0.050298748254552085 -0.6678484170193854
Ni 4.301170800823614 6.774087098946079 1.4403218411108725 0.02397836519246838 0.3831851309731917 0.32479717795260193
Ni 5.771670886404775 7.709057583583719 7.902454308177625 -1.3229310497326698 1.678572209649322 1.1773024811258566
Ni 5.472019929875278 3.046204985303609 4.608982182500358 -0.26135186501376284 -1.0889593765040728 0.7649386717061795
Ni 0.24085453552859534 7.059597672231654 6.452468208986958 2.039577976311997 0.0033797151055103085 2.506687771124302
Ni 4.795231619091563 4.666126926920941 7.200135304157866 1.165234751328045 0.37082172431183236 -0.28778331973241406
Ni 8.222963917270338 7.574937091583789 8.592759882045636 -0.6816177028893358 -1.02863306881019 0.38385233224354537
Ni 4.934921190829639 0.27850750086566906 10.545115068299271 -1.5059730259909354 0.32597654297268375 -0.2877673788928141
Ni 8.035302256387228 7.104494976309536 4.670352715601726 -1.0141490162614017 0.3542144547724545 -1.6448167104654319
Ni 7.001775386676805 6.0410819213593925 7.039838323356165 1.3402078345352466 -1.3513923903971563 -1.2057625362387623
Ni 2.3895161544868833 5.6600443972559855 2.711054320000288 -0.9433716884375236 -0.8255858530745911 0.18383824690731565
Ni 2.3729177572217264 5.111843779383817 11.367600119405058 -0.20840950848877654 0.33510884429125515 0.8712193346429898
Ni 1.0164658941608269 3.1386934317040476 3.994464164932058 0.06390219797059962 1.3100534224390534 -0.6428593511742156
Ni 3.7071658626295636 2.707869785967612 2.625947171793502 0.04763251427629861 -1.3626036857319435 0.5445012855185912
Ni 0.9236690622374291 3.3062556126201703 8.37387962906037 -0.08288233861752824 -0.6016275982179381 -2.0188520566185555
Ni 3.8797257030501133 2.644142824664338 6.867168733970092 -0.47910553372160064 -0.6905916242531719 -0.25693316712077685
Ni 4.134152829653889 6.954801015400166 6.19294002302694 -0.10356043579217004 -1.1749494075126474 0.029039324655143535
Ni 1.112192388552337 7.427039022837534 11.621872146231109 -0.49666282587907357 0.4603909880312329 -0.9185893392865212
P 0.12544125356111657 5.446024844322305 8.307822543026267 -0.21599631969709895 1.1733869481215342 -1.5545946436533808
P 8.588473323276503 1.2241544737114047 7.96414411099688 0.386700857435934 0.8225102994730609 0.13451831762626512
P 1.6802203815182943 2.9870131052203233 10.355639374928165 0.8514058994614885 -0.6965789521848584 1.497298638145389
P 3.9915245252852616 6.311663007268765 3.8926443354133715 0.21229213137263436 -0.06502602716239769 0.50273782842856
P 6.785461082645809 4.1243661243811545 10.616707674470494 1.6330114903003874 -0.8044045910112856 -0.2974200714912297
P 6.603976202384323 7.848112243950995 10.049595767910972 -0.4228089160124009 -0.4865964427820071 0.759423398314905
P 2.2160765083096554 8.529916354564016 6.114351600565765 0.6397115495738532 -1.1592402243075068 -0.6029404034920907
P 6.8928971567473285 4.220791021280543 1.7786243878620855 0.201278296760634 -0.9663514371621487 -0.5793885843140796
Ni 5.378252590570802 3.1953003154919397 0.5659717871408148 -0.5027152027207407 -0.24938415112892534 0.26454054715438957
Ni 1.83893915405544 1.1896606459521748 7.168128514939678 -1.0862975134011936 1.1543854673183667 0.06185457141295153
Ni 6.820870996811476 0.9406211958377448 9.299818045940281 -0.7476179210395446 -1.1002210654608213 -0.9490702814841978
Ni 2.937217913424853 1.4604503455976678 9.320726584396915 0.2249108485779094 0.6929148730697099 0.5429575951805553
Ni 6.5978447725748985 1.8733694906775902 2.4992760042055244 -1.8896374105933906 1.178463334203177 -0.08146437522407905
Ni 4.188537523643987 6.841052108240424 10.59248036357707 0.11523401547535637 0.5364318782468955 -0.704036179793852
Ni 8.368721427680756 7.366087531240893 0.16392595279393615 -0.16200932395768228 -0.7984357750223604 -0.15230700906825384
Ni 7.391320723148907 3.7965523134755306 8.256182480190507 0.684483454472905 0.10050853633972368 0.37242223602973284
Ni 3.284859099424266 8.471985227059887 12.549827767237671 0.21100478001977854 0.24361973784132238 0.03473097572328212
Ni 0.24369258935606392 4.5751804081352985 10.26505022054266 -0.7894955351099371 0.3105432391367491 0.9376093320324497
Ni 8.908006075874429 2.3418978016770073 5.924915815909395 -1.3534808974950692 -0.8762725807961812 0.7013902575305727
Ni 3.4984342143983884 2.9985503518439733 11.734537168979275 -0.9670944859757603 -2.20962251186933 -0.1727249106029735
Ni 1.1062967829663524 3.347742535620622 12.849154918968061 -0.29651350051656034 0.06708265258111028 -0.08936023303238803
Ni 3.1106666297645207 8.35188720619216 8.15802699629757 1.3287296586923183 -0.3190682458886247 -0.4057661015975012
Ni 5.606612070322085 7.807051618585222 3.369419316835921 -0.2420459655962993 -0.03206679862755767 0.4426295502827538
Ni 2.946451338788749 8.466370796509542 3.2317968351179163 0.5103331242773147 -1.0747044092469555 1.0369765556788786
Ni 3.18369957773121 4.173426633018987 9.226220933869827 0.123285167914607 -0.1292562978963774 -0.19308084855150617
Ni 7.771668914906875 6.124527415807174 11.211313057418067 -0.503547725924365 0.6746775241260767 0.3192140274378696
Ni 0.3184534032675688 0.3972495324486191 0.5784251201709023 0.4522837855430662 -0.23270334803913473 -0.6928973895682131
Ni 4.457068752841926 0.2770390415666369 1.600685034098386 0.6452124247874242 -0.01925422024392168 -0.19212722638898522
Ni 6.2910465280427 5.9242038081578565 -0.0053740712456859735 -0.15569700858640928 -1.0472769091636223 0.9711236617398114
Ni 8.040399687678493 8.856832219388082 11.405740152465158 0.3351234995792745 0.26690596206277256 -0.4153115791940912
Ni -0.014216572608418894 4.852228519864376 5.738812408933473 0.22173322218087618 -0.49998032028808087 -0.15677970012762676
Ni 7.8346974737022705 8.913348401551575 2.4114487142829897 0.5078993180248413 -0.520569200183026 0.3494897956032755
P 8.45896047379608 1.6040582275098132 3.8030900865622654 0.19878304114260603 -0.9833811389509258 -0.23556215764416852
P 1.7741963345588891 3.2941560159252417 2.0001195686787954 -0.035142095118771734 0.23431902926568676 -1.7572356250894963
P 4.866613797494177 1.2223495113858494 8.222942148880481 0.041671925817489526 -0.7165211996347401 -0.07794247811374964
P 8.462243872599352 1.7879104201681333 12.421417849509949 -0.5758636018799567 -0.17984172415341287 0.26242787168676096
P 6.363535266262991 7.756168007296955 1.1280334272537558 -0.1385318096610324 0.9256444463610897 0.7903941356648064
P 1.7855340376088595 3.2115177659346172 6.029988205679057 0.7053073331967917 0.1521404015834025 1.5225784957581006
P 6.936696971169974 4.06866625683726 5.996110241949501 0.07459875845249733 -1.616962921477957 1.1395833693085278
P 2.6603330646196963 8.567267283491839 10.320965050936382 -0.3883597331955957 -0.10230239501535285 1.1995821184596631
