# total energy = -340894.69653370895 ev
CRYSTAL
PRIMVEC
9.07069538157868 0.00000000000000 0.00000000000000
0.00000000000000 9.07069538157868 0.00000000000000
0.00000000000000 0.00000000000000 13.27587957088587
PRIMCOORD
 96 1
Ni 6.5026182034138955 1.9391785992908732 11.441418600119537 0.46017064449031075 -0.27134805699452624 0.2056221755516265
Ni 4.423115947500575 0.28624121104961664 6.138395317616455 -0.032474575588937626 0.010969611637626268 -0.9015750641167117
Ni 2.712455375442366 1.8225929523245958 4.883997069712655 0.45078200418655917 -0.8879086223732128 -0.362289261360789
Ni 3.148510911629237 4.30010824824673 4.47429008929546 0.9817672574965867 -1.119321533735698 2.0185401818050916
Ni 5.169198779078436 4.547121423239779 2.5736882501370757 -0.2254474378076698 -0.3425948682556551 0.30281990235056233
Ni 7.2102957110008425 6.151382739177671 2.656729558735191 0.5993292891020646 -0.2394288396884264 0.05458194901093826
Ni 5.107182435165853 4.725668989946711 11.540377164867689 0.43979825148154583 -0.8573042672237945 -0.3587419103291628
Ni 5.5101752869061285 8.008444333723682 12.518091993382058 0.42462899994027514 0.011916548931927866 -0.0835359130411271
Ni 1.9413464954726936 6.367301570608876 0.5458971211816683 -0.8363400062673015 0.655105258421104 -1.6458991448963332
Ni 2.9620536986020216 1.4366439370932775 0.4658373501357058 -1.2081294938090419 1.9001298254842822 -0.901515157413054
Ni 0.4104199370694589 9.274241724437918 4.4283823932041955 0.5043103151220024 -0.4523004977136146 0.7832582959509735
Ni 8.651874106348975 2.1044920215238463 1.193606447859609 0.4928542507662609 1.2876346884242211 0.8511336196367084
Ni 6.755781309834871 0.8290796937689004 4.878540139407286 -0.5062093319169282 -0.428907572710971 -0.5806677081368193
Ni 0.7990565993245154 7.426268966603975 2.5863400559713994 -0.35407587231206117 -0.01881481871365792 0.2250715425254898
Ni 7.3856776050405974 3.8524966462203634 3.6812292195784067 1.197457873027809 -0.0726254367762104 1.1842264619391993
Ni 7.657009314190387 3.8183001248585904 12.673326966043396 0.0945183801945598 0.08291319185546364 -0.5061998188352315
Ni 7.928585932113855 8.830031633157086 6.77699131670496 -0.3281666086454671 0.9551925923318517 0.0830664296038763
Ni 7.080258222872891 0.49504317493163047 0.491329632267039 -0.7991083756093528 0.7267001970502711 -1.3622177631474346
Ni 1.808515233185744 6.5861502366289 9.213951533845 0.1830059808140074 -1.1583987022428177 0.3845460158764603
Ni 0.10911865057768012 4.713713813513073 1.3583085052279178 -0.5419396954390021 0.15882064181705552 0.8379279195797117
Ni 6.3383116283616 2.0627214695686833 7.126319213715088 0.74789251485717 0.32479717795260193 -0.34295328003633835
Ni 3.6781669528378935 4.549380026374814 0.6167601142412379 -1.1567699083901433 -1.0027153205031636 -0.40579926882828177
Ni 5.836684035696147 5.4486034070642955 4.835791766496474 -0.1403493224857454 1.1984973700359165 -0.08446613816488034
Ni 5.390169987803674 2.8072804243325447 9.400531201259057 -0.4459321322934255 0.17480570439140217 -0.3569192552981273
P 0.07124305519353732 5.5806364481629585 12.579453433092434 1.8846034477139089 -0.483992943720889 -0.1305899291061364
P 4.109714353450015 6.311861480804326 12.72373554115315 -1.4027542898089003 -0.4387754666439863 -0.83958371001558
P 2.397511763187164 8.447230149202303 1.4598286343348403 -0.18845800506751412 0.08286871177077341 -0.022859935317309017
P 6.088695163811302 7.634042313636539 5.8012402937276795 0.7800217912915469 0.34425554378752965 0.9327165227165227
P 4.819904443640997 1.1192240250153263 12.58477702417658 -0.053054970843450566 -0.9981091891897196 0.79191674295692
P 3.9850376462570276 6.136651929975677 8.323458697402392 -0.12512144979239742 0.3044394402318564 -0.47954904901692247
P 4.6903295609744395 0.9642784075347421 3.977971574601637 0.5899038820231066 0.9885804237636779 -0.9242740483761244
P 0.11718340578795922 5.518629174945697 3.716436216398986 -0.2111832145791718 0.43804553045649713 -0.914646038368057
Ni 1.751850599512801 1.2237547178994297 2.5847871529323716 -1.4751167027317111 0.07343456294106708 -0.22897010624894762
Ni 1.7550979084378713 6.4911165617463285 4.840452289752621 -0.1813828433882876 0.22088321547575507 -0.8088358873097619
Ni 6.059206333321349 5.544779989557365 9.273759163446819 -0.5006457217862217 0.8958510171487412 0.40486852948389634
Ni 8.677326477420893 2.2321529874775834 10.100076830490345 0.2990624921906591 0.029162737606885262 0.6337581602038956
Ni 2.2206422751146953 5.472722385923964 7.065767787096915 0.65254598233436 -1.1333931813374158 0.007294219668568083
Ni 0.8982437455947672 8.907985188749414 9.000329402469182 -0.8229103631249569 1.6101273866133625 0.11283389067429599
Ni 1.6428752659211996 1.1667000443276654 11.469483331444026 -0.6923114351577561 -0.3912319125370682 -0.27941720715590584
Ni 4.064651139093176 6.710491328094995 1.6489036500318186 0.6639223424921017 1.4773463633931783 0.6500293865600935
Ni 5.569615553347427 7.864047934901916 8.046085905168532 -0.5719886923055826 -0.23396524547069383 0.21714380303798086
Ni 5.195140967697712 2.8979510947655105 5.011950112055741 0.11097344042678954 0.11537671170080774 -0.1828547999481238
Ni 0.7669681075554419 7.38041660175417 7.010659684741129 -0.7241275512270884 0.1645511165429295 -0.12707548819497472
Ni 5.126112976301667 4.636095873647638 7.107639930839677 -0.40712338695634404 0.08280417708142512 0.13329781495560267
Ni 8.126036827870639 7.5788471326056674 8.842997285049531 -0.8626673313079207 -0.4142057477244221 1.165107224611245
Ni 4.687209241783869 0.1949120081363155 10.4553260774063 -0.4840271393929341 0.09997554665438911 -0.07573184361567603
Ni 8.123769154040282 7.277482351246638 4.868224944687761 -0.1800191302715416 -0.30807523721223073 -0.3899414758604188
Ni 7.204626526424951 6.216165645163289 7.132652373188508 -0.4820419906421053 -0.7979156408528323 -0.8968262365778168
Ni 2.2389106554920453 5.249964250220406 2.589818667627166 -0.9139801226492839 0.4310894108536382 -0.08970758906947776
Ni 2.4781321032039907 5.205971377911494 11.382141606194024 0.10191570109989545 -0.2760521473384149 1.2876691412065824
Ni 1.0631943400148833 3.398299719390642 3.8184216721758975 -1.2682678538618353 -0.013803738652311711 -0.20549002084913645
Ni 3.7292531088881598 2.5044643317220876 2.6297660098227222 0.8791357612765891 0.5708075275132879 0.13846573230978734
Ni 1.2719291807515185 3.360112092087442 8.275878365093856 -0.9310684455901385 0.5696852409833866 0.154916678776959
Ni 3.7380154005686568 2.768303646536381 7.3496061709558855 -0.1303644433588916 -0.10738777995806022 -1.2083022719414802
Ni 3.859771343868146 6.966030956690184 5.842422157556481 1.0200409562658046 -0.12816666437662444 0.15193445622018348
Ni 0.9609222502658149 7.375690769491708 11.49866375829305 -0.631049760133797 -0.647319186717782 0.515728327150957
P -0.03518885542993668 5.698727830552593 8.254610305773712 1.1710145912346155 -0.5862570292991387 0.17687338555370827
P 8.633914129612553 1.528720565301064 8.010347365602119 -0.8215384224780947 0.03379072329719987 -0.17179185726574284
P 1.8462311843322297 3.053486307441987 10.412670225587766 -0.09893630675659734 0.7404070051134022 0.9744781800343412
P 3.9372260112177955 6.048248933373068 3.71108632029841 0.508724385029298 1.6891044766392138 0.926504737478856
P 7.003402221414456 3.905850476100986 10.435424971871093 -0.1437938293909201 0.43083461453035476 0.9164776922601572
P 6.425417515533246 7.785749692887374 10.344113910348435 -0.44259561172102485 -0.1954308368409215 -0.3243266660740866
P 2.0470473080532607 8.544431720266694 5.715120391137472 1.2279814955379627 0.6080882662416173 0.07050633355067856
P 7.022867933574234 3.9919857988732392 1.5493219285150848 -0.44409379353310613 -0.16035841861782058 -0.6992590701201828
Ni 5.348435718629797 3.043508542588419 0.30099469698991466 0.6582774855014986 -0.9473080473774526 0.0760671154679077
Ni 1.4680013308194444 1.3585815331570927 6.948449227948666 0.2518683510033598 -1.1549174285624368 -0.032865383269453076
Ni 6.775999889706329 0.696771810601997 9.20082170236724 0.5178967955571855 0.0464426077332555 -0.4173671761715393
Ni 2.9332270288705327 1.5861380666856852 9.187200239203055 -0.4989032851738182 -1.1609651774184133 0.720387624568682
Ni 6.3600903678283425 1.9334822026290182 2.4632198800955676 -0.2421871191598539 -0.1067876844802161 0.33033019195568913
Ni 4.089858601391416 6.789034478883216 10.550806030498686 0.6466080195833703 0.6349961463760547 -0.8109177095394551
Ni 8.212217504119499 7.102635628230847 0.5386632416628319 0.29453246553078954 0.3563906364881668 -0.1450269304670728
Ni 7.77006646067663 3.892688897189598 8.420054346019313 0.08832767800281562 -0.4589331725387838 -1.2647924937187252
Ni 2.932664645760604 8.416807037094243 12.507286074045645 1.0434091986780998 -0.6489582649831017 0.019305128086515137
Ni 0.4009592018492125 4.738894063725349 10.350473374838286 -1.210057306959374 0.06956376713175116 -0.15814289902374054
Ni 8.539678675918267 2.231645028539584 5.680961059626517 0.09958988118019624 1.2426478393008857 0.7457194184652512
Ni 3.7774457131308914 2.6237530458941496 11.468182593734934 -0.030550619093347383 0.6690007854562736 -0.17456093537044773
Ni 1.1353607919921416 3.439235767376234 12.713220791136555 0.14443917628440286 -0.2399744277792512 -0.5075902714248548
Ni 2.934515067606175 8.346881046861377 7.943489991596489 1.3153108141832508 -0.14892292308736932 -0.4794462048904711
Ni 5.6550796446658955 7.914535425060968 3.7272167377884995 -0.7635099096794528 -0.1584653153601658 -0.8278844193007806
Ni 3.1513772513508074 8.513074326540528 3.6341123998007956 -0.41282300844428255 -0.8143370196336491 0.5608429601014082
Ni 3.3952973192392504 4.221619521630438 9.352485542280531 0.5848933161823928 0.7140323717746154 -0.3037748100646639
Ni 7.473327733931528 6.146139877281888 11.418132311090373 -0.8048126250829817 0.09528842559136493 -0.45106765374777796
Ni 0.5550775719164828 9.109971432166908 0.2890077731226513 0.7635075956866076 -0.8103188996131915 0.32584618804240656
Ni 4.526839348501072 0.11702285448076999 1.463307245990607 1.150591033272941 -0.1502501265392251 0.7486970130363363
Ni 5.990695371558624 5.696224318643879 0.3971359037712318 0.991445404016299 0.39976720370158897 0.1554049312672872
Ni 8.279803254959436 8.859765372420718 10.964362614010293 -0.1548958528413526 0.11051475562281614 0.5073701849942488
Ni -0.06153741119961242 5.115854019893135 5.899044158961414 0.27853634721284937 -1.4046263100206327 0.3112022128769866
Ni 7.844672929695352 8.790637603376137 2.6888570544941466 0.21863041488583637 0.46774177196934924 0.0950462276735718
P 8.42538791486831 1.8405619997563392 3.4906802158916967 -0.14576946506005217 -0.6527372724095598 -0.30555709877606735
P 1.9540363982273674 3.388031692286789 1.5324350150351878 -0.07585679922931451 -1.5234660405693763 -0.2348774728723181
P 4.750976229893487 0.8945946048669577 8.161413446693729 0.2545178728110649 0.5409390220886298 0.8180445503922233
P 8.57343073320929 1.465071496230624 12.325645400234105 0.06563383594972566 0.8637582503792544 0.008494924844888596
P 6.297049035344438 7.84059111680071 1.4197624660305732 -0.24228919195535692 -1.625916274016503 0.5525280124778097
P 1.9297360054612693 3.423289485001168 6.154046802393575 -0.34227553724302345 0.2309727385012732 -0.6689264805749124
P 6.984362831934785 4.093804353856236 6.113834595894632 0.1263100707838599 -1.0754744546437607 -0.11967353930394872
P 2.4870848794862375 8.355480066026088 10.279965045965785 0.7288097871941062 1.3174186045548733 0.5266832835005639
