# total energy = -340855.6709420889 ev
CRYSTAL
PRIMVEC
9.42512255427601 0.00000000000000 0.00000000000000

0.00000000000000 9.42512255427601 0.00000000000000

0.00000000000000 0.00000000000000 13.79461956416625

PRIMCOORD
 96 1
Ni 6.607793045679369 3.3691419322401623 9.97397831704139 2.884013872213556 -0.28961394518324957 -1.2557568658790181
Ni 6.959189881891434 8.19495537241282 1.6873579747960974 -1.1299913547447185 2.6068679775903294 -0.5487790869583388
Ni 2.5829736275940545 4.136902972955735 9.739925196477847 0.9546943125391945 0.7372206369656206 -1.8643554960981503
Ni 2.8892147026739146 8.118395103642856 13.515926097341357 -0.5300578563997517 0.021485937787917835 0.4661985958519455
Ni 7.612049256156847 2.3341786731781027 11.938525369815718 -0.23408454465737752 1.3048101717622433 -1.4152015144333177
Ni 7.263442256157499 2.9379897107847817 5.387777877100798 -0.6033684921684447 -0.9737135339541745 -0.4585518779399651
Ni 3.802744685504012 9.602126137814249 5.256894973210486 -0.11021393655294567 -1.2770864805947295 -0.8032843613639133
Ni 3.2760028732736726 3.802725835259331 11.884423282558133 1.3389953022843841 -0.311027120751703 1.3673278306804904
Ni 5.219274597389322 6.856116743978307 13.870352167873584 -0.3735185544177051 0.20683445069217282 0.15590321105994442
Ni 0.7963040812108282 5.977271211360382 12.538080964685767 0.40549536443461776 -1.6198541269828233 -0.08641811968492859
Ni 8.506304863801104 6.477010048085864 11.135030862771503 -1.3985335668593333 0.3667292994100136 -0.14714706213386916
Ni 8.61645626859177 6.892403464988323 8.852476412187729 -0.5804257673293424 0.9930466870651478 -1.2495574219365255
Ni 0.43698354464730216 4.087769810195938 6.946267096650698 2.6373707741648773 -0.40571956463028186 1.3366322013688463
Ni 0.5183798436900569 8.183004317285365 12.135237098179369 1.0851592860316923 1.237849389470978 0.16012496245077584
Ni 4.72135480927551 4.4588086013651145 8.321107807400553 -0.725274520347338 -1.3109373677059035 -0.661865202852757
Ni 3.6005946615500277 7.316156965406597 3.2937409535180495 0.3861041043921996 1.5747315236125718 -0.29791295196724826
Ni 7.810061651403456 7.348749038459229 3.693220051348973 1.2641456041633454 -0.43303753571894454 0.10200260438674691
Ni 0.8181976978950277 1.2561331798986966 3.216242885075228 -0.21979666727979563 -0.7126789430705145 0.4729361716860952
Ni 4.692080379286651 -0.03287953928401127 11.964997710932817 -0.8213021380975726 1.9770919419626338 1.7862016733045432
Ni 2.4993539421912314 7.579410057492512 6.263102184012401 0.13453554401744572 1.321151589234744 -0.6874510217416612
Ni 8.877428481071343 4.426310779535884 4.979802031480127 1.0150926111215937 0.9004160108116042 -1.1271065769977557
Ni 3.9819351114371124 2.328796928321812 0.9431107292950156 -2.5206869136168715 -1.9324799596802138 0.5363886837137859
Ni 9.455282731752934 6.56538942027052 6.045284779192195 1.6159717612092814 0.5689128815937363 0.8770451972961476
Ni 7.953596839523337 1.0190065269399922 13.56147677109962 0.14430265070653858 -2.389038975559866 2.647236354105047
P 7.805170012908858 8.624420496969293 6.573052987245389 0.5643728276315376 -1.8973394072233387 0.9226912772700366
P 0.5938383156584452 2.3636510307361087 5.1511177676979365 -0.128977590313694 0.17242409153310306 0.40454688447841947
P 1.2051621182825483 2.217589909829036 9.175229359095498 -2.5945567643231446 1.217318873617794 1.4410950943706278
P 3.541320067152107 7.812644134924688 10.615401247859126 -1.0189675206959676 -0.32148405441896893 0.4429607083699274
P 0.9624840682654285 5.963802711536144 8.166000454071295 1.5250022747082446 0.21390806970950255 -0.6787774052270633
P 2.717913104139615 -0.1591950288882306 1.7497098716381143 -4.756528507083731 0.20598007311167754 0.8380873279757115
P 3.271799268709915 5.837364695341502 5.618369150228762 0.8703266476253915 -1.578665054339023 -1.4195045126840455
P 5.483366525363523 9.008192628420167 3.480341410635066 0.3817347716799103 -0.20114022852087293 0.1710547219894022
Ni 7.340520906656179 3.0903750887821713 0.5735168093806018 -0.5120789033238277 1.2262336596089205 1.0122741678361922
Ni 1.5107057343092296 6.088327427895713 4.17049976404984 0.13795639677353658 -0.4328555016151255 3.3874268723322696
Ni 2.3245273479016726 3.8142621850038148 5.50977760318541 0.5363501171663666 0.08213851847296821 -0.8448007354401451
Ni 7.84450104843478 9.094027217572952 11.63463020768635 -1.1044361319834333 -0.8191591236126409 -1.2929422166800635
Ni 2.7721546832078348 0.9481955827975881 9.26871526256411 0.5744096430422494 -2.513891230851277 -1.1084660790784329
Ni 2.5624739865039796 2.7783941141970896 7.74969280030183 2.371286536672452 3.273898783804426 -0.40463301643432253
Ni 5.498088566459014 7.396751186538195 11.726060491972548 2.1842403243507995 -1.5185542050900558 -1.8183582034324297
Ni 4.532767536369167 -0.04983062181297624 1.2597656220486344 4.9945964618688885 -0.17428119934649985 -1.054421233517887
Ni 1.5523553499308564 6.412089805406125 10.361428131229433 0.33935167872800914 0.7143653296340019 -0.9941640884990427
Ni 1.6358996343549574 2.558421183897666 1.4756518193013193 -0.4089018190130055 0.7630324558224021 -1.0961417531851252
Ni 8.438971789802258 1.156547337251466 6.879128180172061 -0.2437071553488061 2.7959417618649716 1.6607992019366173
Ni 6.744655247182343 0.17425825941244066 8.567603974477713 1.6171480409055696 -0.07805046444652364 -0.806706756781901
Ni 1.6618564212800448 1.0978853758056624 6.884425098927289 -0.14236686713640642 -1.4037865877281566 -0.7059380248022552
Ni -0.17830069438417992 4.612324994043336 9.458501411032135 -0.42333444949856774 -0.7080028777510838 -0.003538866391193905
Ni 0.08105133956510102 5.090395474508552 1.5686966270444063 1.7048265153601607 0.4376135851254012 -0.02194025171651705
Ni 7.567977384093772 6.642034515141548 -0.24949901105476888 1.6775856773663367 -0.22284419585686782 0.49426244396769725
Ni 5.464930986065965 2.1207844782721836 12.850818776594773 -0.27135936984843584 0.41036451960146103 -0.07392075854886625
Ni 0.02654774209582186 3.79340438926481 13.422853956743483 -0.6149749660591215 -0.2842927900806523 0.00034529915456069565
Ni 4.869508307342122 7.893417433380751 6.988133490086151 0.1929867461758031 0.825071632442334 2.688577636055995
Ni 4.472738932184025 2.2831227854608924 10.142521182266695 -0.16284159005099053 -0.9393283716060855 0.25624411147355225
Ni 6.274077738977638 0.32969454951137395 5.819550271606168 -1.51739900843969 0.6781464565112837 -0.2066920115770376
Ni 3.057811291096559 2.3815210626932495 3.4270112408971496 1.1432672459180182 -0.08203978811157484 0.6730132490497763
Ni 7.2661001406574535 6.713778546395638 5.858919950133685 -0.4001400136599754 -1.2148752971733077 1.7123523914235605
Ni 9.073367349403092 8.774289367301833 1.63263477197629 1.6856910800822904 0.5260747033822876 0.6426737175259706
P 3.77126477688753 0.24640662841492822 7.482753542868636 -0.03774559417988983 0.22303831414554492 -0.4771424964579589
P 7.868601086258836 1.3500262486524073 10.051959894260266 -0.5684950773300274 -0.18260514583116294 0.06822705059819861
P 5.681463746711193 5.191762665278091 6.436086166884437 0.6221833108821027 0.8599206218007189 0.04355654443471208
P 8.409537132733613 1.4374913839700583 1.9129002098863828 -0.11395489165261664 -0.456914085226226 -0.41118495862022736
P 6.617519771934521 8.593751148874075 13.42610939399981 -0.8573407768886848 0.9662912733481746 -0.7294325083797695
P 5.404940082370184 2.7404202962881654 4.25935039235151 -0.7811363645119644 1.1640700415959824 -1.0552632698032083
P 0.7308211587273754 8.043427680548394 4.097098796288332 -1.0296861926650525 -0.00972082683218971 -0.9071633568377667
P 0.45819855252300257 7.137598022670294 0.40675246474090504 -1.0677837708677222 0.5482512394793267 -0.5303877289353446
Ni 1.0904678045238745 8.265021731890343 7.878259009120904 -0.2530639139733577 -0.5979149252530412 0.17290823025837315
Ni 3.6442801035971515 6.64997046815205 8.756259108264908 -0.6345022374587718 -0.17991757169667077 0.019422113280353648
Ni 6.279921314828601 6.13601854693745 8.558553972006592 -0.28101874731507087 0.08157236155685306 -0.7658203029801843
Ni 0.9592041256910165 0.712963379429277 13.712720766781604 1.6695435237881506 -0.9142539451359609 2.3492616956619283
Ni 1.5458237401490533 7.1257977695002825 2.211691668268499 0.11936937779996863 1.2838749642714726 -1.5319558232079422
Ni 0.11696482573044331 9.538506562017465 9.483496835478514 -0.08970244686315519 1.1170602485053471 0.664564604061791
Ni 3.469990741280988 6.186245023888716 12.038067856900183 -0.34909461704738587 -0.3354549147767642 0.2932268593454886
Ni 4.601203349681824 2.1288335327507695 6.1307150305965825 0.12519961132850052 1.2172841637251166 1.1813419413025525
Ni 1.9606139492217358 4.426687784429494 2.933191381001353 0.34389481801400124 -1.0780735828295045 -1.3009866842510949
Ni 6.364747415890978 4.857623228071049 12.513802792049482 -1.2608710471771318 -0.8154289671462474 -0.24356805866778053
Ni 6.589112453200965 5.0264460194298595 4.042375593468524 0.3779534502606071 -0.8054361175995934 1.5312999347914984
Ni 7.8588366595143215 0.31184148277444573 4.076820645573253 -0.05389906401130072 0.5332627364902945 -1.4793016873473364
Ni 4.879857091671733 9.196478297411621 9.708005134648074 -0.5308685252265051 -0.58081708923049 -1.1382327688179041
Ni 2.5733411525623042 1.2158690572610884 11.436319036061555 1.1612492843177358 -0.019803150768856217 1.817853495881869
Ni 8.064945234851217 3.2228923088862844 3.056032770510951 0.5818920674622237 -0.5145039678255526 0.15915822766213236
Ni 0.23153472787422552 9.31493323498406 5.683893543250512 1.6565910773925405 -2.1382132068884077 -2.375401073061457
Ni 0.3479528965089335 1.2481783766435135 11.75380145455665 -1.6871671504071848 0.6687994680787449 -2.3905888365454895
Ni 7.839307806025294 4.4804863827477215 7.509528430412859 -2.819085804081603 0.08610315954767106 -0.0925208901485568
Ni 5.916017341271004 6.477283376633731 2.3285320823840507 -1.0456239469412314 -1.480732506256592 0.4427665900812504
Ni 6.082069146661778 1.8674937404999268 2.416293166543186 -0.2692778047290588 -0.8424137232652071 -0.3181632175758521
Ni 4.309062257622998 5.127106326023879 3.3985944970412536 -1.049827700609934 -1.6689334010079773 0.2653172774194141
Ni 2.2283062739299164 5.319312845908885 0.48179623132632177 -3.242408940726261 -3.000973097910135 -1.8223706670259323
Ni 1.0145107435836862 3.798654182408337 11.284743276073193 -1.126451717022576 -0.3889166341403302 -0.13279824961136483
Ni 5.246550901442047 7.153592455281721 5.024455433591596 -1.1219240043555518 -0.9149854239853468 -2.763838967793156
P 6.695625760768289 2.35228433319375 7.321646156657566 -1.4330580829987645 0.2433340882801035 1.6247662195724597
P 3.6785404233040113 6.180439148527114 1.268146440833597 3.2916944172249503 2.0672975537144525 3.7981490323834657
P 4.8932030649055465 4.316772007697335 10.472240237096154 -1.5973932268761455 1.9159284830794356 1.2142916567556958
P 7.608015303795214 5.050206752849665 2.057550389979118 -2.840435987622605 0.5431591696684 0.1712652953383115
P 6.841573780207278 7.585206507731775 9.96110831248576 -0.10300096374427424 1.4731752627346242 0.529684532220733
P 8.195568005364937 4.35766761353174 11.494339146675987 0.8498238996863494 0.38189160897274876 -0.15087207639394018
P 5.264288981686423 3.7687765445897004 0.7922343133843021 2.404568438654033 1.5340193906051902 -0.977497169366323
P 1.8032992322403878 2.694595351469802 12.946360299245795 0.2216658592780505 -1.296205975033 1.725359602316506
