# total energy = -340896.0655649623 ev
CRYSTAL
PRIMVEC
9.01503678022333 0.00000000000000 0.00000000000000

0.00000000000000 9.01503678022333 0.00000000000000

0.00000000000000 0.00000000000000 13.19441758174534

PRIMCOORD
 96 1
Ni 6.521090113297525 1.843566049791777 11.344798410647954 -0.5002762542619449 0.1821084087004025 0.021927139090394492
Ni 4.612597767090604 0.44017360518517534 6.149813026818694 -0.494356289233084 -0.5895102461291137 -0.39803273750898543
Ni 2.7108757136645463 1.417353130892146 4.858791215307826 0.38269379315907 -0.04331434651691895 -0.09880235228189435
Ni 3.5138089983786744 4.2655368729792205 4.944053632169134 0.9045002081833069 -0.2324434095095287 -0.6476518874668523
Ni 5.095957005481432 4.493022316431001 2.8176543193142503 -0.1786073375256795 0.19356961526246663 -0.21503832665920386
Ni 7.361859508266353 6.296669782422965 2.640994752918695 -0.002967310158440051 -1.4214793770222294 -0.2953019967069624
Ni 5.00267841772699 4.552115883912433 11.359285575093821 0.29891516797951745 -0.7215024548994154 -0.21249859095648566
Ni 5.654357411792232 7.880152015000513 12.17525460329813 -1.0342357597089478 -0.06564077792826115 0.979838673015306
Ni 1.658748776422317 6.536271435591763 0.5483206934502383 1.0896456039378202 0.30976753731298906 -0.810891741397526
Ni 2.670515393052134 1.6229049893428098 0.36872222499534724 0.5384306538444792 -1.1821317841936996 0.7741157102197571
Ni 0.5386854219133728 8.9233901257688 4.839554027870965 0.11396877560968759 0.5799056331598141 -0.45404036322285674
Ni 8.472737441584325 2.3027920341554813 1.2971222870432373 0.3724278924566876 0.2932399719716111 0.36025783275305695
Ni 6.719997889485211 0.5393750722432477 4.687686714706635 0.0760588879377916 0.3331836022440842 -0.5136372489498832
Ni 0.7883523638835456 7.537111827387484 2.6723580666132634 0.1452524162143176 0.3240513009255129 -0.26262507529923157
Ni 7.734135460843879 3.8664862605359667 3.6131988797098757 0.06713047509991019 0.04789116725432398 0.21618735266198252
Ni 7.4857080864600825 3.75379829813812 12.521277866651754 0.7162682030836696 0.29800448323979 0.5620544639110062
Ni 7.822960620324357 8.924697306132616 6.7338368727713664 0.08986005548694201 0.518809537179442 0.5994377896554709
Ni 7.017971907176093 0.3809403046303713 0.2305406394883111 -0.21718674046077435 1.613011907250009 0.01850808610651651
Ni 1.7933162335993293 6.491259355891567 9.065792551595411 0.4385481811245286 -0.232456007915019 -0.1829663858253236
Ni 0.1987536190551266 4.914664611575775 1.5182025467123244 -0.8115507151377637 -0.9201911365560023 -0.07432313619360748
Ni 6.344692884478432 2.010272113844655 6.98410872372369 0.6156048863336366 -0.5054873661492391 0.4438449107470937
Ni 3.2177641986040437 4.420748764867518 0.5631342022352096 0.6436332532257625 0.17420535180324193 -0.49084159121160625
Ni 6.034124860109967 5.549773967650038 4.874782989427629 -0.048296373112542625 0.2807158713626714 0.2978846698324741
Ni 5.299210029499179 3.012924528075734 9.375069622666645 0.1521082627938864 -1.5690380727722206 -0.6717343823373528
P 0.21473727964163714 5.504617647357974 12.409600489900692 -0.19003820507044045 0.01311134057097742 -0.10827558187965224
P 4.026845738546598 6.092361999077173 12.420657432771169 -1.1880172964401992 1.2760516115723122 0.7403057036488476
P 2.4069788166700343 8.492705748521223 1.362824778143377 0.09866479826276556 0.3580978489872607 0.20794259615468702
P 6.0704915193349995 7.738841310153613 5.741946609701132 0.9535062057683642 -0.6869730536639782 -0.2535727352889762
P 4.885428846611278 1.1525544493311903 12.702121311715217 -0.48343912809994805 -0.10269551668871345 -1.192039530225715
P 3.9670760432907803 6.185054609427146 8.1482258595006 0.026640485405663796 -0.17128226461917598 0.8649625551000008
P 4.626282593244199 0.9083010370746102 3.728267713377264 -0.43395130578246555 -1.645079220098199 -0.6024632067453559
P 0.3740077411836558 5.708591874335067 3.621920927999469 -0.39265476102652375 -0.792250729257571 -0.08846754601478958
Ni 1.4123227402507061 1.051108238062153 2.784206729067171 0.11342164485696596 -0.652637770717218 -1.973341988001898
Ni 1.9975879567971537 6.484389897703794 4.973569764784077 -0.4573390885787866 -0.3987829854114487 -0.7727846501131594
Ni 5.954945790210743 5.565433086904843 9.086890442667384 0.11252484407430943 1.569483387839755 0.9136715902699296
Ni 8.561517525879843 2.376381781119771 10.014298850646174 0.3231586139079144 0.40419772866911674 0.7740444906621895
Ni 2.548920574106362 4.941709722551258 6.960860746329165 -1.2870777874794865 0.9220724127391151 0.9543361578688274
Ni 0.6469848643035976 9.155491268160397 9.055592938742857 0.3832123846667013 0.2345676549413831 0.34904550897700526
Ni 1.4163344317120694 1.108191452294406 11.284921436451933 0.450265726671773 0.09127287667406861 -0.18337030613196162
Ni 3.978840666565116 6.610510265219464 1.6633671798732301 -0.12690502405538143 1.2195817015100416 -0.4521660290182794
Ni 5.660595817390576 7.950956115534328 7.921216410001987 -1.2112011907558302 -0.2753551212713903 0.6288424680698331
Ni 5.339813756110371 2.574649489681038 4.669530430205094 -0.7656547239365975 2.2682991997749324 1.9503450128860926
Ni 0.7035506154125197 7.526077422109487 6.889254307503078 0.4217527068337446 -0.1612333650236062 0.2953279648488914
Ni 5.261941866574963 4.485007948545266 7.128113121623748 -0.09834726702234675 -0.14768262292236503 -0.8030799586625911
Ni 8.186645242648671 7.494074040788498 9.025193332502715 -0.049276220527308685 -1.332706383951879 0.8863124815306865
Ni 4.5900962347590015 0.36179416906712764 10.541600985349964 -0.2250314333161737 0.33747914429564463 -0.7895068479638468
Ni 8.082422399986152 7.1065446456208 4.856139892928529 -0.30813180148177904 -0.028221456739538492 -0.21267291175082081
Ni 7.3457316070879735 6.511903790602853 7.150688577258682 -0.5241795432421037 -1.9525811013054628 -1.5514054472921217
Ni 2.464278391790091 5.0072039662968875 2.818077124549167 -0.9966238628934448 0.3915142196641774 -0.25936671626293395
Ni 2.336562362726868 5.096011095703382 11.460025007462699 -0.231292326624221 0.8135451198599731 -0.41685706930434013
Ni 1.1579905166372626 3.1075193112309827 3.75709690017343 -0.4769812882897463 1.3390400394793907 0.2349450928854599
Ni 3.555801040686608 2.618696960423108 2.745665642919709 -0.2920477514357228 -0.009043084038874749 -0.47106183748151775
Ni 0.9068225710079504 3.3817747665963656 8.079285167112996 0.9388681441402154 0.2619331914385295 -0.4013047233920379
Ni 3.6158411870521805 2.6929988953097523 7.1124774414651215 0.5454456517097316 -0.40127335593347024 -0.19238048005037192
Ni 4.0352928282079406 6.744284399141195 6.142516255877507 1.0748069962630908 1.0130930641930618 -0.7804784192129913
Ni 0.789286321715899 7.384550356374784 11.268085854869694 0.2664038256153734 -0.8652088667828518 0.33227163195277615
P 0.16917798719603738 5.64542351013333 7.792504219351167 0.6515291110340714 -0.9636954875965403 0.9229229336648687
P 8.54053051976287 1.640953093400449 7.952210107179891 -1.1061546573364371 0.37278758978895155 -0.6624745543019817
P 1.8449994406734778 3.2732337212147598 10.199483036021201 -0.8701746954285594 0.14757386525864263 0.575568439237041
P 4.000296454605666 6.181944421664966 3.8441406883443237 -0.09620990896436979 -0.47065200363760884 0.3906747544820175
P 6.879365713426742 4.049734917468848 10.364532136274981 1.3350622857785652 -0.23695466711632093 0.432100625726972
P 6.363813777938097 7.683380802579888 10.163409365498403 -0.37455702298454846 -0.3801358026239066 -0.5824983335876549
P 2.458220286931583 8.432647572081667 5.893602970999852 0.057564685788346025 0.48837796016246204 -0.017450334265963496
P 6.81972222868881 3.943438616298208 1.6074892760867845 1.2135606921269422 1.1800350495656708 -0.7732358787179652
Ni 5.1899207360472515 3.0352006844825405 0.5730480384151225 -0.7168503008393848 -0.34343896142350533 -1.1265121379468663
Ni 1.3939320647873779 1.076287236380328 6.95645329474386 0.5242317366362778 0.7019872676846233 -0.2335091317698817
Ni 6.888948697749055 0.6230210929719212 9.072270757177737 -0.24337059794499374 0.8277106127270776 0.5491333849739639
Ni 2.7769919949626107 1.6785908728413297 9.164288141257021 0.43815583078211634 -0.471264183300311 0.1975381129919114
Ni 6.162489971836602 2.110906971784428 2.5761964700288353 1.4282784022219337 -1.1420488001298847 -0.33432671470959197
Ni 4.118961386529094 6.845460159300478 10.293321457572834 -0.25252629630233286 0.5097037182234319 -0.05698541624610831
Ni 8.187294325312083 7.158931025580311 0.47091938884580387 0.3093659309991963 -0.8367210437558041 -0.559538896578004
Ni 7.601884868173767 3.952561833733938 8.205582229353704 -0.2471969136696194 0.08196599745084593 -0.6810404902296271
Ni 3.070242133269775 8.284864070674635 12.302277376016683 0.11887855420647914 -0.24186701681627376 0.4102670747916483
Ni 0.20388678111827327 4.896355071445373 10.13023853688697 -0.6978637324345529 -0.14430342203748697 0.07803580915850432
Ni 8.567873126959082 2.369458232710047 5.621705849311531 0.681599962277523 -0.633559156819212 0.8372843724584419
Ni 3.475828647532104 2.714788239719 11.60145561230159 0.57914150130028 -0.19217042092209485 -0.44140827628114304
Ni 1.1416732996820544 3.2959516144341654 12.536293312265345 -1.2425002579794278 0.24722031070838715 0.041497090802522084
Ni 3.1211410321256343 8.446107022310466 8.146312868650934 0.7017165305217399 -0.3827243892866893 -1.0736186323819445
Ni 5.556967967169517 7.667361081845411 3.436459980988792 -0.2554864073719213 0.8307324302725371 0.2159209863744733
Ni 3.0179999939021336 8.281447371654732 3.5872319671586155 0.6904535560134109 -0.1248622825937398 -0.3355351331953963
Ni 3.5118256902404723 4.4020155179985005 9.264987907463135 -0.7461742466144826 0.1562387400224922 -0.0037931484938450804
Ni 7.193494677406979 6.089945969163364 11.551000253265729 0.7111128841349753 -0.5505937715695743 -0.9377738826347721
Ni 0.5753108127000713 -0.014688199770784905 0.21477243828590525 0.33870067540757154 0.27973319573442795 0.27025456682003135
Ni 4.7134489859181805 0.3159076307787245 1.5237972786694527 -0.6228924211339854 -0.6178702853290456 -0.0589044876456921
Ni 5.745319135039773 5.580181687423474 0.35521048755199586 1.3875724398621392 0.1420616771911618 0.7299446721294977
Ni 7.99762696204102 8.789219330219428 11.164588722685016 0.022289407525819677 0.297302572076759 0.30556738318871246
Ni 0.1901767128611017 4.816103212144123 5.587862498940511 -0.4366339948209512 -0.28700273281264765 1.065197755308101
Ni 7.746576211892601 8.76481562508255 2.516188777796433 0.18949030298677044 0.43184968605843044 0.14597952418832924
P 8.432314015712969 1.5816882402161736 3.546884267597991 -0.4764285011100699 -0.30815391296896605 -0.08295072996161842
P 1.7007498337672422 3.241888437594175 1.5093488788826506 -0.06261458950742765 -0.9461896175022931 1.025396049930131
P 4.8439686914858635 1.06455867325396 8.295686622583323 -0.875604093974247 0.4040072099248655 0.27820184669156606
P 8.567575630738352 1.6244736057793878 12.287196120633054 -0.5475004773562313 0.43992140732297136 0.40268566289996455
P 6.242949176988664 7.663250224977138 1.2014583205007583 -0.591242398328872 -1.0993291497741713 1.1554751008381199
P 1.842529320537717 3.1476181957706326 5.908433608355108 -0.6093501636731764 -0.36146470857696456 0.18940159992770608
P 6.873460864197095 3.6639273943665898 5.799368789324277 -0.23400304068716474 2.1631395378164426 -0.37988794827915867
P 2.3572338425491286 8.416474595718327 10.12056720520214 0.5985780127583369 0.47704916541320425 1.5489672701642743
