# total energy = -340888.57594788563 ev
CRYSTAL
PRIMVEC
9.11517817584186 0.00000000000000 0.00000000000000
0.00000000000000 9.11517817584186 0.00000000000000
0.00000000000000 0.00000000000000 13.34098463667930
PRIMCOORD
 96 1
Ni 6.396302676378538 2.1104918435814586 11.313301298989181 1.2091041990174853 -0.9949562453830347 -0.19495415431481908
Ni 4.914357044038541 0.5517389872176794 5.853703478098904 0.41870672091856925 0.04218511800848219 -1.4458819742363098
Ni 2.845867940485516 1.863589018245049 4.663954901884225 0.687402427891913 -0.44378783225691315 0.016365328731900847
Ni 3.789361780516568 4.652860818792079 5.307550271933616 -1.2823086482256174 0.5347958853053694 0.07230456310168193
Ni 3.8453563187098547 2.6354987484030037 2.4130236884750578 0.005341209707255317 1.151338967182559 -0.03191587487199019
Ni 5.233597921646142 4.865244465203212 2.4206284814450494 -0.13717066764744762 0.08958931832405861 -0.5145505047927719
Ni 5.499205092151463 4.386843465278667 11.67421494718315 -1.588273781073381 0.5623401134722251 0.10021877301344677
Ni 5.531646010502417 8.076111476643277 12.449019657860427 -0.3516934881228137 -0.9483742838584377 -0.9159526729946226
Ni 2.0718434890414072 6.379904471232889 0.4313603010389678 -0.432068744047772 1.75086905944152 -1.2643420364448679
Ni 2.8782906284805545 1.5364543965262019 0.38576526937746025 1.3482929255362264 0.6964599101084908 -1.5127501968137689
Ni 8.25865203042136 9.037215840488333 6.817296285526374 -0.23756607544807473 -0.18713800070450998 -0.42379673384696687
Ni 8.817193674948765 2.5345299221671196 1.137011802623424 -0.2315273254531625 -0.6622462403412595 0.5808142610170126
Ni 7.378700095932453 0.6908001421382046 4.606508315842298 -1.198040742114472 -0.20387768205669404 -0.02161475005629826
Ni 0.7194400312808562 7.585286489162579 2.2156171909659905 0.456452315098459 0.06387263028424484 0.37938606894207566
Ni 7.624545560625786 4.087993240762127 3.7891730963328465 1.108538069966949 0.42979177508813726 -0.4675998470748463
Ni 7.914526716989622 3.785797745935162 12.602440864135291 -0.8773982097601922 0.3808780801065698 -0.7742476078119311
Ni 8.348144847608676 7.435123047489746 8.844352347673313 -0.133830290420305 -0.24450779687323054 0.021735077684246436
Ni 6.902368241404275 0.6374289521611033 0.020838208328776402 1.3462208734985461 0.07545930668057972 -0.3699768598130338
Ni 1.707892663551978 6.639112786812004 9.322519999042145 1.2146176726365467 -0.19735582177777625 -1.5556925047032497
Ni 0.18571537026070123 4.92989842245618 1.3992955792454194 -0.17477587959473126 -0.45319395606216145 0.4327534288196225
Ni 6.785356701963086 1.9130935497325539 6.87343484353139 -0.35192283052480033 0.74602897928587 0.37069085516092287
Ni 3.6602543999256976 4.576493857863647 0.18430798678405405 0.6031998278010644 -1.962836460484884 1.2379650891132357
Ni 6.043764053691973 5.813633155797472 4.587230625979855 0.08440597435090624 0.4686128617203929 -0.022429018427477503
Ni 4.8637586911961295 2.888472282259148 9.58651104849559 0.7180039548278538 0.5615538701255038 0.10645652639304247
P 0.28497874670072665 5.31125012266659 12.641183105008304 0.5630731349835076 2.780369618458328 -1.17727368477045
P 3.994435054205738 6.3846170182369475 12.585017201469416 0.7726730642359597 0.2718453083459189 -0.6482512116137481
P 2.5095087586736184 8.500842308753711 1.3219277717772473 0.5177510140079405 -0.1332880447635898 -0.330793761855669
P 6.538153075754076 7.959674193413414 5.823059161323385 -0.5390641736634201 0.26841622805971194 -1.0178789156174792
P 4.8350641109857335 1.1691491855483909 12.440401257101554 -1.5773332229014771 -0.8205614032768062 -0.3431301719338349
P 4.074511892562897 6.626925793882748 8.059355045003896 0.6744173284861547 -0.4227544086253816 0.6753655513320369
P 5.018579988805275 1.3347719690372442 3.6860603802413436 -0.8513475354197274 -1.3874022328328621 1.445450028905214
P 0.22507197412805516 5.825008897888507 3.4466429390436817 2.0522108345846592 -1.5617525948544007 1.0494253229651926
Ni 0.6917964310889659 8.9955139013325 4.63575162976574 -0.036388051710730875 0.744847300272943 -0.6909253534435068
Ni 2.0505777788664212 6.526394496188825 4.605507469302558 -0.3249406455090017 0.27720528710625164 0.030060566830806296
Ni 6.334921068012334 5.8363937551574985 9.163695315274039 -0.4842058310626435 0.30965672276673767 1.4522115159987634
Ni 8.769676252256009 2.684921243288891 10.214937850905807 0.1340344360113111 -0.7430045906372493 -0.21592407169826683
Ni 2.4846881290951846 5.392721583251256 7.254586921344529 -0.23217010124348403 0.45952709736904085 -0.902647471245284
Ni 1.053249697818024 8.887417005933802 8.566566387898897 0.48373171963970246 0.4388603130483087 -0.41057252184720905
Ni 1.378069064335651 1.442814173368195 11.329857196713496 1.084764364586119 -1.1529669897042851 -0.7061660816526613
Ni 4.413550936694317 7.1736177070653255 1.410541885809456 -0.8141948376288302 -0.31817298776786496 0.2348355638907891
Ni 5.947206973587547 8.308411786891675 7.946623993131576 0.08555165791957524 -0.40379252281089806 0.5403744078344113
Ni 5.305553136443116 3.4126497058865555 4.3198642261287254 0.6818298189001418 -0.9580426601861372 0.9744712380558057
Ni 0.6860793914739847 7.330982139324631 6.479876097000217 0.42663934550208465 -0.6893456676612127 0.45658498402158143
Ni 5.220253301116275 4.521966863321527 7.634138373908322 -0.5875423237694656 -0.7883166843104875 -1.2956606440524912
Ni 0.8264431053246453 7.084653570199547 11.342611153711712 -0.6235539659773841 1.0846957161317126 1.2239641468484534
Ni 4.7342775883089985 0.201200234575003 10.266033892464701 0.8725249408282908 0.7468843853076298 -0.033281901981581395
Ni 8.091361169366273 7.197399206356598 4.443121485506435 0.13369505039402138 1.3679240695035926 1.7553674615325057
Ni 6.834596893289822 6.063343455944811 6.887696450963788 1.6057272006631378 1.3604912673746312 -0.03986006941973136
Ni 2.3891975248117934 5.3647562172774625 2.4222828862443464 1.1198293266100519 -0.6646839032484747 1.1966101803155327
Ni 2.2918656545809744 5.285709394029508 11.53888372308286 0.38826048861357004 -0.7827749285566519 -0.9401457253010582
Ni 1.1944255740247027 3.40718059911202 3.575210701099465 -0.7909124700621217 0.4305098842010843 0.04522699015859953
Ni 1.5195822021267595 1.1465526593916013 2.1930443642718904 -0.7389533033860112 0.4873788294739864 2.3580834077186164
Ni 1.1929853759074085 3.55279556698403 7.991196301826245 -1.2160724028052026 -0.5584852585025091 0.16252097348677816
Ni 3.4596293330798162 2.893011640882013 7.156050936105518 1.20104739015128 -0.20234838989636117 0.3915062492443774
Ni 4.231575523949601 7.084079313988221 5.7088468930329626 0.051633150795259465 1.2884808384746003 1.8911232511102978
Ni 0.9431839239804949 0.25826307162491596 0.050688593104191715 -1.972958636520551 -1.1444651228808613 -0.62350177258321
P 0.17153671094771766 5.712937784900316 7.8576799096573025 0.30967626315076346 -0.048835533445464284 -0.5042172411875638
P 8.908090229541546 1.4905503603319332 8.08950623065191 0.31496682212574145 2.0696663110569453 -0.21351931891151615
P 2.022676219138332 3.5405447678090707 9.988020964759142 0.24740208770189 -0.38591461408921274 0.9550468107826068
P 4.139922409586342 6.474009568466732 3.699174386768884 -0.7726774351113337 -0.8796342981795625 -1.888922129693921
P 6.971278986763424 3.937319349123671 10.3137144768429 0.49279665805544814 1.3398249972745313 -1.4619868502179725
P 6.655182845551181 7.735778077241884 10.164589253939434 -0.881033235409618 1.200043374366798 0.7441279056084152
P 2.494031186501683 8.757543950394497 5.762131488819467 0.23667056021699884 -0.35564630212297454 -0.3337759844124445
P 7.0946711507749045 4.178680146261884 1.339661350493679 -0.08862823996236995 0.12144014428606827 1.1407802178301063
Ni 5.848890664137313 2.603495358594013 0.28896299098597583 -1.273398233109865 2.4875713620098256 0.9546619166393623
Ni 1.5879733823423274 1.4008296636956767 6.801980963522083 0.21094050244074636 -0.9082735591828099 0.2383399774996218
Ni 7.3055872535348705 0.9824885713334909 9.287153108566812 -1.640585960213536 -1.3134063980716864 0.07860685117062592
Ni 2.8898942500205274 1.5638728518225404 9.256788627754593 -0.80179826373669 -0.22106653513115476 -0.029780059475910003
Ni 6.550713790979593 2.289021719058216 2.6179283313720125 1.334433651055631 -0.4020930236212881 -1.3363398669394082
Ni 3.9679736925949434 7.112509554037849 10.482811966169175 0.263615721347275 -0.4531044816721487 -0.21484832213558486
Ni 8.306087416512497 7.398124540160013 0.08770624230763595 0.37728084967361475 -0.2663521464418316 0.19805721872017504
Ni 7.804123681567663 3.9790577489913352 8.18137172866158 -0.6036073476521282 -0.47567748187665815 -0.9421234178527194
Ni 3.04696699658519 8.661861927373996 12.245302722651342 0.3804016546907836 -0.09910702800650673 0.7146417232238402
Ni 0.11633428171894256 4.925623403994084 9.88394842042871 0.6765330892775768 0.6375412813954118 0.8859090754446808
Ni 8.85295251807627 2.2968516569237596 5.587137390872447 0.2992789790768394 0.5088776227777108 -0.45668345727265863
Ni 3.412658821064513 2.8390224418393886 11.624386826878153 0.7940574434490066 0.17585420026057455 -0.3280455096865705
Ni 1.335391801138358 3.4009640477449645 12.774766037976338 -0.37128760820465734 -0.19413731484047858 -0.07775787290676932
Ni 3.6432090171450615 8.938407311428389 7.650014279357003 -1.9397021884602657 -1.116184273658297 0.9304400679775202
Ni 5.905304500516648 8.342548128342735 3.315661477864737 -0.5174445385111153 -0.6706030969463871 0.4620604053138559
Ni 3.0776122248785045 8.712779311444923 3.4741261121035185 0.9966490597044256 -0.4583487607902235 0.36775362690946983
Ni 3.779079859780441 4.932295714259018 9.558975007403598 -0.6452376215984049 -0.041554683513334884 -0.16810181000866534
Ni 7.660814853718915 6.069970190319957 11.315235539751775 -0.5711947356493775 -0.2656103831798007 0.3930085448215167
Ni 8.174418670915554 0.16382071280664368 1.9675284809773026 -0.0745337095425168 -0.37571736184123683 0.6098417585976142
Ni 4.8069255566307465 0.6519740416279807 1.5306380014714835 0.31348278138104724 -1.3851399191612466 -0.25232549314543645
Ni 6.293802500245783 5.721187020951906 0.09210340415436256 -0.5060162420695157 1.2655116312729364 0.6974083900646892
Ni 8.225254018384861 8.750862524951605 11.362396558986392 -0.18149082972106162 0.9287485392077102 -0.21019154008986382
Ni 9.098816213125518 4.733867405300908 5.731113449747688 0.4831959017408904 1.2927018185344834 0.31558748642887585
Ni 7.610398804435654 6.444093554410022 2.3660367691394306 -2.1625913786224564 -0.5887617979988634 -1.5560820268321844
P 8.715714398747258 1.80151465635407 3.2946628424039073 0.13790548893094315 -0.014818295959755125 0.985611056722709
P 2.0228311771636105 3.2810356513573566 1.473498596926727 -0.22786453188959468 0.7503553745753657 0.3012546147459715
P 5.098656827162434 1.3129228874729744 8.274692009073277 0.4644343048626711 -0.11738911414514622 -1.1123733845526391
P 8.610206213888508 1.759047042249801 12.303082012688717 -0.3793655001167854 -1.3379192956113861 0.054369061669183795
P 6.409136846942782 7.961533689716755 1.156899297891227 1.0158287179566698 -0.2710711491840557 0.4518819221189572
P 1.8427152607222381 3.4953426003175343 5.817363086617705 0.4610391631381931 0.0164997974272361 -0.5651197330998913
P 6.896279302528626 4.16954673794841 5.957829801979287 -0.7169297479270685 -1.909488640991363 -0.23691481501732103
P 2.2507197412805517 8.573307973516307 10.261190998415852 0.2813326790110639 0.9207817189521497 0.09956596992079626
