# total energy = -340890.6140326451 ev
CRYSTAL
PRIMVEC
9.06954693852317 0.00000000000000 0.00000000000000
0.00000000000000 9.06954693852317 0.00000000000000
0.00000000000000 0.00000000000000 13.27419870838178
PRIMCOORD
 96 1
Ni 6.317057394405108 2.0257558803633757 11.510986528258154 0.2478317190401409 -0.08837935717635748 0.14914275240765926
Ni 4.9139803333462915 0.48997320749984785 6.2476209425204114 -0.9434637339306977 -0.9996731912427299 -1.3470706230933511
Ni 2.6907894841900792 1.669894064454307 4.821295004664152 1.3958326229884024 -0.6969263082219481 0.2396985484100452
Ni 3.325585218295835 4.13487903681402 4.558917544528529 0.08779905919285524 -0.1325442246190298 0.6648330272318292
Ni 5.32896652619323 4.485036107655759 2.946633242661943 0.37415747355328466 -0.11770690249588116 -1.2188617926248815
Ni 7.40923945361498 6.19294971316292 2.5813672134614376 -1.240884833863192 -0.6485641148684765 0.04187041498154079
Ni 4.947755326399924 4.643571789336074 11.143079446969246 0.3368335402918457 0.08312530786626975 -0.31825603439997446
Ni 5.365344479237838 7.8486317974574416 12.387509270919562 1.2114300189371847 0.08277229540222518 0.7591490616075958
Ni 2.107064369280082 6.193167382291086 0.49539588965526316 -1.2376411301149137 1.014319737511311 -0.39117431982625533
Ni 2.8605169868768883 1.5653493961059666 0.473308821829401 -1.0583365094118935 -0.7441549021916086 0.46079670811008383
Ni 0.8579873094434392 8.992773291469748 4.594717767428798 -0.810219912141482 0.06210936773623496 0.16564254983489538
Ni 8.960685234159396 1.7723618065380713 1.349959445103604 -0.14637958784022534 1.2026916106229222 -1.190776090132259
Ni 7.13645468828896 0.31643105334194416 5.0463458371382455 0.09628138563225354 0.9851608565591679 -1.6562532344371477
Ni 0.7746182194467691 7.317845628426619 2.51550053527865 -0.04620555202178494 -0.5469757152010127 0.49974172191471355
Ni 7.417483671844237 3.8760704434256064 3.995493703638738 0.8494611170302918 0.26736696085959116 -0.5751280092655128
Ni 7.753338067056121 3.8683250502817286 12.389632451873874 0.4564944811903041 0.14711672311656598 0.6004883424071722
Ni 8.113090718631142 8.812978591605297 7.229712305387234 -3.2649845120339314 1.2103139030548704 -0.11649077070059292
Ni 6.88662494643736 0.6342388639195331 0.518892365085995 -0.7257419469020598 -0.20107183717678273 -0.9896646579667924
Ni 1.744763174996126 6.612225801744114 9.197068465618589 1.2773556750957162 -0.559218794234424 -1.3696356528780607
Ni -0.045359525445524004 4.889410930504645 1.4302548656196412 0.8536368456745363 -0.8841671530529096 -0.6134533872082725
Ni 6.187489845864777 2.1942952723922824 7.256632534813065 1.426355217057292 0.5606529555777893 0.24635821981840794
Ni 3.572131784130943 4.301713354005633 0.5716072931541011 -0.47412659244977057 -0.2050825009980726 0.23421078582259666
Ni 6.26924274258482 5.852487988071538 4.867370117368519 -1.2822248302625596 0.43878497972568303 -0.45131679364410654
Ni 4.932382444223257 2.7060626013496707 9.437703500714612 1.0749949439041808 1.4123244499958387 1.2603581120964553
P 0.29105355386198484 5.6278262391640395 12.679223087803646 -1.0744020475151883 0.15123074528493957 -1.128898378790856
P 3.873240744759459 6.080695929858729 12.452552434234123 1.2953109740225563 0.592188050071593 0.6899475629112699
P 2.3097506057899033 8.27568955737054 1.4147377776455652 1.1728855830050833 0.7688637177921984 0.07956792953231459
P 6.280942458223699 7.754635012278105 6.042348978158927 0.5991647384997423 -0.8373771892825643 -0.24532720745073233
P 4.675414968877241 0.9337189339056129 12.81797808746195 1.2089247360168276 -0.10698231698952544 -0.9198656348957835
P 3.997965155198114 6.100023134530397 8.284905124084235 -0.3604442377322502 1.2027700292693415 0.22792803813767842
P 4.918551385037761 0.9260188884967693 3.9523797980321187 -0.31971127878926225 0.30869127352967485 -0.7005099118081484
P -0.044786330074689 5.3688090461944675 3.697462040309658 1.4465432619693925 1.7676848454472782 0.6228965348990433
Ni 1.7965865665934557 1.0874205470312595 2.70930405744993 -0.050570770969016125 0.08400513936806178 -1.04362568556428
Ni 1.920540065536526 6.442480159963292 4.911215028463893 -0.4287322234753713 0.4489035562169237 -0.24545370572626762
Ni 6.038041850285358 5.842928685526284 9.17888311691509 -0.13008702132778888 -0.674654127087309 0.35007729267562937
Ni 8.92225756349123 2.50567096023259 10.055325140608133 -1.0643510910370897 0.23430257420545456 1.331659173634287
Ni 2.6201830607414953 5.027104793163143 6.720527983417407 -2.011301240854491 0.2020704536446262 0.9132478724689497
Ni 0.36715612279674015 0.32646287928625745 9.142935967353308 0.3406472576109811 -1.0010114504381793 0.7630800212308859
Ni 1.6064253745001398 1.1666521096833893 11.32874577156595 0.1302104342795306 -0.33626635493446605 0.04477036223715515
Ni 4.2356961213425315 6.742029158506624 1.4591132572408425 -0.11883844499716308 0.5062620395317345 0.7494246352309804
Ni 5.573835225832064 7.982325989885903 8.117729791925163 0.03583680719295118 0.1784394444892475 0.013133966278796736
Ni 5.509105868843941 2.7397106207452064 4.893892193680746 -1.0826622306414515 -0.2248565983012063 -0.014209458731162625
Ni 0.8627071017058211 7.78878185675902 7.021321323810083 2.2210729197981167 -2.3922081173164673 -0.4549032254437843
Ni 4.866201959714032 4.714096586861597 6.84497305180825 1.282509451382514 -0.21769890421050248 0.2901998995937067
Ni 8.240626688641932 7.1878971589119995 9.222170250869539 0.2537732813355565 0.06184223011777737 -0.1301664684154726
Ni 4.254442875005759 0.5071618129872926 10.496639321461354 0.4757157913137613 0.19653846808280345 0.11290459601123136
Ni 8.506455111413674 7.182382874331815 4.8472067004628165 -0.6042023009236497 -0.40830660863116786 0.012058473826430846
Ni 7.469016837937346 6.077603214329382 6.919600912399686 -0.7765063219391207 1.1846134129649728 0.08324229306010825
Ni 2.1678121951321843 5.3372923703455495 2.746272438004686 0.7931056210586986 -0.40125407265976054 -0.49803245253309064
Ni 2.180709090975972 5.4560036711186415 11.366497760982101 1.2956693858032393 -2.311987127581186 -0.04709695348780276
Ni 0.8413991079678501 3.4906691129151195 3.473777988569501 0.3826392857720507 -2.0908195480957925 0.5749097226071195
Ni 3.7809399648704107 2.74880737639311 2.6083273488940977 -0.8097640555509861 -0.8835035513269818 0.2719784914896735
Ni 0.9248942646679157 3.46049473002322 8.047483429492752 0.4119601462233551 1.0487236689124777 0.1999930022903072
Ni 3.6288527311119894 2.7007297077096233 7.1678416696156795 -0.01605705346286267 -0.29250052270242527 -0.8695889981284184
Ni 3.976198242381595 6.9244358879090555 6.185006603894292 0.8660984684766567 1.1171785192507664 -0.6976040510152631
Ni 0.8122677229817418 7.168125546436995 11.198154271168542 -1.8424134446094205 2.8390655896376393 1.3413234361969288
P 0.30409556245788255 5.783895004058483 7.796056540413241 0.6066497340228778 -0.6173038713026143 0.6538719002346352
P 8.380488173035074 2.0188720941851512 7.986368286986871 -1.1161909585265164 -1.9682301206966295 -0.1948070872139935
P 1.8580962343941363 3.3503904293596602 10.500037680724832 0.6451080379990761 0.39066909805506267 -0.3762392957829778
P 4.106373450571386 6.048000212898915 3.7539172495634023 -0.6918864318051955 0.8356848891818058 0.4620352085028752
P 6.955127234980348 3.994328266848354 10.302291626469659 -0.7349349262552375 0.1366649316556227 0.8234837191299238
P 6.394239239433681 7.80809999188368 10.226655232251057 -1.03736299248402 -0.2748450144041911 0.2999793475779737
P 2.593391618883163 8.73074500889389 5.928761971444724 0.13110209285586452 -0.7118358783439288 -0.6528064350845983
P 7.041297001092743 3.94079980041373 1.3415837184427475 -0.3307202283052562 0.11450613617039634 0.8155554654217826
Ni 5.350071362078247 2.7786189774047343 0.7793053613399262 -0.19974823326935276 -0.5525372684491904 -1.1336418070131122
Ni 1.182814042449655 1.0488749722520065 6.908861661788836 0.040667652922691255 1.5908744519210214 0.004901036846043171
Ni 6.824425993064156 0.7563176874962806 9.329544617884029 -0.06236673516267968 0.06826021782897922 -0.1355290182789666
Ni 2.381880713135644 1.7762345031100102 9.086878911213164 0.7511992106328998 -0.5981818057611826 0.0169098883814612
Ni 6.719554821023568 2.023016877167297 2.616278620755032 -0.15096463610774646 -0.36717487158786444 0.4272103875142062
Ni 4.120721473936276 7.103078755303629 10.400162015175635 -0.0305930422955086 -0.6165703355706993 -0.8783788285059067
Ni 8.163599025912474 7.496787790872422 0.38852488249965716 -0.6413326301170439 -1.6074650092898508 0.00917241052788743
Ni 7.611127569988196 4.192035322051397 8.249104901183966 0.48168872106774463 -0.9738186920734713 0.10295288411515817
Ni 2.9852323277685366 8.33685458238496 12.43582728259873 0.07945711498606316 -0.1818780378571513 0.10577107029024364
Ni 0.09186997640622147 4.989720120400772 10.309937254596463 -0.705639776835546 -0.7603703356092066 -0.6341613091795852
Ni 8.275390262319315 2.4386016601166904 5.723794743862672 0.46172050547593385 -0.7730489595181397 0.3206157928814027
Ni 3.7257971190685617 2.7510475545038098 11.89390824461696 -0.270517847783747 0.10608114533149472 -1.1279015620952253
Ni 1.1139943197614266 3.125166368537734 12.559223911355577 -0.24350043865463872 1.1087748685681034 0.7757918123705994
Ni 3.142253395098702 8.4855407360158 8.101748343144335 -0.12556625063929988 -0.2665251816845861 0.09632586571694379
Ni 5.557219815715455 7.877545513315384 3.5557195318672874 0.07271645382811993 -0.16004114448771792 1.3430427328808805
Ni 3.1081337592588083 8.252344543374825 3.6672495653203288 0.2530392313830094 -0.014286334715685073 0.029485411053626637
Ni 3.2012145201904487 4.243867783195733 9.001114553851977 -0.15657246921282714 0.408650879344464 0.8822305981518289
Ni 7.4132844715800505 6.247829542101569 11.597070133673986 -0.3757685267941464 -0.24391412915328964 -0.35623739873975424
Ni 0.7778088860837905 -0.09136480263793809 0.00022583172047138696 0.07875648937461274 0.07278973026821657 0.2680053657745385
Ni 4.647852615523323 0.35425469217944905 1.8083706290194987 -0.24877917055507479 -0.22919044978986977 -0.35089464637060214
Ni 5.819366002402402 5.388109042225114 0.10118893595579376 0.5529391318732992 0.17387933592239088 0.5300491146490033
Ni 7.7475335569717165 8.739896181823834 11.562384558100863 0.845740473645595 0.5044620102085183 0.014820609952600282
Ni 0.293421612585482 4.678117693885292 5.8370371077906125 -0.4795583049883032 0.4719372981079356 -0.21025067546257337
Ni 7.957157996941803 8.597504293815772 2.5289742543120752 -0.11895774418384675 1.5151099552951972 1.0100298518867055
P 8.705350277274617 1.4497852281442631 3.433716892485398 -0.08497341681860204 0.08340890054495957 1.9786130065928504
P 1.727966373939379 3.22923035089471 1.4054986301096535 1.0066231401980017 0.2912257697550597 1.3434746782119769
P 4.5818716610482495 1.0814255764597096 8.282754734488902 -0.034560768694005 -0.9783250645842572 0.468458852641032
P 8.647940044721048 1.5347487445047432 12.29371382968378 -1.2146649809347143 0.16236979262089454 0.2069277817369275
P 6.234098247933148 7.692227459323743 1.5554835428718792 0.08648779658059944 0.5607203184806149 -2.2470670298690334
P 1.7490893489184094 3.0649989936940725 6.095061185362931 0.17471751555297005 0.4230282311120586 -1.401477994199638
P 6.727826247893845 4.057942069554632 6.125764322845332 1.4138555419283845 0.40837088621019996 -0.1885564783185914
P 2.3043542253208082 8.544501861107547 10.163337096777205 -0.6075866440148504 0.11185121504605254 0.13696446517391248
