# total energy = -340892.14615995367 ev
CRYSTAL
PRIMVEC
9.02043007635196 0.00000000000000 0.00000000000000
0.00000000000000 9.02043007635196 0.00000000000000
0.00000000000000 0.00000000000000 13.20231121578927
PRIMCOORD
 96 1
Ni 6.039980593964986 2.0330695787577135 11.201355085056035 0.6542385395454345 0.5878148607045619 0.7319593885666814
Ni 4.579140022761694 0.17620778256018282 5.894766106280922 -0.041371620968251324 -0.27526230444726785 -0.20728696484855916
Ni 2.755209109769216 1.4874418187918923 4.8579488804141135 -0.41516039832820756 0.5863426470344095 -0.06982910497799587
Ni 3.1578359955329116 4.191965133308365 4.644836715305787 0.6729011489519443 0.682207771064851 0.27283132640827207
Ni 5.064493270558298 4.424105895157333 2.5978711643845473 -0.4434255638214879 0.2860478250985461 0.6404967644793098
Ni 7.24787027168591 6.103042418953762 2.623536993399075 0.6038906832205019 -0.8409314822927259 -0.4964720500245063
Ni 5.001792262762993 4.285732501461465 11.66311900678653 0.4084009681171869 0.3404515966604072 -1.011184277206123
Ni 5.585847053833403 7.83215057350224 12.264656292923561 -0.8232088682019822 0.6436931599294204 0.17906190856459483
Ni 1.9536988166240794 6.516394595793364 0.26077611636575687 0.31309145947989947 -1.453966551016657 1.2821914059214627
Ni 2.647423993649794 1.6268525619189882 0.2890632822908465 -0.5686629703664594 -1.1150650724521893 1.8787192210189902
Ni 0.43086263523871565 9.111265565214206 4.886914382662927 1.0479273982634276 -0.08600802873070348 -0.19181586579615353
Ni 8.340902816295394 2.482070494312182 1.5032807915422557 1.7050000648235475 -0.5590773835605533 -0.39906863497266754
Ni 6.999898655473431 0.6785113200630386 4.8458290308854455 -1.330166648249161 -0.020677840064325676 -0.41480018677531144
Ni 0.7805919163536947 7.3921430264950185 2.517799514852597 -0.12181012603097732 0.2986017505041567 -0.36571577054383464
Ni 7.274606825722062 3.6181124483833282 3.614291394304477 1.6520019153599612 1.136102866959095 1.3248917730034666
Ni 7.521044968862292 3.9847929212475424 12.39340488798361 0.39304608292767146 -0.3553321133166654 0.24080720809319173
Ni 7.892154472776355 -0.049541102706458895 7.129248011160607 0.5784429325713586 -0.2561698065921911 -0.5762387258311882
Ni 6.772944640780599 0.6963834976986073 0.38938669884930216 0.0791706940938959 -0.29204518033256155 -0.2673798163753976
Ni 1.9514617500245632 6.306552336500861 9.243624136294924 -0.5826513142257514 0.8380703586948469 0.4314167122860699
Ni 0.1929623289389772 4.869191944162649 1.3277170676724175 -0.5345372323273438 -0.5790661679776544 0.29142888690480134
Ni 6.019423034367015 1.884963141267983 6.822953903795585 1.1813756227539656 0.46788549663606516 0.5750351924413902
Ni 3.236656511446504 4.1076060734750035 0.38052502857767107 -0.29509836533658856 0.5316799653842069 0.5462357517111948
Ni 6.277028469645152 5.667400759987532 4.698795122503306 -0.9212092934078716 -0.7423682426048313 0.34955870116799803
Ni 5.363439335778296 3.1354292478184047 8.871715422297322 0.1590049899137197 -0.2901407642209971 0.6032430223341739
P 0.24611881992400872 5.58293345499613 12.446901449173486 0.5586487806635669 -0.7154742464274646 -0.8106384877361393
P 4.208048559707304 5.951445075117206 12.732599209092239 -0.7614900510359467 0.8844885409480703 -0.6285269937119433
P 2.4708761408847653 8.253179136132921 1.4244765124023702 0.038874308467694345 0.9507816077483496 0.8494857996206402
P 6.495719770607514 7.736687364539829 5.682749923397759 0.0360221837308799 0.023558504046230395 0.49589046648942336
P 4.638774084412502 0.8063344190218349 12.753445422444987 1.1290539305321137 -0.03177215020527431 -1.1829334541593886
P 4.097728702803754 6.242886142713022 8.140201860599461 -0.4333450396570343 -0.5213374458076183 0.1817091163794548
P 4.661595771899499 1.0272916519591906 3.7749371313102853 0.14462455282233155 -0.585241957771063 -0.2040856843024421
P 0.2849427499414154 5.577891034717382 3.525148800528683 -1.0999477571947764 -1.5644702508958797 -0.4719486109618453
Ni 1.5277450993025272 0.854578383917768 2.66084639324689 -0.4925323486504679 1.3550377004592276 -0.37204865474039794
Ni 1.8044738458345908 6.516538922670751 4.662238026503877 0.9100252517665939 0.23081872942191217 1.2206510233148204
Ni 6.087536300064376 5.7717490923391495 8.900931692495599 -0.754044907611811 -0.6794098966047396 0.44176077452455537
Ni 8.421401132158623 2.4428045632327744 10.449800834389848 0.2629464631943923 0.5656167273409678 -0.3943624877462498
Ni 2.4886644285228527 5.468563425095874 6.85024341018073 -0.9455627825515716 -0.5420191425266858 0.18949415964151234
Ni 0.5497861781205665 9.050467868114456 9.355936606149415 -0.238546437083473 -0.4337479315224078 -0.6546144348276145
Ni 1.3530644755137076 1.1562386964756468 11.333906693335258 0.5663741743322827 -0.9150669279555596 0.0821464888927682
Ni 4.207985416698447 6.534552721054757 1.7112305646550066 0.6309006361504425 1.5979465282764544 -1.4905512921192265
Ni 5.842613589136721 8.1905232304868 7.906177633000579 -1.5594409160020883 -0.5720275159633181 -0.08557788317182036
Ni 5.176121089788179 2.7664575857756533 4.806591965181515 -0.10777755919731116 1.050505700513565 -0.2990210974297624
Ni 0.7052947803343406 7.448989775326268 7.099899140643731 0.3107376145357422 -0.5593571195845011 -0.7391811031261011
Ni 4.7503928832125455 4.388448136012629 6.726353218630759 1.3927560409456077 0.5755949215996022 0.06091071944244349
Ni 8.057814666728415 7.012391950797341 9.036929104972465 1.363626213459187 1.0488794777640515 0.2562574812099909
Ni 4.5366718390902365 0.42714351201702033 10.284415763547806 0.09175804384060327 -1.738626237518425 -0.3005089948291986
Ni 8.274485391407344 7.169221143939217 4.619567785204076 0.05512522310891796 -0.03227531509393796 0.08969601910525198
Ni 7.513972951870273 6.045744648630675 6.829001199958149 -0.6713590012758051 -0.025923147623665033 0.44996953558759284
Ni 2.3779386522766472 5.180099099346188 2.44618993055051 -0.7082167935341029 -0.3184905190082838 0.6001579556509471
Ni 2.4266128916757936 4.989353090018103 11.565633417454718 -0.3733614600145505 0.7138991886308609 -0.8351490712829939
Ni 1.0311523959293232 3.335069400965534 3.732821646445445 -0.2266286025999645 0.45742444920374126 -0.21317813352201348
Ni 3.5185449438451926 2.577524682844756 2.6173976888521775 0.044921800213354894 0.03616693683886029 0.07017543257382108
Ni 1.3645114009765535 3.522703361999938 8.3487325493937 -0.9595891787376506 0.08122731951260849 -1.110474110647397
Ni 3.3985461657268003 2.6034133164762516 7.1569993635533935 0.34128566252592835 0.13516906383638655 -0.3931743809754196
Ni 4.618802852753919 6.73585263329185 6.0961805779769405 -1.1874231144996261 0.24717428796180016 -0.606750264156484
Ni 0.9031615169755631 7.533520223326527 11.560933773509767 -0.6579291010231443 0.14855062734961513 -1.002930521837763
P 0.3122205297677717 5.480488433340069 8.06798520136936 0.2989727606903303 0.5430295860690713 -0.9481341428231737
P 8.720311115659273 1.7277099879237798 8.231891823761156 0.5168966364274453 -0.026925106525618143 0.5494452597874279
P 1.857216299090115 3.2111737971576617 10.390020641775683 -0.18796152504706984 0.29583395795103246 1.4826112113365433
P 3.8523279090947504 6.25813968956698 3.7549352301902577 0.8630661094082362 -1.7003695080300714 1.7079167242497102
P 6.866197844433004 4.1450859594467335 10.27011748021356 -0.8279533248655032 -0.42818020762664327 0.4698755304829004
P 6.316294400724559 7.834739436865389 10.003113659088505 -0.6520795842209028 0.28068990322074244 1.18653556968835
P 2.4862289124669275 8.368604556324078 5.731558567201473 -1.0935467387644393 0.1413361118790469 1.0688140119044496
P 6.745432329778487 3.8869753800977387 1.4234995998510491 -0.1445564185885575 0.8786981595185382 -0.65138641480862
Ni 5.0065189679974536 2.7417325875931 0.3773471311461812 1.7135453832903973 -0.20186965048772973 0.5961745455231667
Ni 1.401522224596772 0.9167553047395575 6.916334295508689 0.4975575697792011 0.6963552662098266 1.1586925793341527
Ni 6.893863502742341 1.0521609770191327 9.109158392804337 -0.9135494628697686 -0.4198063817406512 0.1275969079160835
Ni 2.6813408098360045 1.6343034369641503 9.241986928279552 0.10179691613384403 -1.3434661935715442 -0.2747182590183398
Ni 6.220894334771006 1.9580827455247436 2.5080565485859148 -0.7877512987253207 -0.9372516915827148 0.04222317033526922
Ni 4.166292989992951 6.654064395961965 10.429706924885483 0.38735417474921674 0.983273666838784 0.4771093292271783
Ni 8.280447895529441 7.048645058311273 0.42965209355462275 0.5666989046615531 1.2895766426419404 1.6055690778187188
Ni 7.812819792362068 3.8768093556717123 8.28281305223264 -0.18270027664813052 -0.6416439907098755 -0.8223048683304742
Ni 3.0501410837118574 8.305795303370731 12.532716406382502 1.0710572994126717 0.5419535793960731 -1.0269191714428765
Ni 9.159344456244126 4.915728341690484 10.35364846458791 -0.4734051409027137 -0.4634251468718665 -0.12500240771602988
Ni 8.522303660312598 2.091278412494313 6.105989393381431 -0.26108961249131163 2.376317928448772 -0.5902196134913126
Ni 3.6114373303041267 2.2594011837918093 11.56295344775022 -0.1184419808896928 1.691876897178028 -1.7618047325174173
Ni 0.9837139554178125 3.16791181566057 12.544175960447118 -0.275638456839764 1.8210601757446252 0.45182972872478316
Ni 2.885770811226452 8.17397074173635 7.984110538618233 1.4951885337809216 0.5842405130897422 -0.09697789747864588
Ni 5.674463756549714 8.003006535040274 3.41591319929151 -0.060049656993728835 -0.4519415717122991 1.6568744129609143
Ni 3.1214295407117563 8.333848840163048 3.657449640858446 0.7111496509101817 0.038195280122798735 -0.5270244688900665
Ni 3.49197977797594 4.535481142351785 9.377693882915676 0.6452602473062242 -1.3020575487177706 -0.2788736759476101
Ni 7.520404518343882 6.768299119414669 11.525498818982031 0.31323055616092504 -1.5347254155332795 -1.6503540953438933
Ni 0.5768970799949428 -0.024511213995422654 0.4315012816711581 0.27162959279068705 0.43991138002064234 -0.14106203228205383
Ni 4.608095602537688 0.266941580159181 1.6772614299757431 -0.9999300444485425 -0.4762816911195604 -0.5844572570862385
Ni 6.280618600720182 5.808958365415777 0.3084644227837457 -1.004883788909392 -0.753085114801703 0.29639420132987665
Ni 7.771082263507387 9.184782068383782 11.249148028460128 0.1910118818376194 -1.143069013864283 -0.18088096405120463
Ni 9.116948436011361 4.7751178813951 5.632356390071727 0.31895074647415395 -0.7559158993822789 0.20844036172671196
Ni 8.06476039770272 9.115865984430952 2.5778566346627483 -0.37217669567783 -0.6343829382720881 -0.3151725103786443
P 8.574459785628733 1.7929367160733773 3.8157717151383053 -0.2797666200755246 -0.7412868366151943 -0.9749803164817402
P 1.6731544282710673 3.1362501069335496 1.6005823641053976 -0.35788804696929977 -0.3498327807649911 -0.26221909811006455
P 4.526929774866538 1.068406771155134 8.107895191139113 0.41157165253568473 -0.6461447067937065 0.7691262274249657
P 8.575055133997958 1.6093890097550243 12.568903664758624 -0.8218469548574492 0.06562457997834505 0.4992732669187272
P 6.442120376517497 7.744544158927646 1.4547229156880035 0.01279766598530054 0.4277595751494569 -0.9221487745030055
P 1.7154963259248093 3.1869900247653136 6.014074821516801 -0.6057069104936342 0.09339480811307786 -0.6707609626804899
P 6.848102862180467 3.825392905602191 6.0340235021007915 -0.020165933424913657 0.8551545678706434 -0.20250317030667062
P 2.469983118330926 8.314545120312387 10.251607558188534 -0.018322709568587798 0.5069924899398559 0.11266779741007693
