# total energy = -340892.61512720183 ev
CRYSTAL
PRIMVEC
9.05718254140800 0.00000000000000 0.00000000000000
0.00000000000000 9.05718254140800 0.00000000000000
0.00000000000000 0.00000000000000 13.25610216339212
PRIMCOORD
 96 1
Ni 6.492903755798271 2.1052604998912035 11.264849594695145 -1.258250064614517 -0.36320097454178096 1.0747699723775685
Ni 4.33913298776411 0.24991845275875568 6.0910592222223405 0.9185106635297858 -1.4324271342829848 -0.22844971496910335
Ni 2.6114664159684846 1.4402550073855271 4.884979473404738 -0.10361340051729252 -0.29617411489927054 -0.9963253578164197
Ni 3.3999031882075865 4.474392947518952 4.891633785205452 0.3175122142554145 -0.9940815560875655 -0.743857682666164
Ni 5.269821864456778 4.614860787068827 2.5023146897739283 -0.47984883964552844 0.3235301383147202 0.7072922248373045
Ni 7.36035538600585 6.261067061687872 2.6797213414213097 -0.6198775455670614 0.06979953729164108 -1.0627690912619503
Ni 5.360964289460995 4.361902743946223 11.859637470353936 -0.2788474506953649 0.4131405396847014 -0.8312070559161104
Ni 5.538521290333763 8.025179734866482 12.531907728744129 0.08497675925271171 0.27644295501893035 -0.014905456356922716
Ni 1.7435981553773021 6.300828091775173 0.6108580341289284 0.8606664988278081 1.9512603256115104 -1.9321601144469496
Ni 2.7415003815637884 1.4323480872793284 0.25487907147830346 -0.7505505213053074 0.871051441606558 1.3205358100276159
Ni 0.44813307491241616 8.966112284686425 4.617524504369209 0.5868802647054344 1.1449392343038025 0.9164093009160669
Ni 8.866483279911865 2.3201149772786653 1.5793452495148386 -0.3270659193821206 0.33858446154468136 -0.6168140761503893
Ni 6.839911579428059 0.6745843684556371 4.899256309788932 -0.06077702207805662 -0.11791773295510659 -0.19163434591296674
Ni 0.939537743753099 7.49195624413079 2.785345295128621 0.2770790459410325 -0.6012151932708678 -0.46802253643456165
Ni 7.574177344616557 4.005783394970687 3.5540537129859104 0.5721622417689695 -0.7413688548060393 0.9289256882155228
Ni 7.686549804820008 3.8259168126236003 12.608833094767016 0.3659852221551374 0.8285562485568246 0.132576620518862
Ni 7.630331874580401 8.833995167173107 6.960858474069698 1.1911545565176 -0.005239651132384525 0.22136401176691553
Ni 6.945617953493866 0.9960817325537873 0.3098027303740673 -0.633285077222219 -1.0624168501288542 0.638667424580055
Ni 1.8299583881523405 6.332482943746727 9.236970942812341 0.2831316798930156 0.2190119665949712 0.13419230174541405
Ni 0.09636570200907944 4.848699118456969 1.3900084774048165 -0.5742828876563981 -0.524935961792154 0.20994419996574815
Ni 6.406036320817108 1.9588058628726015 6.980914698449041 -0.2865489331046807 -0.7719986638767543 -0.2806037712648393
Ni 3.5665009985551537 4.3094616587057955 0.5317344899734242 -0.803369721988868 1.6103865538120201 -0.23449694960444775
Ni 5.84390230433229 5.774352201817395 4.709627896410388 0.5959709141527929 -1.5043480887930027 -0.09731291222056145
Ni 5.275238059443613 2.783607221854418 9.222522019965355 -0.22355613432222787 0.2916078356848268 -0.24721619694332908
P 0.14758587908190537 5.558773149849754 12.433985097105891 -0.4358032713895398 0.6208921028745049 0.04413478553568528
P 3.8970519220326354 6.28945227086637 12.540444123016858 0.6156835620903719 -0.6845425898456147 0.5462390941453045
P 2.378334544796017 8.337561950745984 1.3609639053583567 0.40188270738269494 0.9537730862765059 -0.2566140932184613
P 6.130245121236625 7.629770329280762 5.762851391793511 0.7269706771028382 0.7146571498428079 1.0871909717497408
P 4.5755526160941375 1.3520108807020248 12.480261864105449 1.457121037485239 -1.651814996160136 -0.8616165214459032
P 3.9319130165214786 6.075394825517104 8.281312320368494 0.2369220141061726 0.24546193325638369 -0.5765572855128716
P 4.605432260344253 0.9687199849697924 3.979800150525483 0.9224897027821918 0.9463279428523703 -1.2739957574845477
P 0.1943481110501824 5.551128888028871 3.4751665612871894 0.2716930990387708 -0.18643968908590472 0.983605596256906
Ni 1.571765293687945 0.9513935953212714 2.6809268523790815 0.08784122528470033 0.6270393534228234 -0.6999103305509365
Ni 1.7425203506892868 6.175032887473915 4.8359982317846635 0.28042945047050416 1.3606614744039083 0.026397259046606152
Ni 5.994396444635386 5.563120597330827 8.8980656744254 -0.06462673484144998 -0.5727800778586265 0.8890391364332302
Ni 8.58045746438636 2.2949631821642154 10.130935662626882 0.8087214732190845 0.47809200485542175 0.0707115075829492
Ni 2.394999760140125 5.11603996699612 7.054671862120099 -0.4381992824255421 -0.34698914066860886 0.017590459388253574
Ni 0.526845422993669 0.0007580861545118706 9.201696840812795 -0.025605873493562355 0.4149675655911111 -0.010094151011208422
Ni 1.3439409313152855 1.198102182689836 11.255305136037741 0.017071610770306084 -0.07207470647906297 1.7029904905926865
Ni 4.261521993044728 6.989472829959176 1.598725808098166 -0.4680096809187553 -0.45252829745370454 -0.44558477625633586
Ni 5.852126225817317 7.678651941896062 8.009005418800445 -1.7293838929845504 1.2684879402924412 0.3814069560268463
Ni 5.486116433822345 2.9544256791315253 4.788965190067045 -0.922801577595656 -0.08241979715881291 -0.6927143270231295
Ni 0.6067786792425228 7.533229823654214 7.294766895008083 0.516646210979536 0.676881216645615 -1.7280587464152242
Ni 4.9841402218568565 4.651026115801993 6.691123812261282 0.21281817907943348 -0.4652925390979083 1.1370639453207838
Ni 8.250232599469957 7.08396641239672 9.160364389604734 -1.1003887013869371 -0.26412839931763543 0.7743789911834729
Ni 4.7007862750957585 0.2551951671389064 10.37246173031072 0.46555967671636594 1.3908282277952757 -0.07401357537298867
Ni 8.195563447395482 7.162238581420514 4.77655775609971 -0.6821175253438897 -0.6231068511376365 0.2997536047204128
Ni 7.369276710524299 6.125173099175375 6.842150514880811 -0.937335766656089 -0.09897513041433277 0.8395618556387088
Ni 2.3695671923758557 5.3095285514505655 2.510520496894451 0.2138363359313027 -1.2062057944237679 1.4369684737967638
Ni 2.1265720497307066 5.370410930550073 11.611085746397043 0.38468305567495686 -0.5989793619618136 -1.2208250869988393
Ni 1.1260432406910732 3.3620532235755065 3.8655718736785505 -0.333041163128949 0.10737055356687959 -0.3479317070875363
Ni 3.791762178350431 2.7581293681788877 2.65067676937485 -0.05390831998268135 -0.9505008432831372 1.0527194203354322
Ni 1.0623712494578779 3.2564283641499694 8.121774583586543 -0.10589911122767567 0.2704643688379923 0.22184943604376633
Ni 3.7918165214439443 2.3534454079668814 6.874030890690444 -0.09456748826494037 2.055551211811802 0.3824464530349542
Ni 3.940218452646776 6.849729564989479 5.96250157733415 0.22352630952555697 0.06794422925045718 0.23463501784420882
Ni 0.7250310621641224 7.463145347386439 11.21002284764948 0.38225490584943844 -0.13179089139277303 0.23467795526700228
P 0.2527451993396775 5.559126379957592 7.844854859097431 0.27648306422824637 -1.1606880124976269 1.8690184487914585
P 8.503127242316797 1.608791054735072 8.000335883948608 1.0431171213589776 -1.0054532882596168 -0.7603191706562971
P 1.6747816846248387 3.2482044426649423 10.499309379189688 -0.2757772964104734 1.0543636408070745 -0.9524353413016888
P 3.9385972170236263 6.2934827169686125 3.704642953702656 0.3963574066890916 -1.5399357560896254 -0.07001242463339555
P 6.8159372180063995 4.059093969707329 10.178392580473904 -0.2636303766352944 -0.29251132133570273 1.9228887164473527
P 6.449211908613501 7.767665929071003 10.434632946444719 -0.44594961579492237 0.39991375658178224 -1.4639959102282012
P 2.183559840461754 8.208968077128786 5.808002351039115 -0.3400970415344659 1.0461983313874628 0.48601048837155003
P 7.063814181885502 4.1672095542522305 1.4355959928349789 -0.8401208134659726 -0.832349911271302 0.07583931572781778
Ni 5.187917765349837 2.750403591717733 0.6630437068298424 1.6122115228359009 -0.1302808825061498 0.30601989734509877
Ni 1.6616034844478405 0.998835115958466 7.167799691323385 -0.9936421545573016 0.3490424236532118 -0.5732333633459611
Ni 6.954466820554297 0.7418593067887707 9.251844647506958 -1.2531399970814612 -0.8625662869536822 -0.6722691717949003
Ni 2.901051704119118 1.7421127774879361 9.458400934514925 0.42627116352938843 0.3561432963640511 -1.326942227774592
Ni 6.551404095965442 1.797234788675024 2.782190678550169 -1.361008830440998 0.23859554515385362 -1.1378630441833113
Ni 4.289137341731785 7.043354007177708 10.355070128949983 -0.624167431191667 -1.4877577885344895 0.03084835283942429
Ni 8.09754662106182 7.4752819716044305 -0.18353111828634097 0.2758132918547314 -0.15911091936396468 1.779067890473239
Ni 7.562883038348024 3.5729768838654996 8.229507049322175 0.4328714424547255 1.302434215330899 -0.9162668618009316
Ni 3.132834055136003 8.478989851614598 12.281778243638897 -0.5604727212461831 -0.7554294466641635 0.1503023199333992
Ni -0.14005845491207483 4.671739891612848 9.982441348165077 0.964866625086506 1.3676618169811412 0.7434265086660165
Ni 8.788718313094195 2.4434194564605605 5.8237238079925415 -0.31892272144969586 -1.0260372830585553 0.09154104273379074
Ni 3.4721070451223848 3.040903655275842 11.674211589540429 -0.36675141089720065 -0.6441816695300647 0.0722395141917014
Ni 1.1787741557635716 3.407330077654417 12.908367697621728 -0.22584107370166265 -0.20849795443752478 -0.8650702843224586
Ni 2.9345813928168836 8.227453786105594 7.977654888152566 1.381393821855253 -0.4864210935464075 0.7581123928129653
Ni 5.565593208085686 7.943411493493325 3.7428606399341766 -0.006704408603369099 0.7909633779047152 -1.6240493960110933
Ni 3.115915238688833 8.278771780746743 3.7089116036981333 -0.3534055857179139 0.446266889925025 0.04948910786906316
Ni 3.6445286236581373 4.434686260525164 9.72377456306889 -0.5221388586629911 0.3628567038284848 -0.250531120249175
Ni 7.153063655799002 6.110120062272164 11.559784960402173 0.23360991901380412 -1.6831315468852304 -1.903482029785967
Ni 0.605773332012525 9.173385900528768 0.25196447022953505 0.060057627413528825 0.1379653956346011 0.08688348935712133
Ni 4.538010595658634 0.2967929937869604 1.6736758026718412 0.516510199622304 0.7561753236912525 -0.034205699347431416
Ni 6.004431802570861 5.7891244660707875 0.3982859666690287 0.015156653135780348 0.3150809791061025 0.42555228308549287
Ni 7.949389233779799 9.025790058546386 11.325456635454184 0.6206553042733505 0.6151225473805794 0.09934356949734503
Ni -0.027669691780570663 4.925811968152478 5.857447320390504 0.30647755370780766 -1.5926390000206119 -1.412351446579032
Ni 8.049697527223275 8.675983565600657 2.4725283345010105 0.06896470009517154 1.433002032949848 0.38981729157772865
P 8.479370253269192 1.6227844013147714 3.6099944934485997 0.8527742405639248 -0.08345518040186273 0.9067280690725611
P 1.954884102957385 3.191298166574165 1.7033163373104976 -0.4522398196790083 -0.4657172853401528 -0.13403417890099498
P 4.800596423515361 0.9593548585209839 8.144893947003592 0.16021058018604667 -1.069458587466984 0.9144907437371154
P 8.500274229907344 1.8529455167085067 12.4017723227076 0.9611786347119575 -0.7698435652069645 0.2269152806024479
P 6.526062100023694 7.852106039208569 1.3240993621553196 -1.6966583777270714 0.30593068006540214 -0.22485145609488374
P 1.8909041675276135 3.098561677493555 6.002269853167253 -0.141082343997028 0.9782613012258573 0.6270061861920427
P 6.96579735555184 3.8330719866028637 6.0404214219683325 0.2884248099711548 1.7699790407980938 -0.6909880883606422
P 2.4938679616054964 8.764381664382446 10.119217480228944 -0.3402747047629107 -1.5043074653630544 0.4870129614941355
