# total energy = -381160.30087320117 ev
CRYSTAL
PRIMVEC
9.29735421328439 0.00000000000000 0.00000000000000

0.00000000000000 9.29735421328439 0.00000000000000

0.00000000000000 0.00000000000000 13.60761768211767

PRIMCOORD
 96 1
Ni 8.748605657689266 7.450908865752267 6.589162217928468 2.570252897470457 0.8560457122263451 -0.8303699047267956
Ni 2.2954144541330885 5.426475093950764 2.4042753137119015 -0.31634184809639715 2.64983291118763 -1.0903827392141607
Ni 5.450564538400128 8.920708979264784 12.883501618694803 0.09311738608197512 -0.5851380852033471 0.5128204094755426
Ni 6.453284177097087 3.7947243695299275 0.14311417152028091 -0.19985519116086223 1.5377893991705838 1.6904705037488048
Ni 0.5023657930611085 3.8564959901094604 6.408902327609058 1.4383406715539422 1.0285569641566157 -1.050041873503269
Ni 1.5835253487516563 4.550599257115119 12.083823177046035 -0.39798285810765655 -1.8306611891694988 0.5482844067101074
Ni 5.097664869174161 6.165205660592448 3.2292369800752962 -0.7849336267708675 0.6827070792987726 0.9089402462325314
Ni 1.2210215127498534 8.780253851014482 2.9358022578789256 -0.299022125871027 -0.0675973874339997 -0.09318449187448467
Ni 1.1160915744806472 0.38447441345386396 0.2903108112218491 -0.6784886703420508 -0.7053584981497013 -1.4457958422804067
Ni 9.182299333964622 5.7084731408799945 2.253394132584134 0.1406617115198416 0.9441162799130322 1.5165456593004591
Ni 3.680497077169883 2.178992986207606 8.992008528316607 -0.5404438276197661 -0.22978900260581714 -2.15442169832747
Ni 4.601548757532915 0.7452935688944069 10.530091199478472 -1.5157483602101443 0.47022082963746115 1.9508139821027115
Ni 6.6320629989098245 1.5398835686492591 0.30247268010807526 -0.2478684858153473 -1.1163511382534645 -0.16143031152576068
Ni 1.5794995944303232 1.0524883751452192 9.565298257324269 0.12261693820298883 -0.623261888658262 0.41317473535674654
Ni 1.8800551601248674 1.629333412357219 4.405670242076305 -1.0598496036223102 0.487152058175161 -1.8262638314327515
Ni 4.737011206636435 4.440583666158223 12.262600139387956 -0.09560647105241599 -1.318110231305259 -1.3761156041754492
Ni 0.5107269035949997 0.6699329355757044 5.894438817404951 -1.3607872013484952 -0.9908126555283063 -0.2580443979070846
Ni 6.1527193140484515 5.876243895449179 5.72013853105777 -1.0824848245233227 -0.5479164818477273 0.33487333124168134
Ni 6.98017453077901 4.851945097907383 2.997417682909732 -0.22895030875460567 -0.33729145376487074 -1.3888466785888727
Ni 5.743524165802456 6.523283956047012 12.736526256020598 -0.7234228118505799 -0.2282620244383295 1.422816607776414
Ni 2.307036146746637 8.148796155872896 5.261657179040829 -0.6912619108473191 -0.06835329176341777 -0.7455067882338129
Ni 7.6446936170676185 4.229291997089822 4.947770137315431 2.0856986819294594 -0.7181147693741052 0.8231111662818534
Ni 4.08883686883952 2.9052558010134746 0.419280917963737 0.34148492302092803 1.7688040466533859 -0.8906417050336598
Ni 3.538656643160046 0.8734083190599377 13.313067269753827 -1.0853672882774403 0.24281883920658182 -1.172929291758825
P 8.353765624159527 0.5122665454324427 12.94220511242436 0.5755910649448602 0.4732364765353334 1.7586129650529971
Ni 2.2570442738001972 9.144421913398546 11.366483962696552 4.193404978478262 -0.4384566498519868 1.755861113339473
P 5.103168902795938 2.063361793379844 12.182464385008197 0.40327470263421517 0.4169025778302949 0.8000923367891769
Ni 3.6258379324698415 0.15564514536391338 3.992692930186157 1.4209877820977914 1.9382189190465202 0.6074786576820764
P 8.771895529686818 2.233224452619468 3.7130564111960003 0.6685863236266743 0.21735926148289664 0.8541222699513871
P 3.3155294423340074 6.153965159496623 4.703486807255689 0.0766363577078164 0.5659198604036835 -0.24274350588395616
P 2.717765358417621 8.240895745496745 9.46257365144541 0.001707212499093834 -0.10865893336099995 -0.7496763462304702
Ni 7.947117950934421 9.07675577032542 2.739594616087501 0.0325419384917633 0.2927162382576572 -1.5126514664523754
Ni 7.143928828380953 8.530870922235914 7.348004820939455 -3.7149697313508083 -0.13552516162422465 0.07789568403621423
Ni 7.515702126411322 5.259680561561118 9.580837854951698 1.0129930482800877 -1.5919527725868645 -1.3359223197860153
Ni 3.1583204820120145 5.683054174795641 13.309842017619713 0.05313776036524397 0.6578820498352927 0.6667582692790001
Ni 7.774577653716636 7.720913325904315 12.45709334908503 -1.5462205606570727 1.0105988370162984 -1.5687866188830466
Ni 0.7901570213243403 5.2076525680687835 8.71220930562986 -0.33412693999396004 -1.5794698096285058 -3.511329362115901
Ni 3.2759784980315794 2.054454928160821 2.262660805406473 -0.16911919552958615 -0.5067317800793015 1.5268737806993447
Ni 8.844452081011724 5.473733544794498 13.100964871408703 -0.10204451336827587 -0.8684646547159882 0.38113801863617586
Ni 7.304215212907012 6.261070678623087 1.1787213408427644 -2.7244108437045207 0.6488037416831084 -0.4009303707717547
Ni 7.399615363233109 3.7582229573692945 11.808554555007753 -0.27847181252350106 -0.0424082897628818 -1.9227632466130822
Ni 8.254339719512098 7.698348647525849 10.009110244056686 -0.36076536851709484 -0.302095365479712 -0.2185165150157914
Ni 6.258262877687653 3.8852434089583334 7.036566702281584 -0.6628802743808325 0.037253485034819706 0.22917965115659242
Ni 1.1749903126461105 3.960198677638676 4.0339239063728 -1.1079418311438467 -0.51641018370933 -0.8165975335330516
Ni 5.066277001763489 3.91579451450083 9.475922792449039 0.9738459457669808 -0.17686412958232764 -0.17706236163606281
Ni 3.19672785176127 7.605635432532005 2.801372744814897 -0.1357604175634823 -1.6332097223541229 0.040855086343148994
Ni 6.050429824341045 6.3123083970176985 8.219340759772544 1.4874204597997287 1.5851930852655278 -0.9989782220582343
Ni 0.7603264607238841 6.112935935893752 10.604579740983453 -0.4297115566695051 0.0836564977793914 0.5598214608154294
Ni 4.025242966858183 5.721331381587625 7.926504787179623 -0.859332610507733 0.271887474437764 1.1187633472393828
Ni 8.935268635771036 2.7260121114961944 13.27484305788016 -0.10949557032968239 -0.418452438815918 0.25470170668709685
Ni 8.023021549732029 5.473789328919043 6.973155958175836 0.6893166141954904 -1.113745325199501 1.1618007859458315
Ni 5.431337610140273 3.6199713020385222 4.344300267193497 1.9449906905527146 0.06286038696964658 3.72241050389957
Ni 5.940023744512334 1.1240315148742235 3.284212234814426 -0.373834285885911 0.37977559107101044 0.1259593723126605
Ni 8.604134072471723 3.3793836702298883 8.232771717492168 -0.7752120286077294 -0.8369087342865781 1.698682350135636
Ni 3.83842193375687 4.369077715845582 6.041251476382567 0.19549537153026975 0.30435587937911457 -0.6793525610042429
Ni 8.893597894735898 7.856756966525561 0.6982954439652171 0.6325530841522009 0.9432865849228851 2.6841854205255706
P 9.056552619886029 8.254116583013918 4.475776940598275 0.9014051141977508 -0.8174881636681212 0.36239416236976946
Ni 0.7941465159647192 7.418089205811606 12.344231838040928 1.7428932403248951 0.46949012211902375 -0.14716557407663042
P 7.0854391737954865 2.8632596525851564 9.756117152684643 0.27463649793781086 0.3135881966106599 -0.5847989566963735
Ni 1.4419917274268181 2.01099909514024 7.613897061377124 -2.37910474716529 2.3095471506811256 0.676099601284584
P 1.751435563632204 2.3349839931436986 -0.21382891699979137 1.3281300774351061 1.5987523120072016 0.15015319595004464
P 6.155815332960701 8.22433715786096 1.437903680833076 0.795005923405205 -0.2712444415371264 -0.14369252792636542
P 1.3398324006766815 6.5491677898359075 0.6147810311088489 -0.1891231494553388 -1.5311202146805245 1.4434623090512235
Ni 2.0855638749487673 9.229687947765628 7.362632348130571 1.1030528784826614 -1.7446053379199953 1.0997130154761512
Ni 3.13299448946857 5.401009641095957 10.418958066559858 -1.498458462781445 -2.0570221399303734 -0.8756033226432984
Ni 5.291616972863149 5.972387834102544 10.443247404122173 1.6312099183152746 -0.9441407053930643 -0.6247973514661821
Ni 1.0287336354431262 1.6457711343898218 2.0637857527263863 -1.386816278422405 1.8572957610378915 1.323264778923005
Ni 2.757288410657776 8.071386385712572 0.17047721434502844 1.2271744262556348 -0.9375442831224691 0.34060483440881983
Ni 7.810233006655003 2.975655366189306 1.8746533973980901 0.5868144444645055 -0.42983137007682104 0.881938777943023
Ni 4.344393240734406 -0.039218099025976026 1.795905737984095 0.475413172471678 0.18337724811049708 -1.2601452247547007
Ni 0.9247706219993673 7.362621191305662 8.522560017414113 0.07295428087053887 1.9922018010208784 0.0901989268835995
Ni 7.16230040006445 0.763029201558091 11.232081411959388 -1.068273308909631 0.6126460608156288 -0.8011824845295622
Ni 1.7127771653224966 3.4569421980556645 9.815351525332787 -1.77978908490998 1.052873172304477 -1.934136264336714
Ni 7.131349508296048 7.0271261689377456 3.964851073625731 1.7940584503448007 0.015429190070876654 -0.6258299064957544
Ni 3.4790234140214067 4.189099535355125 3.5903564400529735 -0.22379421847496297 -1.3472837675454217 0.8742141556052557
Ni 3.0548316336268884 2.126620990613911 6.202978021057298 1.5178139844899214 -0.10363294090131829 0.1190896417760207
Ni 4.7606450807353475 4.942761652666697 1.4308953353194018 0.07410690641774334 -0.01965479811645002 -1.0146370116414138
Ni 8.584172653238692 0.2936448423988239 8.51858632827569 2.1409092656633324 1.3071933272824392 0.840793671163281
Ni 7.17282500489528 9.185767247040506 4.940939371264892 -0.3633274728173162 1.1291704015053199 1.8859072541269974
Ni 2.8868377425595235 2.552607160347961 11.212200879706948 1.9922601650626395 -1.7193563335452196 3.6379500221616445
Ni 4.546936099603328 8.516487915457388 7.394624543557147 -0.575024650918429 -0.4957693675305268 0.14275536082407672
Ni -0.2487906873229814 2.362104375026675 10.805019538357028 0.2314478783654788 0.18317515940202 -0.7886840949522352
Ni 0.9832044924602888 4.120949929869277 1.2150117030655352 0.39457897463243014 -2.4049443339362124 -1.8154705974719894
Ni 3.718281524195051 7.242852675907478 11.334751163449111 -0.6063856817282137 2.3780014867987815 1.240537477826102
Ni 5.832890333323599 8.12356313687036 10.567090949818372 1.2054974555028335 -0.4909670610458771 -0.01164015534208963
Ni 8.02657313899473 2.2366830683412604 6.249134735441268 0.6309348318224876 -0.43678568990746713 -1.8164249909654588
Ni 6.577599098645693 1.6232808348440828 7.847458682699312 0.09794823181171518 1.7525934983317946 -0.3029697976648653
Ni 5.184251127822143 7.774652032549363 4.991410057947011 -1.4264488052123627 1.1907028136921622 0.41253067401484433
P 7.407350761836687 5.874226369611468 11.49193223170883 -0.13607743458326885 0.6420833922401393 0.6393040297227892
Ni 9.568464936127612 0.04842062010508822 11.24257254631549 -4.274311424316342 0.6291510004491875 -0.9742683780163801
P 5.308612536141201 3.0468916932333125 2.4648568729678066 0.20285489721913455 -0.2281938902045554 -3.59189385123353
Ni 0.42428010525838106 6.07599754809085 4.910145604780625 -0.39550457177049303 0.1329967387754161 -0.7604834641483031
P 4.949399963487555 1.7236829616710505 5.365674117138315 1.03090103890876 -0.7308203898662317 -0.23503996659211132
P 5.72183343870853 9.496131521300883 8.907696402479246 0.0025585047557955937 -2.359116734079137 -0.10729187781014425
P 2.757976414860498 4.008507729494673 7.919361630031632 -0.9496917171182805 -0.49881535344570227 -0.032253460717067035
Ni 2.12006635597987 6.325073664184421 6.620310213603596 -0.36437262625237893 -1.103509506404106 0.7597393868934271
