# total energy = -340872.99056968035 ev
CRYSTAL
PRIMVEC
9.24244559009473 0.00000000000000 0.00000000000000

0.00000000000000 9.24244559009473 0.00000000000000

0.00000000000000 0.00000000000000 13.52725336182129

PRIMCOORD
 96 1
Ni 6.485692112193543 1.140508545254038 0.9244201670010587 -0.6222696999483219 -0.5021829843663544 0.0947189262411401
Ni 8.066880463910458 8.862488666509815 5.652755520283315 -0.6040151246135081 0.15083710939094666 -0.2937799036354812
Ni 4.707269971258553 0.8722179099775063 4.058933669668454 0.7583350503467327 -0.14445331735178993 -0.28132599414284454
Ni 9.186343960521123 6.731402528611654 5.395547501532153 0.2318533413340136 -0.3008411813576367 0.40157648899618587
Ni 7.194698599470812 5.396275806245854 9.147399067473879 -0.01799952190121416 -0.35376605438112624 0.1466086731318959
Ni 7.7684881075418755 3.0349326209817202 7.752671510377448 -0.28362276059682123 1.7589119843506547 -0.9740729741761225
Ni 5.939075394202194 1.720240945849339 6.220602135830141 0.996745990293606 -0.5107331879292109 -0.19802045194496865
Ni 5.873047362797606 0.367068348439102 10.953396044872417 -0.3203512263661064 0.31346761187239564 0.2677153453379454
Ni 4.669412914059058 6.5489474099165275 6.028704934704594 0.812087304367524 1.453168223485078 0.24801349603364387
Ni 3.356791546742274 4.0455478356982315 0.345390192271764 0.7779132295889765 -0.24372283907808992 1.7166538470123918
Ni 5.691248457740459 7.4842182080582615 -0.0615519149979199 -0.6095041727525374 0.28474376157514186 -0.26290506843349554
Ni 4.349356265191545 3.164308374565347 4.8944442826797685 0.7726203566211532 0.6059359957853048 -0.07165664510503789
Ni 6.5283829684446335 7.115047203243944 4.753544123670836 1.8655163491754712 0.3182015270129552 -0.9812008434701552
Ni 0.43240412066785044 7.823286567535969 1.161315138800792 0.2697310902163935 -0.10045300051143989 0.057386508339268914
Ni 6.835093525858026 2.8195836383771677 9.86690035173602 -0.21499230391261684 0.7842522844331268 1.7916051037083016
Ni 8.229602961238172 9.248360770532992 10.762594073551101 1.1822917068103316 0.20637885121199295 -0.6364084533425491
Ni 5.73193370329519 8.044227229731755 2.344570919224114 -2.5485211622203203 0.7458996527968573 1.5863703934030808
Ni 1.0657833725348191 9.12352305774159 6.16914481992238 1.6024490441324983 0.24809345734195984 -0.3531423047541983
Ni 7.982903603140287 2.595297210872247 2.5794168408331424 2.161401729189729 -1.2312987328366536 -1.7152988756463943
Ni 6.884586822074652 7.225938065616879 7.598948382335658 0.6964869066916843 0.9700540828247164 -1.6686477514467586
Ni 1.2341437616817943 4.127981208052309 12.725208912955024 0.7227047027376328 2.6703675408058722 -2.505469325336169
Ni 6.592386904261652 7.077411964738976 11.22016722209143 -0.013641244932518443 0.0584134069418865 -0.9926342821180776
Ni 3.711498124184226 9.040821654464958 5.986377306565792 0.07662221664042933 -2.452504085993047 -0.4139064713164484
Ni 5.2964019390344905 3.192922986159497 7.924373043610754 0.8328492195052237 1.1582791459458182 0.3020130901785508
P 7.809718657387322 4.933876252610415 11.236102122559608 -0.42345117758209005 -1.015335066149703 -0.24870178034992008
P 4.310390114519408 8.075189422509663 11.570171243209382 0.9625572602270391 -0.03914941650595193 0.10097570578412932
P 7.49540156724073 8.110227533799527 1.3443044708519079 0.7980598797401803 -0.34893777975454743 1.2673903363528882
P 4.4173252101732565 2.210395563637631 1.0143833597898109 0.03299470975846576 0.2925496307728058 0.29071540577754446
P 4.174350557654327 6.079015263112732 1.1994873633954297 1.5171364988069227 -0.23849090125518926 -0.22581716244226271
P 2.4656441839204595 8.297470239318224 7.7409437711488245 -0.8559135575238549 1.0507491839829386 -0.039883980679131306
P 5.282954180678712 5.608371447997325 4.06852455547312 -0.6162679738389322 -1.4613049936595994 -0.01669802948097124
P 5.229754663774344 6.096631364436521 8.230062310784756 -1.4934080448417313 -0.5290486984089469 0.24257921239194996
Ni 7.187258430758509 4.405799880503391 3.4245460669859416 -1.8276056901726265 2.3095088412440226 1.7821588706937372
Ni 2.343801023505189 0.9702072425299406 8.952498995771153 0.9918536951983112 1.735596449553166 -2.889872902097494
Ni 0.3988355582292353 8.824252669040499 3.601915067864447 -0.30337988861909043 -2.127602778362413 -0.2817805651817599
Ni 3.863305293252027 4.683600068063263 7.032886483035225 -1.5631826424327078 -0.7425983563377663 0.8514174694257142
Ni 2.7853034076269414 6.565029265269828 11.49267333680856 -0.18112624729279128 -1.5209486734641613 -1.2673054899485658
Ni 6.924745248229878 0.7621228221711904 8.679383803888632 -0.3959622281332019 -0.7655565077958364 -0.7651075931838758
Ni 9.161971631459826 1.5843400256683378 4.613226238735041 -0.4972809190790468 1.130338196561176 0.5886525261145088
Ni 3.533525591607692 7.118725696594871 3.8649254939666444 0.5169395738502387 1.371586348846528 -0.7595277851032531
Ni 8.923784565764466 2.8792343823140683 11.49236186639166 -1.5499049514871952 -1.5614044674863625 0.5921389420012124
Ni 3.07144952356844 7.5243581493222775 13.505325852475263 0.419822065469935 1.2495360817802867 1.4157440172003488
Ni 8.388831814127064 6.7053203471133696 3.1087252309393594 0.2689037092190917 -0.12784039138545727 -0.8886935801683534
Ni 0.5363067699185848 4.230979021878279 3.5899710554086584 0.3663066100502982 0.9186998967224564 0.12766709903238657
Ni 6.196958111482546 4.632535556093728 6.057138394364879 -0.04601606171879817 0.05441765551893209 0.18421594196170857
Ni 1.096588443737436 3.218958955429755 1.1083097132541353 -0.8764767263871872 -0.9442867440526254 2.2121185388183062
Ni 2.193528100407875 0.3703808409440579 1.0877545142278466 0.5913832947821106 -0.041391161352277106 -0.28445399824886497
Ni 4.2084736668292635 4.308061018226861 2.645417144900915 1.7808398947719974 1.5173707263049159 -0.529968639120055
Ni 7.2680374053492285 0.5417025096629855 3.169624629277542 -0.3204327303363191 -1.4862480367581823 1.229811606768166
Ni 3.1292240510474554 6.927000404957582 9.207406569811145 -0.2907997379612347 -2.022142297334053 -0.8229743835936729
Ni 2.4645997875670553 6.590501445358161 6.4437073787867 -1.76641292071339 1.026233972450394 0.5918095836862518
Ni 1.2937298084994568 2.5579947004090724 7.309248546058904 -0.5607799680739568 -0.7686757701511084 0.08511199927899536
Ni 4.916435757753129 8.316694526177342 8.956191352790489 0.3905981356078112 0.887970843069716 0.12717678965952936
Ni 0.13029445267679865 4.149580803432001 9.624694670691452 -0.6746512988738317 2.3270751322625602 -1.0585609667178737
Ni 1.764641654537419 2.8710917877357587 10.498650160442764 2.2783072188302373 -0.28958489171752705 -0.05047769703457758
Ni 8.316408010363578 3.6651010472453915 5.4579894640418685 -1.1589100946615976 -0.5382396208795956 -0.3102946134610527
P 6.458436140103378 2.457769620264705 4.239522738595861 0.6102449075733039 0.010037072521027875 -0.4953052834099147
P 0.8067961830046282 1.3408293113042982 2.313214074018858 -1.4465129229520894 0.7392847185835011 0.8008035039235886
P 1.3652848223760423 6.611241493296556 3.4939133939877416 -0.1878748788705345 0.06392508078873506 0.16862065862661282
P 2.1490626946005578 3.0254313868994247 5.131847588987796 -0.972874068772015 0.022554745372064384 1.7172624271306682
P 4.700698592433152 1.3511716079366796 8.62873705046046 -0.28102543218329024 -1.3265745600225283 0.6685698685664421
P 8.549437791411155 1.2598839726926814 7.024377887610943 0.8157657816603757 0.14067430992533192 -0.5129193969472521
P 2.2690481234491537 4.564520398883991 8.88948862285671 -0.36335935449651613 0.15460403263254663 -0.5449800249272228
P 1.1285026084126941 6.638137010008111 12.950234736108373 -0.8054682563891096 -0.5027326862222374 0.21814781882246304
Ni 4.756726297692757 5.326033219645229 10.277723361915386 0.47119604906653684 0.4893621784526024 -0.12179341386042894
Ni 0.21484989054186313 6.4792870973890375 10.921011439715846 -0.22311853256417705 0.07841093310973592 0.1857056391333576
Ni 8.085115809089805 3.7803358590528404 13.44993125473962 0.931955219070466 -0.9965055921480258 -0.48734283402972844
Ni 1.9815063982212477 5.796917338346375 1.3659548996824298 -0.8183289144018616 -0.5608681569123889 0.8962911900099532
Ni 5.5186550285062355 5.159687683640218 12.750559092761366 0.2399988532592834 -0.2866242664273064 0.08331994037557909
Ni 0.7148948493724352 6.308856400426465 8.470766094418453 0.2520799527935336 0.26536201461442044 -0.44411539079966095
Ni 4.429460541253076 2.917267045980065 10.159250921412385 -1.179442924507627 -0.07175588968706352 -0.13983613029475273
Ni 2.546718916770551 2.966307462362029 3.0553602742586548 -0.05870599848164083 -0.21089139437036583 -1.6109403694329612
Ni 9.001032926133945 1.9299150668522087 9.328285743149777 1.5398018016149224 -1.9072209280031087 -0.18512431270859087
Ni 2.4712173786204827 1.9613208970191731 12.792101113023712 0.42036431112665024 1.8658395368428449 1.7129010648381793
Ni 0.9473968867759478 4.59821835556108 6.363801815305685 1.8345736368500274 1.2112117322787914 -0.17666178376353447
Ni 3.3233985907701604 0.7924269528219975 11.043906390441006 1.826610930359525 -0.4409881580245889 -0.7234140700998316
Ni 2.825739107150328 5.124011843603585 4.696716022621809 -0.5181631618446947 -1.2099354366695292 -0.4990889188220631
Ni 8.000510462018472 6.012451169863033 13.02658288227589 0.5852658690304631 1.5303488837321386 0.6982622534245523
Ni 3.516473279465829 1.7870915549128037 6.757593770968082 -0.4107617550398796 1.7312214604139218 0.6291026637097552
Ni 2.1395707029638675 1.0479362100708969 4.101192903709775 1.6172853378143823 -1.6719356781694108 0.7938296437089167
Ni 8.83799618565565 1.2223596435349786 0.29753465741640567 2.003002748291124 1.1797527424385619 0.5117911968800799
Ni 6.230277127889817 3.549727598753863 1.0447743694293081 -2.0390838102843976 -0.10546793722752805 0.832741747393082
Ni 9.267492632936058 8.874097178190128 8.260511547831568 1.165739201768289 0.7585119422442291 -0.3531050237583596
Ni 6.5331797977138075 5.907974564740206 1.6602944436530676 -0.5809554145805672 -0.3052542228236678 -0.5699680623311282
Ni 4.358654165470523 0.42181135375956386 13.2530967391717 -0.16207257309544992 -0.9813116580164067 0.6654531773143313
Ni 8.006092899164098 8.544021718286421 12.95828398198607 -0.45241619735587246 -0.7592539626165763 -1.319054083275767
Ni 5.195723979055461 2.4125740612545648 12.282881178440714 0.18245473629622772 0.952681910094856 1.1331517547505712
Ni 1.6638712701023364 8.609680051866796 10.155342291165885 -1.9213157155332783 -2.810685752943366 1.5183431175205142
P 3.5468624406162057 8.937685203954906 2.6175779744930536 0.3358755472539506 -0.23126301604818233 0.2877501525016335
P 5.95540679558684 8.78048968909919 5.883205734762441 -1.424641833910611 -0.2784219331221721 0.5265398159441642
P 7.2168619840324295 1.566187862499439 12.429327729057414 0.14365139027578486 -0.13833614871045855 -1.3649153645842558
P 8.3202528677354 5.282760089321 7.126725033266298 -0.722217221578253 -0.23376341387253288 -0.16165322616984418
P 3.6685392370105805 4.249094215264757 11.877117482985712 -0.3392092396128739 -0.36441787766801753 -2.041854945271632
P 8.681050216831276 4.697158735766305 1.7507650467055533 -0.550087264246801 0.44316793928472714 0.038060297206831226
P 8.21109958513627 7.5604036871831255 9.323267095186075 -1.3972223042470775 -1.2422614024957446 2.045274255365826
P 1.1869795617577157 0.9187406841765738 11.608737195986809 -2.1594381777054554 -0.1903778477980463 -0.8936072154198869
