# total energy = -340856.96405494184 ev
CRYSTAL
PRIMVEC
9.40472829931122 0.00000000000000 0.00000000000000

0.00000000000000 9.40472829931122 0.00000000000000

0.00000000000000 0.00000000000000 13.76477051054326

PRIMCOORD
 96 1
Ni 8.241476335986771 7.350011537590938 6.86681728383764 -0.8231867567147954 -2.307182507103691 0.41860876188812424
Ni 0.5637006096303316 2.208700460003393 12.504798650473942 2.3542889736731905 2.6120636628586564 -1.8180532705975012
Ni 7.247810354287311 3.6251842202033124 2.583675444762811 -0.32226978354505786 -0.5944621908177504 0.12056828320407624
Ni 8.93198089836237 3.5784897437974497 0.41918002956313916 -0.9081717434976231 -0.5687254481732786 0.4496772011581546
Ni 0.935967032616358 6.089166627348848 5.9812473691902825 -0.39725832123680616 -0.7987543347040438 -0.36957242528576345
Ni 8.996534953961532 3.7544428070557148 5.053473735938434 3.9120213916246045 1.0399302389905638 -0.7922180762474228
Ni 2.125449804385126 4.562252546512949 4.183031326890037 -1.2285525375500843 -0.8396238192248958 0.8228561128482538
Ni 4.519526865483375 4.894107792123678 13.035141629013852 0.7633044785368661 -0.3629068403401298 -0.25469476470856134
Ni 8.371082897789229 2.9924811184501583 9.58610326900059 0.04176551397256032 0.6634546588270638 -0.4706280923782089
Ni 8.235081120688486 1.5420650982558075 5.258982098603156 -0.06081918816990171 -0.3990511514711709 0.05514424927231148
Ni 3.234521208033498 3.912743195145036 11.647845443340739 -0.26940867387996825 -2.061215609186431 -1.833120963563901
Ni 6.437263838871546 5.78290164765964 2.734536692703686 -0.38732692105570715 0.5904129604490412 0.4565806131462072
Ni 3.4144524713964315 6.205380855938424 6.088295749500875 -0.5450872399290483 0.9707840190122056 0.4220054462744991
Ni 1.6523073243241906 8.012979055270389 4.333149601288905 0.03735787182316792 -0.47788554527157046 -1.0553087783291633
Ni 7.467975045659164 0.9685177380117924 8.485554430210021 0.6614278582050223 1.8165604881020585 -2.1946877449363686
Ni 3.1377183388198935 1.6758379547305284 7.901625190307511 0.9406769152141801 0.7548540337766678 -0.030787674804817946
Ni 5.960208991804601 3.3871881638233 8.683560641046153 2.6249400046006923 -3.0552442005488736 1.182114814912835
Ni 0.8311927156280089 5.592032685190962 0.6722687940471048 1.1737924110900688 -1.5951807926058592 0.48308148765021325
Ni 4.535900497592661 0.4761378860499118 11.71449393195009 0.6211929219443754 0.8217340834286687 0.5478989983462306
Ni 3.7119898631491557 9.268980530396867 9.464064692125385 0.4278253953903858 0.2352284284538336 0.9400585649038907
Ni 5.7005914648793565 2.6912570731725403 6.652472238387227 0.12610181142779575 -3.6606580052821216 -0.16326427941070593
Ni 6.461734942115867 4.503237875929507 0.17034878561672329 3.1406709028548105 -0.3574280766137457 -0.12921336047358392
Ni 0.7785224748096015 1.5485073371959919 7.290359226423344 0.08827728438085441 0.6296873325686316 -0.3412473530888252
Ni 2.279320565407547 6.220550682815092 2.5284094989115697 0.5852175322910308 0.5519104334984688 0.842623011062536
P 1.0232156382688915 2.0334715608303755 0.9816015961338137 -0.1560875591566086 -3.068307718601051 0.3059607619723892
P 5.398586827146212 6.283233197466668 0.7495756613293184 2.7873149394279095 -2.4390037375137674 -1.2316707714640918
P 7.574182643252599 5.030814923852906 10.279433952254328 -0.36763072817836046 0.03949317299861586 0.8019013649734578
P 0.8955238791645693 1.6998764404693774 4.573138519612604 1.0662560213692864 0.9281155336094016 0.06548702595921625
P 6.33774300315617 8.911215258099702 10.745771170859618 -0.9131308872751113 0.2746202999878948 0.21039877100466345
P 8.595902929709096 3.15633029628358 7.139745322838859 0.34586299748396565 0.02721332718999829 0.382406086715322
P 4.132456459554656 4.779323082247837 3.684347485495156 0.614490056002903 0.3664513631582786 -0.304118823667644
P 3.7681360915767494 2.3266921822567572 10.135083597770809 0.2652918234981173 -0.5227608085177061 -0.3975156886632509
Ni 5.878049284678394 3.319549357315553 11.416267173607123 0.03411133986141222 0.7443150819185569 0.7405918674306987
Ni 8.594830790673797 8.56229983520796 8.895056053797475 1.337493263817561 -0.7306578961464384 2.0348875128148634
Ni 5.174895362631922 8.011916320963469 1.6482350769357235 1.0565380227505738 -0.4876961036040891 2.189401299726449
Ni 3.498088720878272 2.56023039738473 2.6440472176514627 0.7725535079389598 -0.8028701566446301 1.1080385046227113
Ni 1.2992538209453215 8.260398649486993 6.900059236768991 1.6767526399420802 1.042567419503095 -0.7967128787939827
Ni 2.093257419140963 0.47123802256401964 2.4433296236234257 -1.9271729456450035 1.7081046718908002 0.694476561129875
Ni 7.928994830838496 1.6435139032890482 11.632469652912551 -2.2848015683053293 0.013584423552654025 -0.2864334905727389
Ni 6.912343692978727 3.7198898349882143 5.1219260514510365 -3.0343696710927097 -0.6100369053275558 -3.2183362160477738
Ni 1.5845556610758853 6.519724497305908 12.503931534517323 0.8383439240712077 0.44242334780921866 -1.1571961972942846
Ni 6.694323279677476 7.502415160986105 12.86122374897698 -0.15418777103073447 0.4648477382510059 0.7774404037176159
Ni 0.9444040144459047 8.993610083435405 12.427412783473338 -0.17068911111986734 -0.5980439946317379 -0.5194782811116925
Ni 8.894324365929526 6.12413340746506 8.855482837720821 -0.06447401131366962 -1.2569601421585 -0.31948065083569493
Ni 4.652951747008043 0.17513579236205742 3.2853612887091903 -1.0332006335762143 1.3563646468007673 1.0704518046181888
Ni 8.215735594411173 6.255348177820468 1.2510179095580045 -1.8384637159330532 0.42701266968110324 0.5797577947280403
Ni 6.691784003014922 8.429081857707647 3.4830373935791896 1.4388818887693928 0.04444486057693636 1.1654332404920962
Ni 8.879295609978556 8.322648546633097 4.931944895341415 -1.0460466363009469 1.1789580144514082 -0.6435604910062981
Ni 3.3987747891872524 6.322535557365983 0.4661416002549891 -2.061511543160295 0.9686343196590543 0.6124033486772035
Ni 1.9850654238593834 3.7121873624451323 1.4175925776759015 1.1635465649923444 2.109759579533405 0.07435990296881388
Ni 1.7545931501832364 3.710522725521902 6.6538490906220344 -0.48486866145762303 -0.22702121005269285 -0.3600865972825153
Ni 4.6515880613929665 4.266925265929484 1.5711661492815194 -0.6805419533266538 1.2316293767031952 2.328483582574312
Ni 4.1606142163238715 6.0966151722256745 11.298508688617579 -0.21981415078129243 2.372417564953101 0.7611977166065085
Ni 3.341537612267599 8.406914912916385 12.978761222849599 0.4690100971588116 -0.753363051053438 1.2331424709136118
Ni 5.499725276142918 7.159518764257453 9.015800540047618 0.7907800582493155 2.0225480174129036 0.7987476498358245
Ni 8.571535278476953 5.534475747506394 12.73497279426045 -0.7625817414382285 0.056157006807541994 -2.324414040490629
P 2.6269193263261132 8.22536603627212 11.025884422343028 0.0364538719516598 -0.41816678925469913 -0.402208723263546
P 5.16666622529957 4.872824891800119 7.500726071769088 -0.7363940272992672 2.4582893252162563 -1.7711288381318209
P 6.235861580617457 1.9596820619622186 3.7565852041806402 0.3196117770969205 -0.29142117359531744 2.408131473414943
P 5.299639679862006 0.6726675545304096 7.71194686645172 -0.09594585666970573 1.5653696227816976 0.8122387423437236
P 9.051562019711925 4.543706422147921 2.4147674635338783 2.0110934957190594 1.0507993204945838 0.7385118449732184
P -0.050149773612612705 8.440452174318864 2.7443100864360064 -0.059450075736516964 0.48819155518326884 -0.40937130245025627
P 5.504916686208586 0.076064502663238 14.126508631487189 0.19680354881873205 2.2282570962513817 -2.7647745922335476
P 3.1873188762951243 8.285283560780027 1.9502754526367112 -0.5346526748592856 -1.654946342700266 0.30238667146788567
Ni 2.7810158008296506 1.1995542953907292 13.693648484022749 -0.44886550389013663 0.17699731272608224 0.26612537514300616
Ni 3.0131809256141673 6.4658730226029935 9.42498616476151 0.016139842984656073 1.4360601030498816 -0.1459126755061358
Ni 5.914727725359736 6.969928844848434 6.693917935884306 -0.40366988119010483 -1.0953845633041264 -0.6392469512326088
Ni 4.617204374436303 2.7049691671503338 13.80785480310323 0.27560040451297696 -1.917569618227285 -1.3196616349527788
Ni 1.6146037682494465 2.918390668273847 9.57379718191558 -0.43585623611466223 -0.08754734819336536 -1.0205826877018875
Ni 1.413032224884521 7.735059926917994 0.8021960570873129 -0.004019919792670496 2.242545487849596 1.3799720018070618
Ni 5.265650991497296 5.090723043632432 9.607190550973849 -0.37531909796155366 1.2225423268002624 2.825739561952695
Ni 8.922877121290693 0.8578052755244177 -0.08037845157106663 -2.685326733218866 -1.698526541284062 2.864641638334531
Ni 3.079239737754102 1.5565013563188486 5.321873398224765 -0.9232893158653519 -0.32564924154025204 -0.10805292434588488
Ni 1.2679548848972428 4.982484024708953 10.738269019031025 -0.7989019160255015 -0.22740893240941482 -0.7204459886104431
Ni 4.198524676422972 4.018734483985735 5.830165110132483 -1.7528477804344456 -0.053617785325456045 -1.795326775534263
Ni 9.09598055184987 1.442534857812052 2.695775104686211 -0.495303997858334 -0.3800129038927971 -0.012237422606456345
Ni 3.2061565472399267 4.334855619017007 8.424878884594701 0.25239799825458464 -0.31412607139200094 -0.09047249225996032
Ni 7.649768445241303 8.621681290198214 1.285511631836712 0.020162590990803985 0.6711036907318894 -0.4127484464526053
Ni 6.789696630177345 9.44385204989145 6.33362561307148 -0.4785352630404274 -1.2042934078924035 -0.8596020621190358
Ni 6.21843461892963 1.7993690619996132 1.6998529286484279 -0.8395852526774765 -2.4521089074371574 -1.5284143857135872
Ni -0.06926582451745791 6.325592094089428 3.6685588274910943 -0.3988408352325777 -0.6096756653333951 -0.2361234294642772
Ni 4.186966265244158 8.348031908530261 7.439431695026375 -1.4930452621856736 -0.33097373907695904 -1.8878237544234198
Ni 7.254318426326154 4.931275278680772 6.885496014872822 1.2599472498112818 1.0576058018934562 1.3084125444015209
Ni 4.989189596043773 6.863965770192874 4.269088353456846 -0.9152515331625399 0.3784887539387869 0.3258487591455679
Ni 6.0188568779812295 1.53299894009765 9.950621136274474 -2.3123923334394045 -1.3812691233519307 1.7009161245621611
Ni 0.6529477200635793 7.402207780099002 10.404597720370152 1.4156907953649103 0.011345249809490138 0.12380041698812874
Ni 7.751696891421915 7.393442573248999 10.662782907163148 -0.8092351796307096 -2.0600570701019554 0.7740576032883121
Ni 1.942706527236623 1.1876479092618628 11.026792919104519 2.5198839580996024 -1.1173512973832047 -0.3140160281766979
P 9.36076127465564 0.9620566896148481 10.28580753667734 0.2762940881458919 -0.2436883862957287 -0.9255176909752384
P 9.00952288385408 7.561166499174911 13.391731310263538 -1.3230706606343277 0.4955770490140627 -0.6972106722315864
P 7.259791978243216 6.615379989657171 4.835316013602839 -0.2693870766134135 0.023924629136397507 0.10133951688145126
P 1.5297825229917477 6.5006234939664695 7.996092865464403 -0.5518379283893206 -1.54428811952105 0.14349018210757225
P 3.4323402647748704 8.416498331135434 5.22904402675164 2.2718005280599716 0.4224638739681563 0.8732913866806701
P 1.5305066870769946 4.182263901054243 12.839338005564276 -1.030305057195974 1.0639512844955095 0.28015691353540784
P 7.029658274788743 2.4296269343740113 13.53974386597816 0.25519433005279923 0.3082901814365142 -0.881398846279153
P 8.901979814830709 9.296009719760502 7.025263445216847 -0.9701798097693034 2.1750388603571897 -1.9511657090151748
