# total energy = -340893.7456267296 ev
CRYSTAL
PRIMVEC
9.05670136286211 0.00000000000000 0.00000000000000

0.00000000000000 9.05670136286211 0.00000000000000

0.00000000000000 0.00000000000000 13.25539790995671

PRIMCOORD
 96 1
Ni 6.605342021587927 1.944337903594802 11.412499561352725 -0.045402596504515357 0.21265877068343375 -0.6086739635417582
Ni 4.537352976097885 0.2682948115718474 6.039675859144835 -0.4925917411334935 0.2738471692672961 -0.37185427934140475
Ni 2.58143155162972 1.6559997065305094 4.608159171985322 0.12058962336031491 -1.044419385110169 1.4640131366193818
Ni 3.5075064225162715 4.251043480109145 5.089489332573255 -0.12336307234039398 -0.1508571639956047 -1.4673517140743115
Ni 5.368921169647818 4.0749540380913345 3.0294285233400853 -1.5143568791792563 1.4458572916459616 -0.8833528846817302
Ni 7.056592160380163 5.927855486066539 2.5548854546540265 0.788283774190023 -0.43340906012575037 -0.2761405932871631
Ni 5.080927127230271 4.76864301211346 11.372283279540243 -0.4251833297818484 -0.4985186481408898 -0.5554379870357531
Ni 5.595257190090503 7.976789232168347 12.477637362617864 1.110877773843719 -0.7215747028982477 -0.042739704960371556
Ni 1.963320749373197 6.4713119000829336 0.6167468630512625 0.43246212283144875 0.5538716709898978 -1.7785387574426468
Ni 3.034302839942152 1.6135237777611047 0.5040724430469634 -1.2036974261796172 0.4159142457750966 0.14206656228716824
Ni 0.36240842807507656 9.118920767601361 4.6050445724322735 0.26093663185321514 -0.054919020635382836 0.6817418871720259
Ni 8.687015742636728 2.405197202392227 1.246288127930358 0.19923812640215366 0.47631794367413444 0.73000097928873
Ni 6.855623960083128 0.5458464774710313 4.931763257969696 -0.6925063247773815 0.1343051731741945 -1.3444792082170909
Ni 0.6525760787878597 7.5647455530014325 2.4122170515157157 0.18349243353212272 -0.595881182652464 0.45770907032369557
Ni 7.5614851405585775 4.017226624450356 4.021064854431694 1.1181012881753518 -0.9466989530385439 -0.6212278889473688
Ni 7.522595665476312 3.922629380101437 12.620941546182532 0.9237503146621705 -0.9763126621399186 0.24242237509911155
Ni 7.696529612601348 8.695936593348426 6.926395740505892 0.21981415078129243 0.23586374804498736 0.8462130424066395
Ni 7.016588711046589 0.8066360007334532 0.43422444614967576 0.04614461687686246 -0.39134092731110665 -1.2105136777705023
Ni 1.6996530064598334 6.683247765569679 9.2171941269796 0.7287640215578353 -0.17530552684595616 -0.0754330814283346
Ni 9.108324427162087 5.109990081477823 1.3955679229666782 -0.14642123971143817 -1.5429935690793426 -0.22027386402653032
Ni 6.174614367783212 1.904714835712895 7.06189304761017 1.3157137060486244 0.22237959751562345 0.36579110386646035
Ni 3.569635392955102 4.432892984109332 0.5811168947417283 -0.17900457296409816 -0.3365977701319558 -0.21697745266344565
Ni 5.857557371118114 5.558387359382562 4.927574533650752 0.6621102289840274 -0.6772180311597433 0.04385582084268576
Ni 4.928013783660414 2.897990429727161 9.405142413588168 1.7190663131086263 -0.32710217193669466 -0.008001530148237833
P 0.16118845148384475 5.443675181601478 12.549389078113729 0.38739608373074574 1.9240408277739252 -1.4734141182183076
P 4.084273383657159 6.296825494182859 12.590242046022691 -0.3846036085872731 -0.1139104115679264 0.6340183558438177
P 2.4016832023149286 8.52974612577517 1.2706452202187242 0.6619212529016729 -0.0291316272586337 1.444028465967339
P 6.227079838009473 7.526073438748691 5.65244663567841 -0.17975919174193558 1.662632398490614 1.733281428266744
P 5.058394054569658 1.041004409497158 12.646829220978793 -0.5560478527056102 -0.8606420733477759 0.1644395306657297
P 3.821873578916016 6.190363971222444 8.272918909300937 0.4708335235207956 -0.011714717333766922 -0.1511520695282042
P 4.802931682970809 0.7596896842368465 3.837477369465442 -0.3374351784315866 0.6856774747810062 -0.04008786915982128
P 9.178876129744957 5.643520350945973 3.4579617384367345 0.2518436684130114 0.7145255093609499 1.5922975575207934
Ni 1.365406390859909 0.9658519026893713 2.643815921043241 0.13699506130153177 1.1717039039921564 -0.9334919674299667
Ni 1.8920354539906847 6.438427017916259 4.725085713217177 -0.45668345727265863 -0.23876832328629205 0.5485438310190811
Ni 5.98694140489204 5.735907760194736 9.068189655660674 -0.18774658082278634 -0.6402136860212524 0.9317564727960984
Ni 8.778633332280927 2.3000217310064923 10.116586144701882 -0.344746110270703 0.6962526791936912 0.4348175104375028
Ni 2.356272902346955 5.154005649456353 6.9050418503454445 -1.1669599615492676 0.7750256236285361 0.8664357972114175
Ni 0.6325489953576284 9.298605720007542 9.088245720534843 0.7809247627217905 -1.8775359993441667 1.1165128606423094
Ni 1.7597261057194198 1.3621640918195153 11.589896791028169 -0.6036446286479669 -0.8950115519665811 -0.18074212448049518
Ni 4.4463240720336445 6.930387028738019 1.5208311576808862 -1.261349786585763 -0.7973497410470333 -0.11822755088604156
Ni 5.411116340679087 7.830550677405111 8.119103518288558 0.3138224241086531 0.7505955156106299 -0.24177857086752552
Ni 5.369011736660119 2.8050596184045893 5.013005490684637 -0.11264722858478665 -1.0899888462098517 -0.24969474039080866
Ni 0.6518424859882175 7.389779141936159 6.7880365158128875 0.3410421790565546 -0.3927509202847559 0.5406790835590237
Ni 4.962202830804231 4.410568215577011 7.093056250872993 0.2628940126899021 0.4702408842421192 0.3891984270468071
Ni 8.276330568654334 7.214332725705689 9.089279090145203 -0.31435464246303924 0.4800843526951022 0.5441377315315855
Ni 4.672343107933274 0.41756736124718347 10.47604571085642 0.18489882696134607 0.24816647667174038 -0.1798332395129806
Ni 8.09510597703903 7.171820570131365 4.7963728199399345 0.8030581042857202 -0.6967478736625549 -1.0895566437684396
Ni 7.394796554417662 6.139347573193008 7.044726976098543 -0.8257252068659328 -0.7946997050186958 -0.4424050929767736
Ni 2.388759289659504 5.406388742636949 2.626464187156396 -0.08427279120715164 -0.7716389665444905 -0.4039696718187108
Ni 2.4474467136308773 5.542927570382695 11.423700889434174 0.03177163598464206 -1.1691502843323671 0.040037989758492334
Ni 1.0714077555267723 3.6092131773308584 3.591364230546479 -0.27039057817726336 -0.9489972621544173 0.2483585380778884
Ni 3.6912578337747894 2.431878244216249 2.7294986543713233 -0.10795136577101408 0.35118003882150484 -0.5199019989126724
Ni 0.8925596423142576 3.2149296892762687 8.175744127781918 0.1565084487441111 0.8120230267884918 -0.4922832087541393
Ni 3.4822563394866126 2.466366162500661 6.967275878518544 0.5100127648234184 -0.10544376885781194 0.45674439241758114
Ni 4.184277478640477 6.943917740375864 5.995031756100933 -1.429824663663131 -0.7452861875825745 0.21409498890932804
Ni 0.9711772430126996 7.527096845987697 11.600541131983967 0.4695592847940623 -0.6720691399689522 -0.08001453015142995
P 0.11347231538267524 5.4743140018630765 8.118891591479771 1.0149028637082909 -0.2826475411677455 -0.22032425764849153
P 8.392002756765814 1.5160827292259182 8.075745466819336 -0.29394831089254536 1.1848162730043983 -1.989186925453955
P 1.8482644169453686 3.2921199538608388 10.55166735478793 1.4842394909685857 -0.3685673810600169 -0.4935692745554144
P 4.0700543627258225 5.920908996223014 3.7679264323685033 -0.1075775273713631 1.0490255164236126 -0.3959740552077438
P 6.8687652335680776 3.8931045340911474 10.356402159255524 -0.36067717967866275 0.6759188527323456 0.124760724018869
P 6.540342076859139 7.900033689242823 10.315761118155345 -1.169265983974625 -1.3329002451302399 0.04247256734191396
P 2.2459169978575746 8.437440226837477 5.711922898326929 0.42505168929999054 0.3243382360383124 0.320910441303686
P 6.960473390224578 3.8226886820267296 1.610344875629322 0.16911225355105067 0.9065187812752323 -0.5976508729583772
Ni 5.317334199440882 2.661130522455042 0.6995178669338514 -0.203095809585347 1.4708594701172542 -0.0177282705176985
Ni 1.1973321294307808 1.0422361208644584 6.930280159663503 1.1511044825742498 -0.25576357229270796 -0.7988895747303274
Ni 6.87073959443625 0.688219632149239 9.224285524042807 -1.174932695342099 -0.09975006090714435 0.01889657979418681
Ni 2.7007807604406393 1.6323073761124363 9.338652641507021 0.2598130597717332 -0.38836898916697626 -0.5452692740328674
Ni 6.390815939549358 1.9173670473314148 2.735476982853345 0.8620762346911411 -0.33711764719116777 0.3715945979221149
Ni 4.175492478447231 7.141734208644805 10.392364508500203 0.2796624903974926 -1.0583791897243708 -0.26174704356965245
Ni 8.183318247020692 7.314336820689008 -0.08170774715816935 -0.06252614355867941 -0.14135385249085977 0.7345932266451026
Ni 7.429800704672194 3.777142531540304 8.266171666884475 0.6239620000490802 -0.0819171464907815 -0.40003099888593685
Ni 3.2484032570229036 8.65036327275831 12.51532229643652 0.03464638642927582 -1.0864481800464452 -0.35937800125126496
Ni 0.3787621134863588 4.783387321716145 10.379188819550581 -1.0812023582664734 0.5014072825425945 -0.44125272453988523
Ni 8.544725909609838 2.2328753480861585 5.786829062861255 -0.248635702998675 1.1223459223843186 0.37121484598519294
Ni 4.032496222724389 2.6117624440494933 11.691896982962614 -1.0403711831827243 0.9404385739511287 -0.5407423326967914
Ni 1.1113296945492743 3.461534607072029 12.651190022621112 0.14561648442195566 0.5276613311431171 0.3233211076277077
Ni 2.9499306112820727 8.492731387847545 7.983288320971102 0.16126704647501905 -0.09292712444803997 -0.15021927330128967
Ni 5.744058791301871 7.615789121134559 3.4272097094097598 -0.7469669177191071 1.409211872508786 1.0130884362073713
Ni 3.0189064478508967 8.2223707427251 3.6054818164240365 0.9729152064225954 0.5215837574904694 -0.69439454293903
Ni 3.0915593051191617 4.14583178191849 8.978012987182192 -0.14478550388022807 1.0231242231768187 0.45583653589133105
Ni 7.31387492892627 5.939583914159584 11.304256585260338 0.165713769392463 0.7443400216192213 -0.45522821288337084
Ni 0.5594224726150265 0.21529499597300825 0.4389475158411991 -0.35464897120671174 -0.06772722814364465 -1.0203294340405007
Ni 4.744054068273603 0.26745525536781245 1.5689747700801187 -0.041360565224657794 -0.23394879041046163 0.40921189405425656
Ni 5.983816842967638 5.4631833160512215 0.26259361814746784 0.15137189884849414 0.5238491564858784 0.64395618378282
Ni 8.258769624969075 8.942315093613432 11.204668192863485 -0.3699709462757628 0.1650062018024771 0.11923722309747851
Ni 0.12669238216832554 4.884496334249543 5.704699273425761 0.10577441272435331 -0.4396974642376234 0.44170652424785223
Ni 7.826049496893726 8.989246919388071 2.439178851077873 0.727731723638579 0.10433690894687837 1.3339127455551543
P 8.472824758543675 1.8528380510665945 3.627339259172881 -0.0662455013917956 -0.6316755666432541 -0.4562157736076208
P 1.811168168706673 3.14269344026459 1.515463250861776 0.7468301350309268 0.5078252702537963 0.6455919196140301
P 4.673438968782122 0.9858219289018525 8.250610442830832 -0.4394418965833916 -0.18948490367013174 0.2299648660620491
P 8.673240500065669 1.7460957703680438 12.231909133501183 -0.30166444858988045 -0.3466412704108869 2.028433529659403
P 6.572185438384347 7.693785432128612 1.2858314968414402 -0.8268408085276147 -0.12817489190674056 -0.06207980004988018
P 1.7483599456755812 3.1705609099497623 5.941320989455527 -1.2919582555002393 0.23327310449967567 -0.21003650256923825
P 6.960102065474143 3.940760895964198 6.081510573467145 -0.5351255007306461 0.17395955434102298 0.7057577904706491
P 2.49822763742833 8.590516591029477 10.395426579186116 -0.7667068193501957 0.46468678719310935 -0.819861548996304
