# total energy = -340874.1939947645 ev
CRYSTAL
PRIMVEC
9.17428049920624 0.00000000000000 0.00000000000000
0.00000000000000 9.17428049920624 0.00000000000000
0.00000000000000 0.00000000000000 13.42748686107038
PRIMCOORD
 96 1
Ni 8.811814045366178 6.043548237902203 11.879163238558647 -0.3217208530201233 -0.5868509541293958 0.8641027782028666
Ni 5.3115782521245745 6.344950881792062 6.329583044188802 0.6557624323891287 0.793148301371176 -1.145048506188157
Ni 3.4516212798037946 3.3322455393144983 13.271862168181725 0.4020305458144689 -0.03607000624967981 0.21064688245972754
Ni 0.753050647973779 3.0511731014593977 8.860919382821523 1.0688240392067785 -2.3574943679843656 -0.49393000032894285
Ni 0.33426675221915225 1.6669301063589905 2.051276504643999 0.7470877595676876 0.5097659389199349 1.4278773101287732
Ni 5.280826063212791 8.166330003762589 8.923410913248583 0.7103055577423315 0.34534980529297293 0.0613182392935073
Ni 0.3045952935740184 1.5122242108878097 13.201072500860063 0.2242053378704526 0.4769026125330109 -2.0485886644510396
Ni 7.706083863805124 5.130193548373123 4.741769182316251 -0.5226901031807708 0.3679624004861663 -0.23090768959129265
Ni 8.730410652700828 8.116853107938827 2.6096324024244373 -0.1764758930049735 -0.1566460027632399 0.611523002954779
Ni 7.0963611683763945 3.251557740543874 2.8472719605819954 0.5478087526252695 -0.08639009466047057 -0.5465468551937104
Ni 3.398483845980093 5.779007853871396 4.506559891116548 0.4751735456570462 -1.1836613334643484 0.7934156960999498
Ni 8.541824138598617 4.773736045992926 8.894635781827995 -0.19695215858145435 1.505928288795929 0.03597821786682191
Ni 8.755419741893407 6.520106248947123 6.393525028394785 3.2953191584617314 -2.2716647738130553 0.49685283040269274
Ni 8.653860454526628 2.7728712963761817 4.694343655657368 0.05967119060838755 0.23241975536044487 -0.05432149626069999
Ni 6.794086967819882 4.379847478350178 6.764593490220359 0.9354357214198986 0.7359939636473711 0.12623576590249871
Ni 4.272022157264203 5.1484503669693185 7.953047243439723 1.4839978072714248 -1.217079503913478 0.9547223375636525
Ni 3.6325931409236727 6.790288815609418 9.97831466229467 -0.3218483797369231 -0.4845521586584687 -0.34266557359259053
Ni 7.7888817471371175 2.384854268382461 10.0418401341568 0.5700580509417731 -0.9688505494349186 0.5791268460122607
Ni 2.128112022948019 8.271696617620533 11.146331787823138 0.09887974248704906 0.020405303129229373 1.1357555109220052
Ni 7.5559192372812385 6.152125850005708 2.5683288732777374 -0.5406212337378948 0.41658761769303737 0.07889635738658671
Ni 8.138495236113915 8.548025952352903 12.17122462983813 1.0367729243085047 -0.24545344861595145 0.7954280985442881
Ni 4.344333837754261 0.4219591143054525 10.81220173238644 0.5850542672402892 -0.9085270699545127 1.3462075037621073
Ni 5.701824630328785 4.906258530727624 1.9177677847338788 -0.4978468188848459 -0.005243764897442582 -0.21670825816245903
Ni 7.76861576106727 7.795010166645791 4.869625627886111 -1.0036398891999618 0.652639827599747 -0.9712205923289917
P 9.020694068380342 4.288618431053409 6.708574414828283 0.050899357953028475 -1.2395028659140008 0.00497071374171402
P 2.1890384210873837 3.0890353579149252 1.5733120763675228 -0.7468021100064687 0.48232866864458873 -0.6400871877457169
P 1.2143811879101734 8.75075920729699 13.203328456484588 -0.5853674276053338 -0.7242543066129398 -0.18998164080089217
P 6.568775808069143 8.399971410390386 2.387326737031543 -1.684969114314601 -0.9160326343029385 0.8957965097617219
P 3.2634476083331556 3.1563103582998013 5.549593955790898 0.7161625307437408 1.341608314427199 -0.30832386288792707
P 0.3883885863621361 0.6374308580037201 3.9876818406231904 1.0127552212376687 -0.3657365964794411 0.623501515472894
P 4.067371477653479 3.4040342858045647 9.338293904848886 0.1597503527201765 0.460614931116581 0.48589864538403416
P 7.116195963253266 7.479791056019312 7.016399055209267 -2.1012641404678845 1.1099331505422627 1.4605110370033945
Ni 3.9314178119363814 1.1069044894908597 5.507512447640702 -0.9536419600152802 0.13950702909010812 0.24986700430261483
Ni 0.9626664483002114 8.011844291028247 7.8154018403612495 0.1480721450512998 -3.94218094592712 1.13407760899895
Ni 3.3142180777358425 7.333672287284834 7.530430333207967 -0.27675482983239436 -0.1814404360991004 -0.5807654100569482
Ni 8.303467151690194 7.234351524409249 9.877232437524375 0.338519669745017 0.45467208326958475 -0.9274336770510286
Ni 7.780340491803923 0.3483575299487488 1.041077190600697 -0.9945829212040163 0.05941870827794928 -1.3384296595889014
Ni 6.486968747052922 6.915792975607387 11.336706369234092 -1.3938096790211028 0.29619185551108346 0.5289545960332438
Ni 6.222942122741404 0.3334410669560077 6.75843020844502 -1.8721050581365823 -0.24226142404121506 -1.3217807381783107
Ni 7.957440806467723 3.511024747346693 12.219764831602259 1.0357539961256872 -0.6745052602142706 -0.15796600712624406
Ni 1.1927115368929802 4.025793637513802 13.132203010489249 0.25426950424568473 -0.45839144110270086 0.18646257190404017
Ni 5.138294438232641 1.4699124282920033 3.2564072653227427 -0.17907245008755612 1.5777646540119408 -0.3729634532451835
Ni 2.1634605264913063 2.5336794499239117 3.6562242531548694 -0.20305518615539866 -3.3390384537265523 0.22276166344539053
Ni 7.504479045387334 2.0484976150194827 7.577627420277378 0.9566465511695589 3.448903748690828 -0.0675127981399934
Ni 4.713626158836004 0.07946761943731054 1.3553164880482436 1.2430584444757429 0.2693171426074265 -0.8114710109397637
Ni 6.414877249299702 6.056759202112516 8.877690885372129 -0.09726226148828411 0.7542917335152945 -0.8305144007244601
Ni 3.575318106503547 4.516048849646219 11.200605915025768 1.3720743442265404 1.3607653469716243 -0.31714068984860866
Ni 1.3475183494518785 4.444994045612281 10.7871330103693 -1.1236134762428327 -0.5775047370278054 -1.35725373427394
Ni 2.9389532999173538 2.3044967437170945 11.116844732220105 -1.151640557583378 -0.623111736233643 -0.7926356234008156
Ni 7.611065838578591 0.07999514057765288 8.499156393911589 0.388416297465144 -1.9911520196001256 2.165957209770896
Ni 5.85918189292273 7.133617922305616 0.7021976100447773 0.38992322102797367 -0.005375662489616548 -1.2300131812560104
Ni 3.8690785745689693 5.601164422470765 0.4037160571303091 -0.4332015721006346 0.2369754930519274 0.6366156842573488
Ni 5.319422262124447 2.6659358805182634 1.141382353795565 1.1288197030341205 -0.2620216373872778 -0.4729246017218695
Ni 8.549356223054636 0.7534203714860537 5.945436645223089 -0.9980652233256617 -0.6437751781202655 -0.14828837482716398
Ni 1.4485271799765598 2.524606086310024 6.457722057604272 -2.408093421088156 0.4514949710931837 -0.5193052458689379
Ni 3.025760343915949 2.0738002811945115 7.910334544777258 1.2210433736572326 0.30131709255279077 0.6875487236617901
P 7.810055986996424 2.5398078694325843 0.7584653084438667 -1.7318575513360235 0.17636970644441236 0.836626684269785
P 0.4745882929782851 0.7288580697636441 7.97941871331649 -0.33149721568059687 4.032678377887745 -0.09978091414507977
P 7.132012423182834 4.9301483576746055 10.792826568972718 -0.3059921294309569 -0.6911850348627967 -1.0222798728986524
P 1.143592438016582 6.570849195507705 9.987875180213814 1.0742894331967239 -0.2761686183116212 -0.37163753534490834
P 8.06922024253609 6.951829550203294 0.45280029374004116 -0.7371576449381693 0.11286731501539271 -0.4519459425876733
P 2.518844638029415 6.183657852777128 2.2332731329182467 1.1923894573659657 -0.06908528483343587 0.41881187903786576
P 6.206226583303079 1.7559114548838664 5.026821423139708 1.3552598437723626 0.18248996040953733 1.4318411798725277
P 4.393682293648199 1.4657289562920708 12.84108198298168 -0.29490141883443405 -0.8570805812487626 -0.09844085517741756
Ni 3.602051960468027 4.156646403160806 2.87734892243414 0.6540930151065057 0.0893319508976139 -1.4983170521075744
Ni 5.3655505454921215 3.8643446457269404 4.7105105731097385 -0.7669287055530146 -2.5494349322838414 1.0017781534008747
Ni 4.649727293749319 7.16083801314728 2.7798795294041385 -1.0100848734943573 0.4468746987123529 -0.47166810360694894
Ni 5.441880560929483 1.697507983937443 9.168825674300752 -0.1739742096290423 -1.6436221759366985 -0.357372797895778
Ni 7.4635525791774695 0.8369127478671586 3.4044186881659617 -0.05875999164802783 0.9020041812343306 1.3608069988428368
Ni 1.015528653702865 6.56618866091129 3.858321730446336 -0.8259828314026936 -0.4120385648697742 0.08770649947904895
Ni 2.9961090686883587 7.968037100678078 4.506466313453392 -0.22907500725792806 1.3678703334475217 0.18143760788562302
Ni 6.485803613403818 1.2320508525414662 12.50672440538358 0.5498880037518014 -0.2918217514678458 -0.18733777542014188
Ni 5.600824974084806 3.1800350481941546 11.48533522116853 -0.569899928097354 -0.2507640621955875 -1.1181401118330871
Ni 1.6909758960778998 8.33526520860196 2.275811520247383 1.9559145365540704 0.37777038771552357 -0.80053842318766
Ni 2.4941933457842 0.26355231399924395 9.252008877422213 0.6725375949649386 -0.173879593032707 -1.0707994177655946
Ni 2.06504801740518 6.119859904778161 12.095588190021813 0.8667507573486751 0.5768334219923937 0.3375395652199348
Ni 0.9599600354932378 6.418528613018942 0.7492873580299801 0.2378332130665323 0.8699222130981211 0.0943402027454827
Ni 1.555912135588857 0.09759783295982417 5.950686168640547 1.178849256787686 -0.20131017843983395 -0.6785843153796507
Ni 0.3437566281768934 0.19103788190568052 10.189703851080724 -1.0781489161521305 1.3784092853056324 0.12009905687714156
Ni 2.0837910728785607 5.303238830966814 8.064965211146685 -2.8079734962185254 0.24105789065141708 0.39030271585457943
Ni 6.11642872379576 4.9873683464105225 12.910340462854242 -0.1592872970408289 0.3710865479374448 0.01352708795215735
Ni 5.150909074197349 2.8010271638494104 6.970423064901239 -0.5161340472298078 -0.1508864745716434 -0.7395014625799974
Ni 3.161136029948846 8.030220375273563 0.008133917270043815 1.2513749347612384 -1.2138088035820063 -0.18130031097681035
Ni 5.27705543384443 8.638319223018108 4.67264464694193 1.5063244957930833 -1.2998384295792644 -0.6948336873589775
Ni 2.618303015115525 1.0334827210359077 0.8468879432740148 -0.43970132089236535 0.8960852446467342 0.10687330221548691
Ni 1.430921735310178 4.308535794456595 4.798782749736381 -0.7150968084833877 1.606931248273568 1.1402950506635716
Ni 8.49116376056435 4.686837259187315 0.8322879929654792 -0.9736407717347104 -0.15886486479142964 1.0837436366310886
Ni 6.3182720735117925 3.7684183667109488 8.911822879294384 -1.0535959094031146 0.5397601712891801 1.117987645415623
P 5.545797638436573 5.706567733451515 4.009783600261429 1.700244809526749 1.9041116929501656 -0.22723255473255063
P 4.418572117191656 6.752564173364414 11.997446322216382 -0.7359430558047777 -0.3501004326040809 0.9001869255199335
P 4.090242959442583 0.10148864540537525 7.495572653682214 -0.03713598562034894 1.3621761112762218 -0.12052868821539241
P 1.9057458073024942 6.589289499717933 5.933646777093455 -0.34138542132858624 0.37285880934651916 1.0760593806129533
P 9.06061136371303 4.545186365154519 3.134566395608925 -0.18698064919103927 -0.07005304806334386 -0.354799380741647
P 0.5889420322115223 2.43860637901317 11.224399412025383 0.07275682014775212 -0.3079572235771277 -1.020098291866301
P 3.3640619447876676 0.38788767063582846 3.0474758663366504 -0.6418882455101977 -0.06774188343166397 0.4141790082515447
P 6.668692899190332 8.98012539911784 10.629507858778869 -0.07293654025872601 1.1207135289872183 -0.9152877857171139
