# total energy = -340871.5016535052 ev
CRYSTAL
PRIMVEC
9.26280191591444 0.00000000000000 0.00000000000000

0.00000000000000 9.26280191591444 0.00000000000000

0.00000000000000 0.00000000000000 13.55704690230523

PRIMCOORD
 96 1
Ni 8.285446704580865 4.047511010592087 8.470388735477192 -0.4056280333577401 -0.5166336125740457 -1.1710395309352801
Ni 2.1368172664372063 6.366583169067104 10.3917337756452 -0.9558286832539539 -1.6509045685307246 -2.3137200511118925
Ni 7.963249400014734 2.79244765438843 0.23846713221979163 -0.5889299481456115 0.22958948500050136 -0.5257116636159139
Ni 7.082542186406529 6.4731887572183116 11.321327279338174 -0.4509167299922105 -0.07587145451733386 0.4440552269856869
Ni 4.6190999960499655 6.1472863318545015 8.635703815228018 0.32069909662382834 1.0581884138698034 -1.262738953623806
Ni 9.721681204989011 7.054985350473794 12.262443708711931 -0.989408061871296 0.25473255992503224 1.0688811176969593
Ni 0.3973241864202619 7.917759779421234 5.7935501127783295 -0.5411231130749777 0.4032230234606733 1.8217086079619011
Ni 4.767082520709249 2.1390496017178076 3.5449780665613417 -1.1857655242915448 -0.05208257962785224 -0.5861562420552163
Ni 3.9693607501670507 1.7466958348476314 12.720007601621251 0.18714237157988417 -1.2574013434609763 3.127243059484679
Ni 8.441395238955158 0.051889290491289465 3.2891700427282147 -3.0077554109392906 0.3257855100078002 -0.1510674802341979
Ni 3.8861066858432123 8.534273354550967 7.575502024576272 1.5194458636663897 -0.46290758380549957 1.6558526565646192
Ni 2.0923002400530977 1.6474449114798155 11.46153460800353 -1.291023659501112 1.1141101647380878 -1.1044201911438334
Ni 7.015118250690772 0.49277458212985875 13.373552006563381 0.16034350621948515 0.48782620142405025 -1.4377264350087111
Ni 6.063013359311301 1.4373460366474504 9.645649347380049 1.3346097716221788 0.004105537527941317 1.7518769318807441
Ni 4.600203879981804 6.808353984576319 5.901992514564987 0.05977069230072931 -0.6748153352555216 -1.3555892020873233
Ni 6.217581736188459 4.706438956053245 12.920529665471816 -0.14593710098616802 -0.8851829959119337 0.5694782671789032
Ni 0.99944707237181 1.8868327662178304 6.835937682634836 1.1733213849909212 -1.1866093603490788 1.3890541666139884
Ni 8.29300515100813 0.7478758541708285 5.990438379406572 -0.7124537144335858 -0.021517305246485523 -1.5257941744819206
Ni 8.196273709782735 8.642212786189338 8.048249502514478 1.4345238689110134 -1.5979714679771189 -0.790023125478633
Ni 4.386372095945778 6.008631448803373 10.873009515379463 0.8544791390701735 -0.5043478532281572 -0.026588034901173563
Ni 3.7782784078287706 5.28861532419049 0.9756574180101151 -0.7239519448811725 0.11399062998655853 0.22714796543854426
Ni 5.891114279903002 8.794613667399855 3.5506858051501657 -0.3671828420076644 -0.45844260605561044 -2.675912124773185
Ni 5.419331985932591 2.32969659236236 5.926585253859578 -0.7594269978593308 1.3219167495355426 1.90802311218943
Ni 9.10724249750598 4.938629613641768 10.460603634752252 0.6019687836074408 2.1615981614712516 0.2862411720562748
P 3.4350360171318246 9.284754834922762 3.2150398383686603 1.697592459505567 1.634621772210301 -0.5587385121638958
P 1.9586565328808303 5.682441876577744 2.5207298418500708 1.4454052917102074 -0.16574282285818553 0.1378142147687175
P 6.512972491783385 1.3818711155042074 4.473947257399908 2.242787685767389 -1.1044567008087236 0.08852488161528624
P 8.106192960389174 4.704743863288306 1.2923692912352835 0.005525043583287258 0.3266604564135858 -0.7667734109220731
P 0.7746499833350535 2.385467923169417 13.333775682239903 0.5869494273804731 0.36224915215147285 -0.00638713447326642
P 7.780512842273225 9.021024336544 11.23088805950744 -1.4124434920722062 -0.5632693101547138 -0.39535956155219654
P 7.251190022314865 3.934504826262889 11.144719917676227 -0.5567744464589895 0.9610120272271062 -0.32107730589885347
P 8.47115662176251 6.127176788725101 4.883830877044102 -0.6775674440793621 -0.8124526581267428 -0.5741124235168047
Ni 9.04155070576314 4.2697348932348556 3.214728608221655 0.13115557180161927 -0.18929618469809337 0.6857906033201028
Ni 8.82371739126562 3.1928322705875742 5.816515377762541 -1.6745708017994128 0.11428604973979027 -1.3901504850019606
Ni 2.472325217468998 1.00180908688033 8.928888171387925 -0.6355751588079763 -0.04524421654978014 0.2756885933514091
Ni 2.4209722432131726 3.460499459813871 3.5660592776199342 -0.6708087851992898 -0.33536364061453855 0.37904899731763103
Ni 5.554152068958121 -0.595562969579258 11.51886672094661 -0.482311442253408 0.22996229495888784 0.8982292875729304
Ni 0.4058015028053506 7.381332390333326 3.6080457064992277 0.6706928284467158 -1.0536365328330628 -2.0554586520979954
Ni 9.026350447690662 8.424453574107773 0.7917305902123519 -0.7659570856683647 1.0063002096409446 0.30079644416263035
Ni 2.88530724438025 6.72671164779947 12.544511776198606 0.02147282516179528 0.7205272354703397 1.820208369267291
Ni 2.710082819056034 1.3258867402512835 5.005994267424763 0.3705247618967038 1.4531679663747616 0.4905921942049616
Ni 1.588209292726929 4.0023270624643965 8.032658354197846 0.0012179315675011283 0.28156973472253444 0.8991777675291288
Ni 5.114196762639769 0.8736461796480288 1.5531088308501206 -0.0009160840563661643 0.3407976671459163 -0.6836583874684484
Ni 5.966124450452005 4.513189118048323 1.8454938071979308 0.3103925724914977 -1.1473871816236627 0.5606452422683054
Ni 0.17153968269092412 0.5552475501797172 12.298017499770644 -0.14995264990346432 -0.5915655859962458 1.2489861228140877
Ni 2.008703452055474 8.543035965237475 10.906779838889904 0.4135830265387587 0.4005053674191941 0.33238578893313725
Ni 1.4573536889549148 8.173264909629152 8.518299652511974 0.4977833126367621 -0.38796789707381574 -0.6181888450107289
Ni 1.7499100271396175 5.647715631901501 4.6067934373204755 0.7264898808116779 -0.7841245006060109 0.36338300864559997
Ni 5.486172365122713 3.990961604417517 9.6688721182597 0.2940884360148355 0.392521320772453 1.3055804742693642
Ni 1.4803439635045106 3.8794837824173616 1.3004242238494368 0.4488426210720012 -0.4573735413611478 -0.8356962020357157
Ni 9.060715443089132 2.794855982906921 11.11322639089596 0.11652625192421869 -1.7222238849010016 1.2554375348663862
Ni 2.65180126890855 8.00553409111824 5.093328596027044 -0.13528013549295412 1.3050896506758747 -0.9802896445097955
Ni 6.654387689828783 3.708436880792529 4.313296924733362 0.9949891555034993 1.1176554588871848 0.49076368678581933
Ni 0.21998043199977424 0.40325052713614884 9.90526623539319 -1.148895904958705 2.1504817398431157 -0.38060117229609935
Ni 8.024995238108048 1.7480389411367898 8.09956264672173 0.6203462576733639 0.5978110526853253 0.18143683655467463
Ni 6.254003073629639 0.42422984737280456 7.454220452945458 -1.738364499216606 -0.10607086091884958 -1.1566809482207625
P 4.620109641467333 3.301383047157563 0.5541536132642025 0.3345133767991013 -0.6965290727835295 -0.006325427997395557
P 5.276907142469825 5.920208740966773 3.3852354884902267 1.0074901161839875 -1.5155380439715511 2.1520783949062743
P 0.6325382225796917 2.4173412248314476 9.183963507583313 0.2812928269120639 -0.06539883712078413 -0.5447468258704941
P 3.228595949087167 4.455315131188582 9.304160405100603 0.9851636847726453 0.6949388454782741 0.7398513897202484
P 4.063943221329792 2.107935849819301 10.710121289751118 0.9496397808344225 0.5390058096216588 -2.3701596221568595
P 6.8939330122007 8.515525443314711 1.4286825379422783 0.16768272019337574 -0.058177636781996576 2.1470002090524183
P 0.297194223143197 6.422308185864189 8.243850239665528 -0.8782752130485066 -0.7624794115324095 0.4723548452613285
P 5.9348532309195985 7.463502706823843 7.395911114391992 1.9694082001651307 0.12981962659901514 -0.053243689815488944
Ni 2.2349288651597354 6.617475423881911 6.738584707395631 0.6977416050343919 -1.4400298863309071 2.2406351582007606
Ni 0.2980037920374898 1.6832734295933678 1.8488969606505985 -1.125131969769888 0.4121655773659418 -0.4866627772435684
Ni 4.386344307539796 2.1385771988161033 8.447125208268767 -0.9270523824522099 0.6840003441888993 -1.652341043866935
Ni 7.285341973267467 2.306780420228718 2.637360560599597 0.2518200142639276 -0.5567430790004219 -0.9021111391258398
Ni 4.504602500599702 4.274523761865855 4.634910672773859 -1.2080873277171968 1.3286458407292603 0.6631332709319031
Ni 1.888889108260542 8.12532064650719 1.4700446539671632 1.540912775290914 -0.9267677613322555 -0.34529144125121175
Ni 0.3407544020813049 5.202915880140183 6.450375402186805 -0.7602402377892455 0.9397418049944203 0.2807348975260649
Ni 6.069441743895273 2.305613307177449 12.054722595151476 0.8276036548355683 0.72041564959314 -0.5906636430072666
Ni 9.005648085233634 7.464317833399333 10.139993048167725 -0.368379690529243 -0.9267798455171137 -0.5017852347073036
Ni 6.46437983252183 5.301425779348464 6.576129980900615 0.33396444627416677 -0.4997481496726167 0.09358712662954204
Ni 3.252077152142455 4.147753053773282 12.366304728632258 0.30088797543517215 -0.7067147550672797 -0.18434989643641153
Ni 6.393334141226344 8.40639111021909 9.507909629165948 -0.19332227513835093 -1.204645906135816 -1.3257734042774716
Ni 0.57560904152336 6.139329584941486 1.0747351269806393 -1.4975166676934661 0.1673047680286667 -0.9244547969283626
Ni 3.6060180791426983 7.165527629472535 3.2139283021293568 -1.3502971004504487 -1.0009685130153856 -0.2766890095914654
Ni 4.7540219698974315 0.12884001805807704 5.402537599636913 -0.3783745969584258 -0.5346729865742598 0.9435076997947556
Ni 3.9629972051970377 4.381888899780587 7.161794720268874 -0.23289643788654732 -0.5738663689442697 -0.8260982739346354
Ni 4.391679681488452 8.464857916406457 -0.05268959658358805 -0.12333813263972952 0.565577132352284 0.8445991609523003
Ni 7.271281039840277 6.054417479060686 9.024858210289397 -0.501775978735923 0.7494932836853866 -1.0650702285913012
Ni 7.540754475455442 6.431987813948125 2.6194787213498008 -0.3371706119162903 0.09011485181022544 1.2682778811641642
Ni 5.302333533943894 7.041211563908424 1.6693468067950934 1.0718072902048188 0.5776345777374503 -2.3287525199649832
Ni 7.479110528184065 6.730518659419085 0.16506405781678132 -0.3293706562558973 -0.5989284541192201 -0.2395579090671229
Ni 1.356027897940399 0.25269386980267805 3.4221783216836803 0.980968672854691 0.07423237625201409 0.05494164634320215
Ni 2.444240401822594 1.1475870646649948 1.299630401718534 1.4697143007692173 0.6538253632674158 -0.3384602772619913
Ni 7.290028951076531 7.9302645621134005 5.082713424941695 -0.260960286002299 -0.7677136633481553 1.4750837926112466
P 5.145551347390124 6.55383997418178 12.72621738407816 0.6504829291577443 1.0828743466522577 1.2431057527739107
P 2.4777995334475684 9.23325365583503 12.859035775592744 -0.35913220378904603 -0.7429274575424109 1.5063808029523154
P 6.116635720055705 3.305718038490847 7.761327726782844 1.6146723256715676 -0.032667665436350184 -0.8183798222444552
P 2.097163211100051 3.5942543206100686 5.943626030688302 0.8158318590116207 0.6199533931103195 -1.4255445482305384
P 2.1950061885647485 0.01526139256563818 6.749782508726415 -1.9272346521208745 1.295232298265821 -0.5287257678518894
P 1.372478634282092 5.14757063822486 12.078637297340094 -0.548375937982649 -0.4594705330994926 0.5918944300905743
P 0.23565494553435357 1.9935402451909743 4.040935347456406 -0.3002876228470119 0.7612000305993535 0.4696019651065397
P 3.82359203518438 7.989666911302183 9.762361578787123 0.2877018157622013 -0.07483041484732918 0.23402720905688082
