# total energy = -340869.3147907765 ev
CRYSTAL
PRIMVEC
9.23380763572381 0.00000000000000 0.00000000000000
0.00000000000000 9.23380763572381 0.00000000000000
0.00000000000000 0.00000000000000 13.51461084246005
PRIMCOORD
 96 1
Ni 4.785817969809545 3.6604845738372687 2.8699496593562674 -0.45138775609135806 -1.3910197749807913 0.3529471580242567
Ni 7.431414723317836 6.51586420779369 7.38646454672461 0.626076989509554 -0.10200748948275336 0.4099248609608811
Ni 4.408838530697992 5.650231657483796 4.082588708510333 0.39821374317154 1.5610167451296406 0.12369243065535472
Ni 0.3680789717290125 2.5961127772627894 1.5317594483040022 0.2855901687358372 0.08770212860367477 -0.39283268136528476
Ni 6.8850318454677195 5.75859039255395 5.337189874038733 -1.2710256191126303 -0.3334803075488967 -1.3924372241536085
Ni 3.6277876602553842 0.7805587084844274 0.3596318843116988 3.6145627535859557 -0.25840666634250975 -0.18538810789293877
Ni 0.4954002545912466 7.137825802861464 10.597427963633143 0.5649544111666206 -1.0287104590153444 -0.12254391887320831
Ni 0.2760446855494023 2.8183243630713317 3.9280895590156337 0.3789978323647215 -2.4346755424520587 0.9455833513768617
Ni 2.2883868969945382 5.931456509234678 11.873085904573045 -0.3163207650504746 -0.12227935235791199 1.6393114643764863
Ni 4.28391434435252 4.037694858144967 5.487837602280961 1.785495391266138 -1.3556997595232587 1.5434548249864775
Ni 5.900634058645485 8.6074601919791 4.1845835032131795 0.11487508947404086 -0.23393336379149388 -0.7483951655252014
Ni 0.1728993583889727 4.957474457662477 3.071898577228044 -1.9643323283041203 2.0710364519315942 -0.4915990382029211
Ni 6.6316653919875375 1.294459820475466 5.757467561519904 0.7401581223273898 0.6995979415168403 -0.468763014145012
Ni 6.74795596799721 2.7635955839694315 8.72899280070282 -1.2117022987619648 -1.664511360680882 -0.7796674932759218
Ni 4.25138363931186 7.533014311044883 2.890234488431863 0.1776071783959393 0.7363408054638286 -0.9982940515070162
Ni 4.39348270825047 4.954621211038133 11.032220273667086 1.0153162970966256 2.1244498345557283 -1.7694249680668364
Ni 1.064907357429534 9.168478655264769 7.684597424021887 0.3025057135442532 -0.3852497268117043 0.0921809903106348
Ni 5.966942032785986 4.904075346890368 9.191408970288178 0.5764865801759361 0.8710015622052291 0.2549778431666189
Ni 3.5309157821453736 9.371022230361813 4.614537297935937 0.5929850920515916 -0.27609868430563417 -0.14289342906383778
Ni 3.569780879368235 3.033878373423071 0.8869367917716624 -0.3683786620879785 -0.025824674372587782 0.323189724256166
Ni 8.14528964168244 0.07510502287516888 4.307971183933114 0.8056826863927607 0.3959084920771311 1.9254353941286064
Ni 3.93675087077497 3.9123182152150524 8.075480207606823 0.6812263809881881 0.5102935292886308 -1.0730303639786423
Ni 0.5569555878335273 4.293554439743508 11.19878801001621 0.08328728736543077 -0.13087455022609074 -0.7660162210410743
Ni 8.05350559169545 8.352985681557426 1.8733004562842615 -1.3579163075586034 1.8863248012803902 -0.9818898991173799
P 6.833497963880458 3.26022670514652 1.3718954564509083 0.07295145265706146 -0.5642447866941056 -1.0393252584167132
P 2.093128796287809 1.784257923846682 5.503419653020703 -0.9997264130781686 0.10901734514168322 -1.80019233115668
P 0.019683708184835617 0.02057938754587566 9.665474511851766 0.03275636849541456 -0.04712652117415755 0.5108391173794558
P 5.21169042146447 2.742293189269232 10.728046639277103 0.9675588272066886 0.21747290424262547 0.4239103766066957
P 7.986191132499761 3.7108180604045806 5.069681843842749 -1.0673340849248134 -0.9197831024843062 -0.8493099361644082
P 4.263498395205515 5.170322962315405 13.250264945873305 -2.1633102590663515 1.3319731053302801 0.6011591432219517
P 1.8729763496288747 3.992661577281129 2.929967563592227 2.4145330060659127 -2.1026018854427013 -1.2559144745028048
P 7.142248796819589 9.036047383140684 13.168069281953366 0.34936972508564346 -0.5771488963502834 -0.6444531780238965
Ni 3.825298810076482 8.941788672651025 7.5921845517205995 0.8583427357906378 1.1903994235191306 -0.5858551658750297
Ni 3.217344901510747 5.167044960530156 1.80572745046889 -0.022365255069077612 2.073447118255616 -0.029243727356465764
Ni 8.19757146170521 4.063392545379755 7.195165902822149 -0.9150067641415853 -0.1465063432260767 1.486517745479801
Ni 6.160501112849093 8.278053330888973 6.521907735028749 0.21962928846399596 0.0578423649297649 0.7405237331969247
Ni 2.348240439450843 7.959339219284251 6.14355338192896 -2.178709110119925 0.2916307185029623 -0.9363587474548004
Ni 2.5730836604954304 5.337233272935609 9.5402206785662 -0.8734135140808313 0.9713139233737467 -0.9634959699912244
Ni 2.08860423044338 4.199452703987229 5.039693206102029 -0.6235467668885326 -1.3098539048337376 0.05136138519111155
Ni 1.3658556227389875 3.992578473010517 7.421805099492739 -0.01533688746738649 0.5622313558085027 -0.11316222054799221
Ni 6.204343232500825 6.708943129848816 12.917427725168473 -0.21412995591232156 0.010707359115175109 -0.03679788555463985
Ni 4.305724598484238 1.7078204624993678 9.062587193651007 1.249628384383777 0.7923319761174676 0.5721951518894339
Ni 5.539970757997414 8.671764429817069 9.273118012534646 -0.5558920438540361 -0.023293680420617947 0.8568147291818856
Ni 8.019931466368217 0.24908104325895875 7.701774153376595 -1.4267920474843943 -0.5261816612737971 -0.07908584768957348
Ni 1.1458509170055855 8.667627683902161 3.7797262748344513 0.9819274372235348 0.20935387467991684 0.07979752904461741
Ni 7.664078979607794 7.715455886461679 9.397708858416884 0.3342670651162501 -0.38107836904283404 0.9952807186019891
Ni 3.394560141686834 3.3624172565756965 12.079156794267174 -2.4054112462703023 0.39187417410675734 0.8812178406165985
Ni 4.245575574176868 1.8040644416758662 6.2240324809703695 1.9283158010001953 -0.17159105410884642 -0.5745423119653718
Ni 6.139494199999957 1.786695649117966 13.15673108929954 -2.2301242313671072 -0.6407574743398642 1.7812769823094161
Ni 2.4164598118154186 1.5298111148485438 3.1581885115467987 -0.557675103896388 1.4353522783495796 -1.0425422226921142
Ni 9.129271907151614 2.1004235044859705 8.819053822145788 0.8332469691642747 0.8073652163015063 0.3250301198990144
Ni 8.298099927722149 1.6413555136254891 12.734168957757326 2.75975168509766 -1.01490157815671 0.31433201675521993
Ni 3.008753182274721 5.845545161037601 6.466052431369665 -0.22726135108795698 -1.2665655264587476 0.38283109006788263
Ni 0.14820261592466655 5.961992711780651 8.660703251398616 0.5327955670458889 -0.798914771541308 -0.6579550691650733
Ni 7.548287029221792 5.552150150545989 11.270266916550344 -0.4207720880880302 0.3517752492033426 -1.1688155267007676
Ni 5.521456973266638 8.577607291213715 0.9482631265793678 0.049975046366546184 0.4241667155918759 1.1019529605502634
P 1.663839835729948 2.302219141147507 13.152203753312758 -0.1491638354535818 1.1136563650301208 -0.5631739222274301
P 2.2966142197851225 7.591648990865546 2.1622974040989305 -1.42476010465603 -0.29031791322880973 0.25514367932052184
P 4.60899054956298 0.9809443426879144 2.427494212191118 -0.5819663723435848 -0.5228813932559705 0.1978800697123624
P 2.4940237977199162 8.36908020863261 12.022043845979494 0.2609536011340796 0.3835633402482168 0.553991998617846
P -0.2169169203897755 7.861488557542589 5.90249282416484 0.06633394734054382 0.18223902074099582 0.3382710440693207
P 2.5496667237985484 7.525054768681826 8.434333681917122 -1.0844972269676612 -1.5614268360838657 0.5885021165795736
P 9.223973840417868 0.7318937709948468 2.4932158395334114 1.0170317371258355 0.9294512217016895 0.2694233291679876
P 5.366005818183039 2.271941485221215 4.335960702275224 -0.04713140627016399 -0.3417266067180889 0.6982805082569974
Ni 7.54001353739198 3.0699640944843543 11.008555870919936 0.015330973930115533 -0.0002712513835156619 0.5665464382440888
Ni -0.025974701470161184 5.3105568020691685 5.583331796260382 1.8925502133648116 2.300810027918444 0.13853695186735496
Ni 1.6286313264140133 0.4261439256055907 0.6048504257487705 -3.731344573164406 -1.3216925493398786 1.3500829275571136
Ni 5.754047359093829 5.234894980580899 1.4096007874083403 -1.2494193536967644 0.3479617889945233 -2.4356397061375405
Ni 3.637316949952223 1.2763800247134411 11.54569478373565 0.42359258825596086 -2.030752407600567 -0.40611808562028123
Ni 6.715046676834873 0.9093980293565067 11.076859270935909 0.04024907732803391 -0.8713517464557962 -1.2663966049810513
Ni 6.964848880486587 4.575305618541599 3.1341732241015103 1.5655352018252844 -0.4891883718788994 2.0072710366491755
Ni 4.699500334067253 6.630012540383143 7.8949786552184245 0.4900340077086464 -0.22171651001032783 0.8607950539858723
Ni 0.8540441214634477 7.286610148680414 0.44312489823396845 0.9684273458545709 0.09440987964115354 -0.1619800133816436
Ni 5.743289972953503 3.9262427974464793 12.593739361277231 2.2775286887930006 0.07770850772607261 0.3857138109323164
Ni 5.080524181015256 8.599796131467109 11.968810020367826 -0.17695617507550168 -0.20104201238011182 -0.07442032389310409
Ni 2.5555671270119977 0.39112932625441715 9.647080766622985 -1.4199500848618964 -1.5483512338468304 0.20510229849241451
Ni 3.5365761063548327 7.263045471058 10.50177217801642 0.24149086442377765 1.3280819978059903 -1.3264123234130512
Ni 8.198522543913326 6.2862286404771455 1.3543401409745233 -0.6834719824892552 -3.2975038248178756 -0.6826160622468631
Ni 2.534190861849032 1.8653861595796488 7.524314217292595 -2.612919325990732 0.2517595933396374 1.9825753336747083
Ni 3.414634439943546 7.252851347196266 0.2590341647359181 0.40268334890711943 0.26799790957537073 -0.2015559759020529
Ni 0.39290960440708234 8.851537434766435 11.99441998642808 -0.6033885467731027 1.0209986921933836 0.9591657180469869
Ni 8.337306675835302 3.8518829428644645 13.359246962973048 -2.3649937616852044 -0.07035952356016915 0.12407346814385728
Ni 7.096661487485005 1.3586717202349756 2.7402229695502096 -1.4086354311800258 1.2422472614283573 -0.9407059686799024
Ni 1.8892647866688195 6.439140498403157 4.298822327119522 0.19182692153974704 -0.04424302897877542 -1.1568208162327367
Ni 1.0236599377824631 1.7382181579276546 11.05854678321617 0.43564000633879807 0.879987053533291 -0.23618153639572229
Ni 8.554384264481595 7.106052270064156 3.7987682333740054 -0.4678916672836522 -1.67391285650044 0.589520787652075
Ni 1.2043101544771784 4.549829542695109 0.24865536471726857 2.0796357635648315 -0.19443839102066515 0.8251922171805981
Ni 9.032049144343462 1.9650466476590833 6.384045137129779 1.0986424081197916 -0.011483318049251191 -1.267917412500952
P 5.652318498056942 6.770006301132918 10.403966761933201 1.377408354844944 0.10545276771887646 0.724984499910745
P 8.223518461751835 4.258576775623718 9.413129317519326 1.038482965021076 0.7793738732949029 0.1749221753646084
P 6.412362455650413 6.735222546977888 2.7351545324236644 0.6339772181932372 1.3807582451537832 1.2882934050541426
P 9.012224158898587 5.797123072694363 12.776240033064239 0.33766297817167656 1.655748269776271 -0.45047090070404355
P 4.409992756678713 7.487999497796737 5.672758455104345 -0.13053130795405907 -0.8035335012602419 -1.1450305084660282
P 5.788997321790083 0.9047183355402686 7.709490846593308 0.9559520962056954 0.3230537128989339 -0.24119287356738459
P 6.00202126879208 4.549811075079417 7.010812929181278 -1.1774626608528045 0.5495679014082212 0.18627333871136953
P 2.207757286885243 3.2878357906053832 9.328351880925709 -0.9876877367460796 -1.6572397667201328 0.660577851499901
