# total energy = -381175.23445495183 ev
CRYSTAL
PRIMVEC
9.13121611483984 0.00000000000000 0.00000000000000
0.00000000000000 9.13121611483984 0.00000000000000
0.00000000000000 0.00000000000000 13.36445778154586
PRIMCOORD
 96 1
Ni 7.749699765058132 2.5251739382970633 8.252646243558793 -0.6309029501432877 -0.4875973732426957 -0.47921506271627146
Ni 1.0279192768646361 0.004899810645325336 4.126223134961346 -0.14571161523892326 -0.36433200282243067 0.06110458062080445
Ni 5.8406546439308915 3.3804127844614618 4.614520403215463 0.3880293464393704 -0.28115347312072225 0.4434728721196555
Ni 7.300873092211177 6.714073741669727 7.1632026577749 -0.2586195536842643 1.1130457280293151 0.2795591320504089
Ni 8.539175591715201 1.0447572396487954 9.81686285319354 0.23506336363087904 -0.33176255352684153 0.9914016952625572
Ni 2.8736668068748523 3.8065757785501293 0.908801647626221 -1.1216951761741973 0.15060468166516644 -1.3388844877381327
Ni 6.221535936584283 4.7842642347663595 11.01777941396265 0.24917100667685474 -0.5764428714221943 0.434715951862632
Ni 1.3093250995773384 6.331557961305725 4.4178221343855215 1.9908221470645324 0.07696905845688679 -0.46650815667256423
Ni 2.1567384934065825 4.2194254593311475 10.828979647197944 0.7167975932245784 -0.04102786447558741 1.4066970765067321
Ni 2.443020385602334 2.4396783604510306 7.381470685655136 1.32634598895149 0.09719618413703905 -3.457916493712399
Ni 4.362064188534702 8.13211510204327 9.580712251388956 0.46392959731211064 -0.7595889773584918 0.039484174137551356
Ni 8.815431408457043 1.1319877485843022 5.636352811320923 -0.15779759986917982 1.123779826617368 0.617165031731905
Ni 8.971894799078829 4.78824544505589 11.493179752370592 -2.3192584644316185 0.7196726007795283 -0.5892914452500883
Ni 0.5804540683621049 1.0572578747092694 7.688653018749294 1.3457614173636243 0.549449373552486 2.0032320906931114
Ni 7.179793164598403 1.1910484553565055 4.176392776460807 -1.446709869454244 -0.6073007373433155 0.5029810547876176
Ni 9.020774199720696 7.500755416151116 0.6386390914949367 -0.5658715236642513 -0.8685191621030075 -0.343580372097376
Ni 0.954796497051432 3.4114406573142677 12.806732605076492 0.14139833257555004 0.09091420778306923 1.7803375012142821
Ni 3.199085091962635 6.806865161307811 6.049542173346828 -0.1143888938662417 0.8451851153627573 -0.762856335255854
Ni 6.084914678896327 1.5276250867144852 6.488844987634196 0.7305560804612514 -0.2777542176311862 -0.2821808859439721
Ni 5.139669434053263 7.900821394167588 4.906921123427302 0.6813310248868523 -0.3515896155550977 0.1992412117259472
Ni 3.933508815785812 5.585281918776562 7.863526767595277 1.7139009668576033 0.22420662342203324 1.3072722601494906
Ni 3.0265964168038657 0.5056182723784516 5.536373298242659 -0.254016250584298 -0.04712806383605432 0.38135784795646577
Ni 4.0262819729913755 4.972102484458844 12.269507540734326 0.429313292789822 -0.24223057080327962 3.0076744211897104
Ni 0.4244134530531763 3.491621867296753 9.704922359935793 -0.9296584526164893 -1.2856657376233083 -1.4065482096336936
P 3.7454879417681197 3.039370988352152 4.844041742015003 -1.0553751127907243 -0.9015030732281958 0.09128444663829441
Ni 8.923581533845105 7.222508994264509 3.043434379588025 -1.8965307952791142 0.5840337963955748 -0.3306832044197337
P 5.391846233516457 6.029670820520967 6.240921508705092 -0.05955086298043938 0.21840415780764322 -0.7849009737607192
Ni 7.047381397606487 4.3834768906653165 6.6838859407128774 -1.1774338644973978 0.21268653859757564 1.467366626472647
P 5.7222775563311945 7.065424680937017 11.464273061055076 -1.6227322198615666 0.48349903480360606 -0.36050285888432754
P 2.1569393801643115 4.535968202213831 8.370013418640092 -0.9297389281454375 -0.7016800208568496 1.1373125709964802
P 6.3791589916711375 1.6248360150225982 0.09690777192826822 -0.7152456753564262 -1.6020327825306862 -0.8956910945321092
Ni 1.3591267530615063 2.750139713304295 5.1926131390526304 0.5472742202780381 -1.1881319676411926 -0.8775496477363919
Ni 7.915595702076899 8.0845962526242 5.184193244538926 -0.16955114086068218 -0.34938412326334667 -0.4005418770840844
Ni 0.3363903545462677 3.5109343896874785 7.089043484916142 -0.4984996219774963 0.9528752570525848 0.24737791933217398
Ni 4.853834971454271 2.795567514199736 11.690466071527702 -2.11128012994299 -0.5338414918119 2.735342145905044
Ni 8.524565645698578 4.959894048318703 0.5132884940371794 0.35453944221204103 -0.42653367316215574 1.193953459418976
Ni 8.468006892181721 0.34128377334021076 12.936875264827702 0.6691869333251507 0.191258964851419 -0.49399376368734277
Ni 7.8474859599906495 2.37996933732434 11.780502603220027 0.285593768280263 0.6573711716371453 0.0720965608559339
Ni 3.1035086513651318 6.973774663331482 0.6180061952329592 0.8884997189899924 -0.6918126411444666 -0.023500140004469205
Ni 3.7889616623838367 5.834901977686846 10.346776552676012 0.6788967044137469 1.7925522981129194 -2.568315057017796
Ni 4.938700495378337 8.684151912281415 7.415496336806227 -0.35249644364008326 -0.7873175536220118 -1.2426732932221825
Ni 4.13592961784614 3.1918075126031042 2.606403411906242 2.0771770176116937 -0.0277260051603587 1.284809046049968
Ni 6.584803113071383 6.412341831561395 2.014104329811159 -0.40037809781271044 -0.1866227516309883 0.40573319147703674
Ni 0.9625762933052844 8.144259619669588 6.484381649126118 1.1476802873840493 -0.7212417450388611 -0.612312845845926
Ni 6.678279373928998 8.786467190479087 9.215288281621152 0.2540183074668271 0.5802727866912458 -1.5427050913046463
Ni 8.161006270291145 2.373139187561568 1.0697822509320205 -0.07154454500720582 1.056667863460219 -0.7073261633990335
Ni 1.258665111764694 1.338051905932526 1.0561091677037124 -0.41757697818950024 2.079447301703109 0.4406168907280992
Ni 4.024601829199463 0.5488491026416426 11.066319133359631 -0.900290026756701 2.3804293795139846 0.08239305768593552
Ni 1.0137384980122501 1.572514145850563 11.586209496753073 0.47269294532703754 -0.5437214699297733 -1.5208591990741485
Ni 7.799190957189446 7.116422523751297 10.77534836161417 1.2245120489321233 0.49310930419986043 1.6809502229631954
Ni 6.039724289623657 1.770506308024602 2.3806377423546006 0.24555603563208672 -0.5609375766977436 -2.5947025458723894
Ni 4.711625409414956 1.6580645109941579 8.477930698013513 -0.6487361216699665 -0.8137857751158695 -0.1906177317229943
Ni 4.5038628458423 0.7307000138321899 3.7228297417395875 0.8646365392191496 1.0026011635228023 2.24773937334571
Ni 0.6416724815366384 5.953096440961335 7.556518840731693 0.7940006220691422 -0.7749148090822848 0.009225889473642175
Ni 1.0599424522898242 6.208551347062009 9.958365659094301 0.9544603421515175 -0.5588806941687149 1.6599659074020445
Ni 9.00867533817568 7.804715343026983 8.885052366834389 -0.13311140997640947 0.7620083854332619 0.05124465710758916
P 6.741494784099679 8.36546333357754 3.286106496045779 -0.4142890514668478 -0.5740836271613984 -0.595679093943987
Ni 4.521540880522415 8.949066758427854 13.134161583984811 0.6652354048765704 -0.6946030594054102 0.19537478679200546
P 0.524983755823487 7.728305325360038 11.728007240939045 0.7269791617432706 0.3180819707159554 -0.09832515553515969
Ni 1.9277184583797382 8.983208376025452 12.980897771540667 0.4441842963643834 -1.1973758548369637 -0.618790740260786
P 8.18525878067874 -0.3249014582474448 7.267939534524828 -2.4709126704072215 0.6958176485388017 -0.4945550355074515
P 6.337867631741655 3.999974938945192 8.85797648437908 -0.9437768942957425 0.43048700138294893 -0.11184221618498803
P 2.8577510969329922 7.582835919115763 3.9699925903542006 1.0158914528738052 1.5129214322843105 0.25570366558904994
Ni 1.6779431687930273 8.259915604823691 1.998815021304762 0.8991235172524257 0.1481914442379835 0.5346817283250083
Ni 1.3243185566768991 5.971578022672365 12.826511732618123 1.0603116308603935 -0.12333941819131017 -0.6790265451233919
Ni 6.794117983408307 6.16713215010488 13.15801688646508 -0.9232862305415582 1.0395936815867515 -1.5672048762182234
Ni 8.036182544011611 5.375400913031494 9.171358913314041 1.8070594905901587 -1.7767341001337402 -0.8716175985226731
Ni 8.981190377231906 2.444828366421891 3.3585416952745755 0.06343914229125203 -0.21022445021032826 0.389176058449304
Ni 1.787362533241282 8.969100646903149 9.970153146164838 -0.5771486392399673 -0.23147873160341426 0.5401563782863343
Ni 8.663360132856507 4.867933569360314 3.2081249960604215 0.7499681664392761 -0.26665347973233433 0.23852381137565376
Ni 2.36335965494669 4.375779275357807 3.635654020101643 -0.15973389765994425 -0.5470878152988449 0.30034033046181824
Ni 6.680288241506283 8.540362649829053 0.8794867909438645 -0.9982446863263194 0.20876843449009205 0.1146082089658994
Ni 6.16736043051139 2.248616791418628 10.130647055643959 1.3745099502512264 -1.0214653474171569 -1.3190530548345025
Ni 2.592480133352399 4.427881995339593 6.181529338782637 -0.45530586019884167 1.5971482007448754 -0.7629229268277312
Ni 4.0805670536593945 3.7061232684695775 9.661273319967874 1.1511916429714173 -0.40852438106892874 -1.447251858000643
Ni 8.852933313638466 5.637868593220148 5.517542904070483 -1.5720974284238345 -0.4133295157670559 1.3604239044718054
Ni 6.424760285675527 3.7579429207472916 -0.12267697733671515 -0.43928171685644346 1.0251068008244861 0.7363590602962738
Ni 6.662765437502595 3.990067569302669 2.5678203707195895 -0.8161506758036202 0.7640598686456519 -1.5121267042971573
Ni 4.582226943788968 5.719720815778285 3.618667218492439 -0.5249853269728507 -0.8067630639411331 -0.15521698362619718
Ni 2.468167755183448 7.301557933430706 8.435980064270028 -0.04165341387472826 -0.07730330186785397 -0.4176461408645388
Ni 2.3179318540512495 1.6768839477068218 3.048579819950755 -0.8573713730163041 1.145596151161511 2.246019305330809
Ni 4.7616279496568525 3.569036318752341 6.906190879301831 0.2526890471324422 -0.3126001216657778 0.09632972237168572
Ni 6.548013442758273 0.16685928033423877 11.506771567774184 -0.7299125333399817 -0.12497489691220412 0.6253948758408648
Ni 6.872308588246027 5.956548040707763 4.244765497575356 -0.7455214435218321 0.3241898833859062 1.7124099841343734
Ni 2.3955197986157843 2.0224913519463272 9.358903137842942 -0.2139026703928639 -0.9944492238396292 4.229514836826942
Ni 3.042347764853039 7.547963804217333 11.552344555008164 -0.20133306125796938 -0.4663526049313066 0.4992784091250498
Ni 3.7359549519922717 0.7269005147462415 1.7375398779597153 -0.38202787744029687 0.7827258204862713 -3.432562588328643
Ni 8.408243081757467 0.35798020227233407 2.11622146061598 0.6832156435040749 -1.1765776871446898 1.2635858750051336
P 0.7100452026511874 3.63197779243521 1.7672492031845206 0.990481754551449 -0.40215395876621063 -0.24337188349657443
Ni 4.322489497262171 7.8270685604324175 2.478919762330057 1.2190253147859393 -0.544322850959198 -0.7160136638707024
P 8.100703718107528 3.6804371571291004 5.101440684057514 1.3318319517667256 -2.034431656224367 -2.057979104527004
Ni 6.203383078658629 6.4178205613176305 9.37166583881009 -3.87318025038769 0.9320529209905948 -1.582158155093946
P 4.818789363446894 4.87649865021256 1.149473114601323 0.5669143631064688 0.639223554193841 0.5935350510177906
P 2.7709680175942446 0.13344542067259324 7.69613696359631 0.2963803173728057 0.8266873136688859 0.33163476969972566
P 2.827545033543622 1.9866878529893377 12.789078311558653 0.8443615910201974 -0.13875678118764492 -0.3821422915309741
Ni 1.3957429302656705 5.646451936504915 1.9853574347801988 0.43087909461504503 1.6068536009580972 -1.186815305712298
