# total energy = -340887.88548745593 ev
CRYSTAL
PRIMVEC
9.08807099755265 0.00000000000000 0.00000000000000
0.00000000000000 9.08807099755265 0.00000000000000
0.00000000000000 0.00000000000000 13.30131054121541
PRIMCOORD
 96 1
Ni 6.393276085118612 2.1942510914585958 11.6398302954306 1.6381169298477531 0.4596196570828472 0.1535794480227742
Ni 4.931614385286518 0.6526888902829725 6.068576580801891 0.4042833464043877 0.2706219774617791 0.5556395615235978
Ni 2.7866933424291953 1.4860631700779343 4.960923413794091 0.5762569806636334 1.7078578459873168 0.9067766629223093
Ni 3.626558322428842 4.484663060634596 5.270631236428302 0.2952104654344206 -0.6379524007909013 -2.493551233742344
Ni 3.820370521483882 3.0249189437529203 2.569946487764322 0.39921750184570604 0.28377676967618226 0.6839126695710995
Ni 5.3687869456983925 4.817586360268062 2.8247060163946607 1.1119609796055687 -1.2588169928615804 -0.0014794127590039038
Ni 5.421297819098937 3.1980466935418406 0.5831815067692918 0.8792985121066985 -0.1116280432916529 1.0502442193220625
Ni 5.845292676770973 8.11795564356704 12.666811383879276 -1.3910359729307076 -0.2714719841669002 -0.30979196279302135
Ni 2.2242417252802986 5.634531225571243 11.62312369477774 0.7557467207942662 0.9184034485279603 0.8640403003960475
Ni 1.0624681875235211 7.863898622813798 11.639896638347842 -0.29754656976676497 0.45960114514008593 -0.4411534799578596
Ni 0.7129809699496211 0.5306133785223599 4.408200576495537 -0.4496813149232126 -1.6090256689087512 1.336733502833401
Ni 8.684942208072611 2.7895469966776845 1.3100554106350453 0.7400275102867966 -0.5676802947382159 0.5393742487046711
Ni 1.8495223877844058 1.6946162200598838 2.6998604606374252 -0.8110082123707323 -0.6221128626554834 -0.41554297847860694
Ni 1.9621417618203272 7.0037763328782185 0.5383945847884635 0.34892055336336686 -1.1641518026765112 -0.4134333883347719
Ni 7.7791887143737695 4.2950131980311745 4.107803482452337 -1.5224627961158426 -0.4650765664323603 -0.980522329345892
Ni 7.759040461288098 4.456099253937139 12.949942960912031 -0.5990266702599811 -0.41509714919043994 -1.282598154441578
Ni 8.218433354940597 0.3570257723481737 6.625116407859571 -0.15797192066351504 -0.1729722507270892 1.2000024938265332
Ni 6.8188522671194285 0.707208227342486 0.5158316312766025 1.0396049944406611 2.6139040585015048 0.7437491821127579
Ni 2.3272731845641297 6.982819241486447 9.38089576846819 -1.3966299220787173 -0.5059344809889867 -0.14239772037434184
Ni 8.934209815485236 5.501718158095376 1.5085815920426056 0.4712803812502271 -1.2478712924833542 0.5923448873644315
Ni 6.823705296956032 2.28728567280186 7.175125547200803 0.10836197094587144 0.34181428133588876 -0.12855875760872054
Ni 3.320908323431416 4.070492407556882 0.24077207877731338 0.7177666420060671 2.806254970865522 -0.7569913918346447
Ni 5.830433680922948 5.7187140259016775 5.279635697031496 0.11617606767365153 1.0874470536246046 -1.6207642975019185
Ni 5.530245612509414 3.2103337653378836 9.273792853441291 0.30963049751449256 1.0068098022875114 1.1892519401782486
P 0.12802728936359234 6.169000672557407 12.69610041863097 0.29350376715595905 -0.11531423389398851 -0.34762188915660136
P 4.119804280016446 6.378235327853486 12.918219231978268 -0.6483373435696512 0.23375030124641033 0.3654452904912674
P 2.264810873577293 8.857324736051416 1.570259602514651 1.2516384728352703 0.5563322167152485 0.19935048361030183
P 6.281992657498385 7.970528958156233 5.801526345147169 2.6093341797426355 0.3710927185850319 0.5338103814636483
P 4.845423121297116 1.3400269595079521 13.04124353833615 -0.5811780721143345 -0.2864080366514422 -1.8336380124096356
P 4.2200457015477735 6.626048843929301 8.205272010728299 -0.25895019755080567 0.23974508537726452 0.10772022359681448
P 4.84990354022866 1.4276268744798895 4.002044693104902 -1.3626088279382662 -0.6789794939355404 -0.17620721272461912
P 0.10932222192970491 5.839521751778009 3.957392274572728 1.8323424335266636 1.299153230586782 -0.17649157673425733
Ni 0.7747625844294141 7.528557896332885 2.603172474810427 -0.04980175401347552 0.575690309526886 0.8946096885424721
Ni 2.2768162151768285 6.414105943518413 5.059498991937685 -1.3059620259784994 0.7587891071650158 0.25800326025650405
Ni 5.965745967883958 6.028526361350721 9.42749030774209 0.6365426649275682 0.26289092736610853 0.5635652441285778
Ni 8.66626622246546 2.6871517023537077 10.477854093693754 0.4789013881305945 1.095287632714946 0.504213384532822
Ni 2.7979534622186164 5.006536441415644 7.2316433510413445 -1.5708920952618237 0.7370702274306855 1.4362565353314038
Ni 0.5993900811392937 0.37044885300109937 9.69493950970735 0.19760933254947902 -0.1737492381024298 -0.6772565977071626
Ni 1.7974568298557592 1.5382105206442767 11.563773139251676 -0.4262151134804724 -0.09618831169781498 -0.4322122116041718
Ni 4.203487236449852 7.207785347432638 1.9003183422146006 -1.0692973792987714 0.014752989939458462 -0.8117638595898341
Ni 5.932074665365954 8.340513410736639 8.095616256598213 -1.0631848386431304 0.9053234754155506 0.13181171732837943
Ni 7.0700738097658915 1.2111853789957463 4.829213638120027 0.03983127306432495 -0.6369828377887803 0.03213159042722208
Ni 0.8927421026556505 8.022667220651721 7.348774043449719 -0.061541153937590784 -0.3482232701860261 0.3332933883490712
Ni 5.178019250379799 4.815041700428645 7.403376081954013 0.5233714455185116 -0.37842473347007083 0.048712120493722554
Ni 8.117065012623243 7.445965508402088 9.258603051814141 0.7394973488149392 0.555099886970044 0.050928925639383255
Ni 4.6599901235704415 0.6787262132827235 10.659643683814634 0.33293214835491053 -0.39039373290648893 -0.770960195309911
Ni 8.436029035423333 7.582213866661169 5.156678642397943 0.24169655267668047 -0.27792750998425686 0.1065701691527713
Ni 7.151166666005604 6.547718761229525 7.266718760506454 1.344979287781961 -1.4643239829915813 -1.0457445316794958
Ni 2.266155908063842 5.490894265706999 2.8930746646302024 -0.007762160443922116 0.18852382530844308 -1.642127593669043
Ni 3.753427791565499 4.996012455365483 9.59882407234422 -0.4441639846494092 -1.1417482381703306 0.8403951501732817
Ni 1.0598326469755535 3.754736473768628 3.9145620142469952 0.40788211949923947 -0.3332265396668777 -0.6926479925615684
Ni 0.5444654161196446 0.41080079640465755 0.42845528284769996 0.06583566754788661 -0.36118960053870697 0.24726967588908386
Ni 1.5131001808717421 3.711913483899579 8.866361004902604 -1.8031691543968174 0.7106899376649438 -0.5187727704042355
Ni 5.572214323718088 3.139346843888999 5.121390572074825 0.46973746224313934 0.47832906056689234 -0.2695143462198971
Ni 4.242393267780369 7.426162602008908 6.076304167449951 -0.7106194894383245 -1.0365222417502793 -0.1259334041707315
Ni 8.056947423917013 7.689116844129256 0.8771524259108782 1.2066896760387216 -0.568730333269285 -1.8953339467575359
P 0.3707469417251454 6.0891801462374024 7.962589619457251 0.004821332648043309 -0.9485306069306438 1.739501698144843
P 8.831469174468767 2.0425257485333455 8.360458999842242 0.735673861303791 0.15529026006629387 -0.9719091337555843
P 2.102997772002924 3.6692540793059205 10.931402448979364 0.5641380859129123 -0.7888399038038092 -1.220462304342782
P 4.146904907306239 6.1005220586645175 3.7713076621657473 -1.0565539635901737 2.029312846940563 2.12191344128712
P 7.02267043218589 4.367363330108319 10.69942762278975 -0.28408170251111076 0.22926064090617293 0.10374118434440843
P 6.371337482074494 8.306224119400492 10.314221560334202 0.28544155897311485 -0.923591420486803 1.0370207786532528
P 2.3059071299838805 8.498609491331287 5.832438509353574 0.08090644583808002 1.131046278371794 0.23321782578170805
P 7.060367750092686 4.057178383754217 1.7841846111790274 -0.0014138496283911132 1.5569970824472863 -0.47855531764508547
Ni 2.5931628735706624 1.9665040358307566 0.42748376807329386 0.7641130904810904 -2.1849108680552627 0.21126137611527487
Ni 1.4866538946835133 1.2629328544444662 7.206131318537016 0.23330601462014014 1.2794313266778223 -0.032053171780802865
Ni 7.277781669158321 0.9960798299272976 9.326732683786195 -1.589851667083462 -0.30244992060565334 0.4710577237164597
Ni 3.231881581335234 2.2941017259431558 9.197456693487117 -0.03935407631759029 -1.3644597651040757 0.20620658730018682
Ni 6.396620495193275 2.1831000285194357 2.8167121492705487 1.2359305751817102 0.9741403370789481 -1.7460505550069543
Ni 4.32682144602389 7.382894296667961 10.87882250624032 -0.28121620803785763 -1.1737528161013848 -0.47965549268779967
Ni 7.2373579299950075 6.626276045700678 11.591506296272982 0.6656408678451052 -1.0682517116430765 -0.08832459267902208
Ni 7.601907716204086 4.217055726236458 8.506985966238396 1.4001189090685822 0.4822628484036598 -0.15064453376416634
Ni 3.3663668538484335 8.753775256728847 12.692722382694141 -0.3364309055367884 0.2558931558920367 0.5971119697357716
Ni 0.051369411701149205 5.486613784334264 10.376152219176019 -0.00023139928451573053 -0.4833653374392192 -0.33255959550684017
Ni 8.888415026446582 2.706772847329785 5.625629460168711 -1.4136375123803075 -1.9128462446096863 0.7574089389880375
Ni 4.128374330832768 2.8002254799323816 11.371543173332503 -1.923972179319519 -0.14728513037363022 0.5143538154009335
Ni 1.0550614097766462 3.6390453317836964 12.818353147773255 -1.1277637509657803 0.6114453556393082 -0.04276567310230054
Ni 3.3885599228764933 8.711624784103073 8.058346078021605 -0.12216468115691864 1.01965606212256 -0.01309462840042906
Ni 5.5221844936609745 8.227157902961457 3.8000514126661358 -0.3631186992406198 0.4071269865007698 0.16493549646554176
Ni 3.0323348095706506 8.700210167109114 3.678570260739444 0.09965004499417032 -1.2607625466237256 -0.6954569227652733
Ni 3.987254766595375 2.74667856645436 6.871350417220777 -1.0582940862097323 -0.2935505612334945 0.6354293772587314
Ni 5.139494918025194 4.611659762763225 12.042487271542038 1.5254347342599728 2.337264414090736 -0.8722709158359558
Ni 7.930895881157309 0.017907134812813037 2.8761154156075723 -0.4078672071009041 0.07201531399603726 -0.4827235900901622
Ni 4.58938490109747 0.7335045603616063 1.8098293295178396 -0.7991891082486172 -0.6254408985874519 0.30197555207239607
Ni 6.089416436079634 6.006178795118125 0.7713127527328328 0.06595368118298965 -0.22867468649571587 -0.403130463746867
Ni 8.023194328761313 0.08296863406419777 11.782660234602917 -0.13193770138328248 -0.6144802858108901 -1.1511258227304884
Ni 0.3786671954753314 4.93998449854403 6.09955508792554 -0.5904996066255765 1.508625633122434 0.39762418921665715
Ni 7.451763697607616 6.827903985691069 3.034028825978034 -0.9847335392137622 -1.7467025867686563 0.42441482704693995
P 8.711597519890507 1.933278048784652 3.2990578746745918 -0.43865179658192843 1.0974306471998778 1.1798324466365615
P 1.8834845085697705 3.676088308588927 1.7167865689108064 -0.9767780318121114 0.14576689395689088 0.10468452209428422
P 5.101488605709326 1.4362787179339078 8.33216692646335 -0.42453438334393984 -1.7573114726327541 -0.8514591212969271
P 8.654751636692097 1.934768492404882 12.567290646366756 -0.36113817847548124 0.7446776074642981 -0.3143330451964844
P 6.15395991529228 8.127925257295042 1.6288385808251205 0.06394899204813503 -0.5624534991216378 1.2481260888066374
P 1.818604770735487 3.273277744080039 5.9712905999126304 1.9485416411287668 -0.34898560227334735 1.0399911741354864
P 7.162617635282982 4.35560336642187 6.261964366948 0.30602452533078905 -0.678550891038554 0.6142172619574906
P 2.6328141267112954 8.962500980057042 10.326245986882535 0.13863156846369026 -0.22295398196185473 0.15582247842068
