# total energy = -381160.653544573 ev
CRYSTAL
PRIMVEC
9.31649130782664 0.00000000000000 0.00000000000000
0.00000000000000 9.31649130782664 0.00000000000000
0.00000000000000 0.00000000000000 13.63562675438636
PRIMCOORD
 96 1
Ni 7.253698977069404 9.04337831424955 7.130533099374743 -0.26076488216204124 -3.5419558287525064 1.2838641656381953
Ni 4.217855086057988 4.818386795889924 5.418566342352404 0.7685986370562699 -0.2151907930766681 -0.32016147895280345
Ni 0.6925292660316495 9.148011827538966 11.583655675807139 1.2589524899981803 -3.1014057867066005 -1.5305072636868737
Ni 4.335382623244881 3.557781680612782 9.669663600858792 0.3863247050434379 -0.005707334797422429 0.9634185797860697
Ni 1.5913871373001773 4.207811908484666 5.304435597877232 2.5448763663788814 -1.5960817071535736 1.0910918494660435
Ni 8.849157421048192 0.7931324652039787 5.292640919947893 -0.4408014959350795 -0.44479621891676946 0.32702478173154004
Ni 1.1001192369115929 1.6370006784866238 10.408182794323606 0.46635646158604843 1.1357827646155148 -1.5397845752237418
Ni 3.368256299004146 5.4374862727938735 11.488451383317315 0.56024646416799 0.5458467438028921 -0.8071669842477711
Ni 7.73408521567168 3.508711721170581 7.737441015821875 -0.0014837836343780898 -0.013462296152492944 1.19069432905173
Ni 0.8512785504271916 0.5643287564625696 1.8256195654961092 -0.8967467894901331 -0.8709352277436677 -1.2769797798135363
Ni 5.948449235696377 9.279383670731384 10.544252944056122 0.490261293228104 -1.9259367592450574 0.7730972962575718
Ni 7.294644956136894 6.883722476334893 2.900911284861182 0.46488964723253484 -2.244900361235018 2.036374381773035
Ni 6.599653341466442 5.646790565337727 1.1178913756303972 0.9232162965355712 -0.6337293638484892 0.30238538591630504
Ni 6.5275157496758665 5.347256054985309 6.710827963266276 -0.5449337450703196 0.7711075195210526 -2.237237188262805
Ni 2.0049275511449456 6.319981590470539 6.994135940799161 0.5770738201379738 -1.441424966906221 1.6420646016415912
Ni 3.034586164691936 0.10275530865232695 5.857674003149372 0.3649133292471973 -0.343762406201195 1.121804705168868
Ni 5.479354584495649 3.5233013464765404 7.456178939768676 -2.1437192243083016 -0.8428361555146066 0.483381021168503
Ni 8.915910080893145 4.561009408468198 13.706940863509832 -1.8014472866097042 1.1875334148252452 0.3688131785222358
Ni 4.080148028811896 5.630803466343458 8.730605069823206 -0.39773217554943113 -0.040420569908891674 0.105241937259651
Ni 5.469926295345182 8.867809036541505 5.261728801962471 -0.21541473616201612 0.9726241575447379 0.5838391638862654
Ni 7.519489156094757 0.8982075801789007 2.0931910576494954 -0.8050123997986136 1.7075626833444013 -0.7652353770109918
Ni 8.499257958969071 7.749038184136599 9.478914963948322 0.44857239812975 0.8043369709981439 0.32097343333113754
Ni 0.973703767067048 7.116224832104698 2.867122234376091 1.2696930163441358 0.6092264936111185 0.8388049228680263
Ni 1.9239020266967175 5.999568823214767 13.466190618031622 0.45065524880070773 -0.3181372494339231 -1.019442403449857
P 2.8428434581645146 1.0412110627036884 2.0202131183476832 0.4639339681874849 0.7903000332891034 -0.5233503624725889
Ni 5.743607542463861 8.45501394199717 2.8772669617040982 -1.017994615259737 1.5940934730789513 -0.2858375088599529
P 5.773774341148852 8.015368719654766 8.654341204055614 0.5815321130196437 -0.5906001367591828 -0.924847147270775
Ni 2.194508831701114 9.373321852059599 8.5752823909114 -0.5304867164070541 -1.1302631203488662 -0.11311336958792778
P 8.914149264045873 5.50534759509822 2.244246783566327 -0.32793880890537713 -2.875883015576305 1.4519582623373768
P 0.3993849370313111 0.6816746220699811 7.410363230721987 0.5381756004108796 -1.3255515180746527 -0.8435542646275536
P 7.5323459140272115 8.09437256550057 1.3403934096866525 -0.8975379179328608 2.4894873480856154 -2.5640840496555843
Ni 9.196876824173547 3.1441946843117363 3.364482188396583 -0.4322417792905266 0.7560187435087302 0.22427295788359441
Ni 3.423158381972228 2.959579093594697 0.5574857936354771 -1.8720369239028083 -0.474723345493505 2.1829833120152466
Ni 9.321801655417227 6.97050559237896 0.8338427370427074 -0.4758399755964515 0.9672613505709277 -2.136258140044566
Ni 3.5433224861843984 1.3537793443224135 10.47792884280892 0.5713924534824805 -0.31080934831394214 -0.253366532815441
Ni 3.82658108631363 9.110885609886191 12.37427641496866 1.0631724973479562 -0.7751397806088973 -0.028294218959002887
Ni 1.6135324370142672 0.07448907418343835 3.8436926858024263 -0.25876199279939954 0.5446599225836426 0.8710658397842611
Ni 1.6773224526400021 7.668422585303608 5.321671106699725 -1.051603304453118 -0.12777842779927026 -0.6930776238998192
Ni 8.193332335615448 0.8596056303112696 10.877412534647538 -1.5049152741503826 1.784755684886636 0.14990894114972245
Ni 0.25740720019374325 2.628387145956424 1.0264733051867685 -0.029069149451814453 -1.3211837280242602 0.12736679418314836
Ni 8.120207195751801 1.357962448896089 8.604134632680255 2.199007455357645 -0.6115358584705856 0.14984929155638066
Ni 5.64660423551262 2.869721535436349 0.46799064698696335 0.07939566562050843 1.7156770849214196 -0.22831833159756162
Ni 2.1844563376365356 1.2887129693946886 12.640784895469805 -0.8989653944080066 1.5939240373806225 1.0043965648603281
Ni 4.412430005927052 7.10319106083839 6.9743915008815875 0.1363268315899136 1.3145492534268781 0.16578730294287577
Ni 6.134005792030211 1.7910209119209237 9.321723396890683 -1.8103301909216305 1.7989684860519084 0.019688479567862866
Ni 0.427843091220061 5.803316934919731 4.626254660028026 -2.2400237498690068 1.0320022423927389 -0.4507976879158429
Ni 4.0082712987764735 1.204314875112005 3.869109005596288 -0.917515132385736 -1.7992248250370884 -0.6896058633011349
Ni 7.5343955421034 5.879870543565366 8.560200854867157 0.7170063668012748 0.5236635228376336 0.9150391600414177
Ni 9.280939524771036 5.05975845133487 6.863028685958396 0.2226711606141133 3.7502537513640832 2.2205245034938144
Ni 6.86196846925353 3.263287392029536 11.622367560271583 0.015471099052405611 1.281396163713677 -1.1187960002495312
Ni 6.059324798126913 3.35663863440866 4.987244473297576 0.3975272586274767 -1.360770746288263 -0.6469180946246214
Ni 5.440896108593352 7.331342615191921 11.950113337794484 -0.053175812692031 0.21294467735496875 -0.15603870819654417
Ni 3.9710239667373775 2.264047122431432 5.858710928626098 0.4768033679509853 0.38405622072423534 0.9799559153194606
Ni 8.876305676566432 0.13766140643894031 13.50533851428682 -1.240281395951238 -0.5439916928720244 0.7422435441015088
Ni 6.2014665052105755 9.223009582144948 13.383858921509388 2.0617018047942297 -0.44555932233503914 -1.503009315376921
Ni 1.5098119398678806 1.9429169853489925 5.84206142710357 0.2571455402418991 -1.0112876355532068 0.00040443452727027124
P 5.128998614345015 6.667700993595895 5.0214425177487785 1.0118705046398702 1.010112898518815 -1.3975881722269285
Ni 2.9620572802686342 7.007929937751908 1.6707599161996973 -0.9829782470855521 0.6656048724008472 0.7486530471722783
P 7.787720255829026 8.22665742483602 11.601791157684904 -0.2465739353736399 -0.8088626267826393 0.3867193693786953
Ni 3.652819207909134 3.709016283161717 2.7929173131759426 0.8168034788962707 -0.7450838417637813 -0.4242250796336372
P 0.7289986710509193 5.858060637536471 8.933653338489057 -0.851362704928379 -0.20594562032931626 -0.2918605751255812
P 9.216124695107206 2.7472935238491156 11.79949455531753 -0.8598758846057126 0.37963700861061717 0.6512406332593752
P 5.488289099609579 1.6275258068798801 11.77841319890481 -1.040472484647279 0.3387202157915973 0.7553410007154152
Ni 0.10501455778176184 6.5371117356689314 11.755723816101401 3.6131149653958357 0.5607185187084022 -2.1698717143339534
Ni 0.7110243644718729 2.793326307142055 7.819349743641115 -1.000412897622232 0.9378559008256171 0.9907380935366292
Ni 5.4780689087024035 4.953690198392121 12.959053938087711 -1.2367805818868312 0.10065406077865247 -0.9822591095313408
Ni 8.746405838992366 4.1543911476261925 10.082945947895784 1.232001672440949 0.29363772163066204 0.2904726936391191
Ni 5.319148200867762 5.157609558990353 3.180469374663768 0.14718562868128843 1.549630871890202 0.5429640229384586
Ni 2.8411385402647764 5.600552819237169 3.835169959601985 -1.077690488458473 1.6068901106229874 -0.8848960607991341
Ni 6.7692600647710295 1.6437271851730237 6.646331757603381 -1.2453768081962746 2.7444232822707058 -1.6275764353277453
Ni 8.588882604846036 8.69359996655675 3.304375913413234 1.1407241677811903 0.09507065315360401 1.7051656438671343
Ni 1.4794122289015048 3.7499063632816747 12.905084435894295 1.1937038053020153 -0.7322473521207454 -1.2030734194423731
Ni 3.6597693103856637 3.239465123889474 12.103432039437253 1.525556861660134 -0.5796778334197242 -2.184832963629476
Ni 8.78560031770384 3.365955125664062 5.879096343142042 -1.148647279283009 -3.350977114145668 -4.486521794608447
Ni 7.326535305704134 5.149411046685599 4.349819458094251 1.702833139079216 -1.2218465862848182 0.407803186632188
Ni 3.461355996119375 7.988127299223971 3.903689026188962 1.2669735605304437 -0.7469869723237651 -0.23808518117633837
Ni 1.7441403279237426 8.37024318806427 13.386530891201435 1.0285973304762477 -0.5270218977869053 0.916533742309073
Ni 2.052115579353555 2.380847973300402 3.6258088364614736 -1.207633785119546 0.7875201565511212 -0.38119895378109836
Ni 4.608104271764253 0.4691365754113777 7.789065557166307 0.3038321456651606 -0.28222793713182365 -0.029492095921845984
Ni 4.798281807760767 0.9002581399042145 1.061693368728689 -1.8627161607225144 -0.653035520376269 1.8561215382241323
Ni 7.637119174685458 6.297659277422598 12.7012722149455 -4.052559690192704 0.08213157649443274 1.0221086374281108
Ni 7.3015764256309135 7.245453882308373 5.329116846511042 -0.6967735846941678 0.6920463544218275 -0.9236474705357188
Ni 4.932700143593702 7.393353180987875 0.5905276615218846 0.9064331635399614 1.6796615860587587 -0.3796542350017978
Ni 6.965008862538274 3.5250901127975776 2.3967474972768708 -0.04576743604310182 -0.8490391990015249 0.1512582560887653
Ni 8.953092197493453 7.524277832600034 6.716295811984071 1.9916130183969443 0.0396276416939511 1.2391578238697563
Ni 4.006762027193099 8.21137837917716 9.892647297512951 -1.5150585332319713 -1.1451863173176018 0.27836742573515283
Ni 7.544569150554299 2.1485039978819405 13.438973420478092 2.2191908722840554 -0.7730669572402686 0.32075437534179596
Ni 1.8446373190957603 3.829217653338909 9.64952414171199 0.41498736308545303 1.5855023889758306 0.6984841396273712
P 6.724615438675144 3.9491861112347157 9.510590102567562 -2.1186661379944156 0.0672150643939165 -0.1699620031458557
Ni 2.800350941548628 2.177049727088491 8.293801377313699 1.9766000899278797 0.8851948229864753 -0.8668042362944297
P 2.2744350101812048 7.315951771637998 11.249324070615796 0.13262855680271998 0.990201761417185 0.9855544924531606
Ni 6.077193828354773 5.663662731001259 10.59961339839397 -0.41182233509391014 -0.7968244646711826 -0.3065274331091366
P 3.272389603986063 4.000799472789641 6.994080973500754 -1.5585382016821612 -0.18985668518725368 2.711950249343665
P 4.322935790927664 5.5203844119844385 1.2306302363120125 -0.053542966223462635 -2.777780517574913 -0.022359341531806652
P 5.940064393566516 1.530839260631322 3.5807431049608445 3.004194690171226 0.5685215596925887 -0.4159975495175222
Ni 1.5839898432433885 4.438627979337242 1.6988351625978502 -0.10471383267032289 0.7420406840620833 0.744509200207234
