# total energy = -381165.0475769337 ev
CRYSTAL
PRIMVEC
9.27843770101147 0.00000000000000 0.00000000000000

0.00000000000000 9.27843770101147 0.00000000000000

0.00000000000000 0.00000000000000 13.57993145429433

PRIMCOORD
 96 1
Ni 8.619956155621932 3.0721649145999073 4.2533295049296145 0.09069900644846961 0.7618374070730363 1.0986370088031532
Ni 7.132381370059079 6.539266525353169 7.848209118997241 0.5745083734036428 -0.42665065835599425 -0.7558349096326984
Ni 1.2646510439493077 8.984283286155412 6.296552804197149 0.3551896742015302 -1.5748989024283715 -0.39727169097324483
Ni 8.984580196158394 1.1233404394053021 9.630371514612017 -0.6694995794695631 1.2563816439472106 -0.16595571019994002
Ni 5.85101986000447 7.167778609477029 11.271872796314312 0.7596398852010853 -1.0866885781920252 -1.9951809382538606
Ni 0.8027472244672357 8.308265601554513 10.800118987483327 0.06927066137136458 -0.6415730282626241 1.4641566041757816
Ni 9.152083830027923 5.2737247513949175 4.625229696226643 1.013365601128158 0.8987905593930391 0.34374312292748543
Ni 8.051197209598095 8.16930244172158 9.521202345734519 -0.7106613984198535 -0.36423635778483077 0.6247305027839886
Ni 1.209722693397731 9.005271111991167 8.7058494359532 0.5839263242834332 -0.7076691485607489 -1.3258032290741424
Ni 0.6300523047643267 6.842541536523581 7.233812321983873 0.8690444384788583 0.9067206128733933 -1.0964366587177246
Ni 1.710934613743275 7.597583674105524 13.130802201043712 -2.303263631665259 2.6758689302400755 -2.6119479632163984
Ni 2.160558421070784 0.9037059039185373 11.90849980195716 0.42682446492969717 -0.006434185661117951 1.3561335046265677
Ni 5.33689235452923 8.630932547294654 12.761727293993806 -2.2815743196172837 -0.7521147804686337 0.6115052623429662
Ni 1.877185658537726 7.620909666214757 1.6709157845601659 -0.22384075544218224 0.9014164270516604 1.561625325247917
Ni 7.297175700151403 2.039743885170095 1.9479458071545317 2.9824917512764952 0.14569387462711036 0.12751951771092876
Ni 8.92427963024037 5.000808788029364 0.039305317332194105 0.6241800295971573 0.0968593696229106 -1.5922353368242899
Ni 4.905250159257288 1.2532571225848927 11.64970747629593 -0.661655400834796 0.9267649331187781 -0.0859640628666455
Ni 3.6385671374750754 8.060290078439406 10.515036208901849 -0.41640352670668934 -0.1253621050482938 0.9722037821778676
Ni 7.403636493095455 4.221225183013481 1.5319247894144534 -0.899822085981347 1.2907963739816544 -0.15780454184771533
Ni 4.14589354819452 1.622650280044246 0.5830737195425796 -0.6048674453114744 -0.9816834395335288 -1.9201918863414802
Ni 7.863930503655111 8.02908669281357 12.472501693026974 -1.2323526280224646 -0.7696646164269391 -2.2082045484758805
Ni 2.9886960900117345 1.0465242545714333 5.343702727722618 1.791106566805328 0.018875496748264265 -0.0011004321530303628
Ni 6.455658524201099 5.271145345744015 9.867476420242966 -0.5813179401263086 -0.6978531909115917 -0.1261545190426021
Ni 4.866122987926883 5.084620914808484 0.3384894653677761 -0.0696288160417317 -1.4131464316765017 -1.0128714351005588
P 0.36936532214657364 2.5901500816346354 7.747119613575876 1.2960167418403292 -0.21020079606124445 0.5565728719711448
Ni 6.573745199449396 4.2148416179493795 12.365546359359206 0.15717025069782609 -1.8003823356802995 -1.0631213323950466
P 6.204611838242651 9.24659399535197 9.936177683557847 -0.2768353053613426 -0.689825949731741 0.7156891906517481
Ni 6.9855779304599155 6.036681396243836 4.0377069658581375 1.362390541279873 -2.3599371730979035 -1.0551167169230151
P 0.8254831079455437 4.581989393511185 1.7750328441681833 0.6496264946947199 -0.5957261451318385 0.6886640682131558
P 9.125519663198673 2.5147906115028946 12.208059726715264 0.7781610839337244 -0.35960580099135486 0.005695764833196643
P 4.010094335580859 5.134566744372527 9.037959975475669 0.5379678552754478 -0.2412561227051523 -0.017571947445492318
Ni 7.680709196502749 1.892578586504798 7.589755456308165 0.071083031989755 -0.27723588323387094 2.0286551587519064
Ni 2.5973408707693433 1.2160784231490536 7.490879786096531 -0.4412411545756595 1.434193225044472 1.9668342687903673
Ni 4.7710839516600245 5.0716960512411955 4.8836017086649 -0.21831648318984334 -0.5425174223193431 -0.44158028308263303
Ni 4.240709901959142 0.5873315945540861 9.343861712328708 -0.4482281274164538 0.17254364783010284 -1.1793639916405754
Ni 8.35275570981377 8.630440790102215 7.216755770156346 0.8964256587052883 2.50135298917495 1.2992519609481752
Ni 3.453453029053706 8.25291044287365 7.217719799822277 -0.2900741726491198 0.5335087910628296 -0.19581470254290148
Ni 8.352885607940076 6.080317888244523 11.211780995242135 -0.06902589235041015 -0.2040365762320615 1.1647616683463682
Ni 6.148115431737828 0.6553453256433128 3.134927050011399 -2.0435284763193127 -1.8311808091183945 1.3248575773314215
Ni 1.8990827712576115 4.074672261229334 8.762871929869556 0.43922540969721124 -0.02013456596634597 0.1231113613409041
Ni 5.18073624983615 1.8650494621658573 7.263728788315538 0.5311639449797368 -0.15293512957055594 0.755634363586118
Ni 3.184573186041183 3.9141552908674626 1.689845652937755 -0.46729671401213063 1.029869255210136 -0.7703948097247442
Ni 3.334392117858127 2.1844689547483878 2.901175371726623 -1.2692207046934076 -2.807981209528009 1.7825854167081945
Ni 1.2385693558749018 7.641860378300139 3.833451440682055 0.7053165891681724 0.05171336921389158 1.6199209756650166
Ni 7.483004248267447 0.9534336901991413 11.481071873040037 0.7251017422148995 -0.3513474176373046 1.6333017678472967
Ni 6.861562333589583 6.14765150985817 13.307789325977222 -0.15438548886383735 1.4452029458914144 1.4182904377712864
Ni 4.062118535165773 6.755249995647021 1.6542804737993684 -0.909371163122363 0.9316829392456857 -0.05592766440555529
Ni 3.6986914130788286 6.78453274469107 12.570575706230558 2.2091571421971374 0.16803470421615574 0.2205803395233556
Ni 0.09339396928158875 0.07282645666880495 13.113990599968643 1.5440325518668183 2.554204585758343 0.11104440287404102
Ni 7.98061613482684 4.139361528128927 8.22021786801411 -0.29502200357269837 -0.08077120581179638 -0.5108221480985913
Ni 1.859825701800902 1.085354515898857 1.0351340445820556 0.49895162191325043 -0.6384208557868876 0.29442345075675097
Ni 8.274510645590555 3.6359135043234287 10.608207495681201 -0.3067531759666975 0.07013943712956308 -0.08114607265271187
Ni 1.9328377272215702 3.4855285878133015 4.288067047434691 -0.35910932097091053 -0.08529994692008536 0.45980914738583395
Ni 5.245425516735744 2.7441535888061 2.093591297742067 0.6572711557241713 2.5488404932329525 1.5781675458773141
Ni 9.030220830679205 5.97385709530047 9.08323596739907 0.7978073974097423 -0.5449885095676549 0.6485116643639863
Ni 4.9951582195351225 7.113555420182534 8.68493676546195 -0.33239453068388564 -0.24816056313446938 1.6797765143700683
P 7.323136768537097 4.769200428828611 5.986930413869249 0.4779829900813832 0.6874438226528096 -0.5931822956640622
Ni 1.5613847566165329 3.275242078201657 13.507387075481532 -0.2870569830893508 -1.1540162569044061 -0.16103230475639363
P 3.4324744816555453 2.893452928117826 12.135339044235023 -0.6568770056095461 -0.17931002001965893 -0.1929314674578355
Ni 6.713311457725885 0.3691036702064462 0.3818661611158539 1.4285177719262494 0.7030092811912344 1.3207564106788543
P 4.9742260643249265 9.256095115447378 5.577902554543144 -0.1434747554886045 0.07053847234019464 0.3010111312765977
P 3.4404817732984525 8.750206862554876 0.37924036327698635 -0.059954011956129004 -0.028292162076473854 0.6105153876258711
P 7.985849173629389 7.906286571267941 0.961273042121612 0.7712044501102331 -0.9568674089311134 0.3018184576692415
Ni 3.482930625287213 5.645966389195374 7.036685420410625 -1.6412955846860509 0.3622617505569632 -0.49296326554029946
Ni 1.97209479667828 1.7557587457558876 9.871605324971927 0.1829419603452914 0.6478601468229166 -1.0269487391292311
Ni 6.656861443409028 3.8597279759459173 3.8050018953338713 -1.9721821633658418 -1.2464003643647825 0.2655836437069233
Ni 2.4810170986637496 5.662472729673627 3.114462528055899 -0.9860136914777664 -0.39255860176829166 0.18330937098703914
Ni 4.141560517838508 2.952547297148737 9.428355804270927 -0.3423500992347008 0.8258463058248293 -0.12079222628942425
Ni 3.6582559820477862 3.2594037852301128 6.6874505964661966 -2.498105171661614 1.0974409316125229 -0.8192079745727053
Ni 6.242829722688925 7.550207971754789 2.111313113545025 0.30882368534248106 0.09450732445096628 -0.8935825328295385
Ni 8.850655227938553 6.248508126495947 2.410859120646741 0.205129295075608 -0.23575396194000042 -1.524662631980639
Ni 0.26880561551177834 2.503090501697905 2.370091521549863 2.082775080524762 0.6660869542435883 -1.172797394166651
Ni 5.280748528652948 6.94196927377201 6.422126250739376 1.2029024410821476 0.4515836741522481 -0.3572290732290622
Ni 5.809999887405057 7.6370170338765035 4.317304332134534 -1.9827447693730371 4.017948270766421 0.5697670020639154
Ni 3.9636371985518477 4.866058038863731 11.20466536145193 0.1074137480999892 -0.2919647048036133 0.1895304121960865
Ni 5.618706339546636 4.345843878327371 7.2796032671936945 0.46221955659953945 0.3292364446708782 0.5595077862297525
Ni 7.991815209001798 7.312540792805695 5.6500526131114075 -0.508550321345279 -1.6130702712917704 0.3906783540264433
Ni 1.5625074475653067 0.8088338795283564 3.8066451066316227 -1.0104733671820274 -0.9076649790645337 -2.7888573442143647
Ni 4.923714250067699 2.218084734148449 4.883153560129149 0.5959775990210122 0.6225746327832503 -0.9286078998647879
Ni 8.391595249578788 8.08894189372712 3.6505168372513217 -2.1549567448953337 1.0498927495199144 -0.0933888945758069
Ni 2.1250591188393093 6.82264856632382 9.184840426106858 0.4520680699878343 -1.104895588118355 -0.2183131407557337
Ni 2.137891198030666 5.5871689301674445 0.32275787442855336 0.3011322302354943 -1.2208937354532459 0.22029751817561416
Ni 6.317094337184672 2.19123293575381 9.999732197539796 0.16931022849446972 1.2007864231804093 -2.0558785132442337
Ni 7.05386723114566 1.1869626859816809 5.694418390306917 -1.4783809753052797 -1.2242703652349625 -2.207085347269773
Ni 0.18933115830746586 1.426643285888493 5.441016836887322 0.0518825478019042 0.32130150609451763 2.2119323909494293
Ni 3.532106344531023 7.210552206781551 4.623179161518552 -0.24119235934675234 0.7057837586125779 0.584789957835309
Ni 6.147790686422067 9.184845993169413 7.727442830972037 -0.10130789231256747 -1.563218637876966 -0.014319244836149532
Ni 0.7344662743753256 4.548308665047972 6.795356969987265 0.1418649877993234 -0.5368597098129335 -0.8245288725649863
P 8.119931875288314 1.0117857842225984 3.752583362151248 1.4225769809617823 -0.41394298098133875 0.31530877884619246
Ni 9.116092770604011 0.19872000930799633 1.8893895875040247 0.27062352012367585 0.013283090262151317 0.11349080753200455
P 6.229524443180318 2.4859903412136894 0.18179892266932904 -0.40208685297370106 1.0416109691270965 -1.671428142405373
Ni 1.3778943747739687 3.973713581778032 11.134498104997327 0.47433073804077674 0.49011782567170437 0.39685902891585845
P 1.9144942560998697 6.3343893448583435 11.364990268155623 -0.3239065478175325 -0.7219721954469824 -0.5065327766946179
P 1.8481719841838782 6.126580178084077 5.450984662393666 -0.39659291973866534 -0.6769010141399568 -0.17372378418113307
P 5.450738783797447 5.350012065285975 2.4054943280303687 0.9944104001818939 -1.0774498332025766 1.139472040541644
Ni 3.86933115885485 8.912950657939108 2.8228876266904774 -0.3780115571920522 0.41581525830338706 -0.24921214432743533
