# total energy = -340889.1540716954 ev
CRYSTAL
PRIMVEC
9.13474211647938 0.00000000000000 0.00000000000000

0.00000000000000 9.13474211647938 0.00000000000000

0.00000000000000 0.00000000000000 13.36961844135593

PRIMCOORD
 96 1
Ni 6.624588098264767 1.9172727641843381 11.315496521937021 0.2183203398445853 0.9634653738636052 1.1395825979775793
Ni 4.864496842567431 0.4756944388279876 6.054084170473765 -0.5094597205334258 -0.3027180866653755 -0.10369798981129882
Ni 3.1161254610718054 1.5391035731659501 4.851086127590401 -0.5810289481309799 0.4842276854395144 -0.6165492525247769
Ni 3.5462530655425133 4.248787816209007 4.710210133873509 -0.46161046226063085 1.382095218797652 0.32276677778613444
Ni 3.7531367061663072 3.0178721743114063 2.8306026520710192 -0.34414807167538797 -1.3331689254105943 -1.6491011967733984
Ni 5.248886793002315 4.757254969513593 2.56608426921163 0.41372186610946815 0.0798270967309722 -1.050821689092087
Ni 5.054481210180186 4.792789116547615 11.635899430432591 0.4246590818472622 0.3496330060493592 -1.264892509631699
Ni 5.729419904756761 7.749065724419325 12.44224869889144 -0.3906004496006563 0.90754567987785 -0.5016484520191231
Ni 1.9718893876075838 6.5713142819402375 0.389004822178223 -0.6144586885443353 0.34688886764531873 -0.9125333629004284
Ni 3.159387599980066 1.964618132841753 0.31479874417542403 -0.20576358622549726 -1.0044243327744702 0.15283537076789808
Ni 8.330382446514742 0.08051179052145868 6.335460720004437 0.5090807399274522 0.5582147784499419 1.6525683293863926
Ni 8.910602999549983 2.324106776126316 1.305625957668081 0.6174095436425431 1.4131757422525404 0.15027223802641215
Ni 6.908404537428547 0.8887482967122449 4.736802281799151 -0.040401029524865906 0.4654601750240242 -1.9117329569408497
Ni 1.0148424506526692 7.652575442897375 2.5480751250271627 -0.39381381433163143 0.22117426435361262 -0.28242154119986845
Ni 8.009086160235128 4.210312282196846 3.995269489868479 0.07784734729678205 -0.5457642113914148 -1.0056913724123517
Ni 7.752765294997418 3.980189857497331 12.625893555439514 -0.13474380337350989 0.05445005141876429 -0.6779705930550518
Ni 8.047497751052113 7.348187564370967 8.78988281442707 -0.6312888727277967 0.10388670878333722 -0.3735797466729437
Ni 6.959422072437549 1.2726614136059526 0.4009722478926893 -0.26914590713688485 -0.7987939296927276 -0.47989100573737353
Ni 1.9283623411764474 6.659217905824145 9.091460846262562 0.18666954570852368 -0.7700322841790028 -0.9456003206577263
Ni 0.1457183205402166 4.90185793803508 1.1739943230253367 0.49572694432836556 -0.9031066702698898 0.030973565563378918
Ni 6.639258494186783 1.983344354286418 6.968191424918954 -1.2917967902217107 -0.4568287246012713 -0.02854284463469923
Ni 3.5161906290671996 4.671141755094637 0.3403650605555846 -0.8333012194409778 -0.9253793656251612 0.602605388750175
Ni 6.226221992312646 5.75877896608513 4.466201074130004 -0.40148367217206343 0.3091227046401386 0.8198754329533751
Ni 5.328724439551766 2.90236335959541 9.326659447184905 0.3964749061035624 -0.4969703298171635 0.37553764173026294
P 0.2909698557556418 5.70432676802091 12.513989309983062 -0.6460783723321454 -0.6148093870155347 -0.7677805120303486
P 3.8725643252724304 6.394118553362863 12.63503834582403 0.9766638748317503 1.088223783889629 -0.8578110316568839
P 2.578189629532835 8.446247516175296 1.1768014292936029 -1.4177898439857841 1.4026763853831132 1.393294172837265
P 6.66623338780927 7.986852197797901 5.592270885844467 -0.47837662597537617 -1.0193156480640058 -0.07302498620747423
P 5.0003852670605236 1.2119336476722287 12.823014897108228 0.24491043162828788 0.16808741183096215 -1.8559140501990166
P 4.13704251526628 6.381750112467216 8.207956805029038 -0.2959499147036064 -0.049291390035960274 -1.255459389243257
P 4.859774180866508 1.1918280801601757 3.444989881237715 0.20353546822592686 -0.7341579388798969 0.7050643639480503
P 0.40202274324202425 5.771037790074758 3.618847775026854 0.6139077011368717 -0.260974427069686 -0.15208975085112517
Ni 0.8407899868553489 0.32567913557188294 4.342639070718585 0.7552970348513572 0.07431053778811718 0.9642801564554168
Ni 2.1541823023147737 6.589940021221053 4.907371668407764 0.09212725425456392 0.34275864752702906 -1.3547831612462602
Ni 5.860430376932072 5.600875812966845 9.362811102789495 -0.4885203992775974 1.1153957163187307 -1.8682365763201116
Ni 8.991792587940317 2.402976140005945 10.28830938071834 0.3684933332889718 0.07250690892047512 -0.7209429828515197
Ni 2.615696880875174 5.239541951764319 6.994904151441215 -1.0987339393923337 0.8756647720088533 -0.8177578723897401
Ni 0.6073123713574796 8.876576084973703 8.831315264479054 0.6651320465294868 1.1675497726144666 0.28469156818096775
Ni 1.9032966086671002 1.1195265958994318 11.57993451906533 -1.4187601783188533 0.27342139458378717 -0.8201798515676713
Ni 4.433172586872699 7.245083729519292 1.6201305631456913 -0.550527179997697 -4.6805392960416095 -0.45626873833274323
Ni 6.044413218940367 8.235198433122834 7.672864618727007 -0.42901941569848695 -0.26164445655351715 0.9970375533920959
Ni 5.412627046366034 2.8642714847543105 4.80176491420202 0.2177994343441088 0.3770615345739571 0.8743172568420232
Ni 0.7861815847000546 7.53994407196434 6.659955079517114 0.5643306615396927 -0.6515756480012906 1.1928273162343328
Ni 4.875312377294497 4.842774425691619 6.617199005324967 1.8231923915962795 -0.42667225562254907 0.644928060777786
Ni 0.9679629538458292 7.323405008868833 11.175236209842259 -0.9244547969283626 0.654131324543609 0.7312171110840181
Ni 4.700710915492872 0.4960274614200268 10.573509733320591 0.17276681958450246 -0.5885357980309864 -0.2052074566117111
Ni 8.670085238263137 7.599648746775233 4.5290782448958895 -1.3591360388983176 -0.9813751642644906 0.09111192561617212
Ni 7.427267027320464 6.028226455818442 6.571020143242423 0.05201675938692332 0.9256619298625866 0.9429924507212339
Ni 2.3100027342187244 5.301055305524502 2.372625959152335 -0.09260625077351148 -0.1948975900452708 1.271984897702106
Ni 2.261259750009586 5.246466086327762 11.44011541501729 0.9205377212621436 0.37155654559532786 -0.20296494043443752
Ni 1.3651324085739263 3.2015627045703194 3.7115937257340885 -0.3600770842008186 0.8052180880515164 0.09984004951778935
Ni 1.850187217701596 1.1334022692528203 2.33624684846776 0.045918102688353175 -0.13480962361443877 -0.5761608214054013
Ni 1.0384557591572836 3.6075197812641573 8.108352489901973 0.3783033774008581 -0.3196392879007463 0.2895733217533013
Ni 3.726079599864308 2.5835243189590225 7.175420358796703 0.026989384104650297 0.2948757078028212 -1.4028643330242032
Ni 4.412381913698036 7.113223726322343 5.798631105742027 0.05040673458732609 0.5005996990396346 0.2476113754992187
Ni 0.535097667147333 0.04668218637600836 0.292424106708808 0.8947521276576075 0.19952043352926283 0.10974213912284972
P 0.15047204036451114 5.781889863770496 8.190950655534632 0.2800689818072919 -1.2795979341626735 -1.7248376683747648
P 8.59443130362669 1.8060116045765224 7.967450005432795 2.0390043631967143 -0.2601832986269584 -0.03797236547871525
P 2.1998560131554203 3.378493525624817 10.236555585490587 -2.5303352353399133 -0.04610065101280447 -0.609967228431885
P 3.9970343220553617 6.141871783132139 3.6638902751836833 0.4901337665113043 1.2620848649795746 0.48722044951925125
P 6.818189823776102 4.038999327575748 10.294700046339162 2.159665206114597 -0.613574486167169 1.9023255475840204
P 6.6604419612746755 8.071165868009736 10.241354979025722 -1.5973436045851328 1.3492231506599794 0.3341583074525278
P 2.5206042149049472 8.791001820342666 5.791277638296683 0.3482569516374389 -1.2345180111048997 0.04295490629497118
P 7.118485337811186 4.21635034676998 1.4227013806659112 0.09734839344418718 -0.009895404736841022 0.22911280247439897
Ni 5.279999724826964 3.333102991791382 0.10504314061397012 1.7693576051640107 -1.4203164670623798 0.8712977532894092
Ni 1.4906803049326964 1.2229318772426563 7.031390138609157 -0.1762421797276126 0.46574890990903656 -0.7830873175907481
Ni 7.177970778810045 0.9841405822255863 9.213832592769473 -1.766181007208242 -1.2881257691280266 -0.3455120419024501
Ni 2.714205940416281 1.4922058068747739 9.200811017808805 -0.027576624066687993 0.618703065642986 0.3726366660333841
Ni 6.5141490654520835 2.4541215614053016 2.665634689359903 0.7216724048183765 0.08664000588774756 -0.7609719737489475
Ni 3.9639300164380606 6.869545344245325 10.360210763272121 0.5974467273673711 0.9244781939671304 0.9508777670065817
Ni 8.154438177614402 7.4578410093571925 13.187872028365001 -0.5686262035912529 -0.31245074057210703 0.3219717926886648
Ni 7.62623084648449 3.8983060287022195 8.080343543466055 0.6927454373713811 0.7752783630692907 1.1310650474248714
Ni 3.2816743933848143 8.743263657772022 12.57323085336603 1.0723014562324178 -1.1801728606951158 -0.44908070522473625
Ni 0.06389021367233047 4.838800812848484 10.211273359591853 -0.04029098630956287 0.13776973468402726 0.25160327026743123
Ni 8.72866633978735 2.767516295709484 5.959413529591705 1.439724439275346 -0.9084188265114227 -0.7937368268847944
Ni 3.6469727326883077 2.891721384969539 11.599521233222234 1.1839456974739868 -0.3118223629594888 -0.2304451481325773
Ni 1.0651109368038851 3.390067243951837 12.339502945932757 0.10899883319892195 -0.03553213146833881 0.8301652449151573
Ni 3.238887261069296 8.57983398564202 8.042841772969016 0.8089225334862972 -0.5953605342623037 -0.9265132221192882
Ni 5.7488769055748765 7.999695645286291 3.5502348996536006 0.27370061638710286 0.500126358947642 -0.0753322941844122
Ni 3.259020232807853 8.509679165790786 3.3880484659326804 0.030061852382386935 -0.03881748708782992 1.2532562109443512
Ni 3.5938816112071397 4.194271674949611 8.791901592446226 -0.6409053127716382 1.4570503321483035 1.4448517331995827
Ni 7.408248494126418 6.321899281781633 11.061768096526624 0.7853018087435636 -1.0795933619081408 1.5077689415490938
Ni 8.10220572189704 0.34450675265461445 2.33445552552859 0.013522459966467035 -1.496930456172693 0.7090958537049465
Ni 4.575007728517243 0.22765330389146984 1.41467925009386 0.6774669139457559 3.5933210705983596 -0.07466920667911657
Ni 6.060115840727381 5.74354221614869 0.24897196516345016 0.4846478036960686 0.3787990860903541 0.7690184982025078
Ni 8.461146280651514 0.018106885925666047 10.990227536288486 0.35236634582012216 -0.5372826562829651 0.9008559265625001
Ni 0.4417771411577232 5.058966368584738 5.8597836371865695 -0.060375672874579886 0.09241984579431825 -0.02661811680816061
Ni 7.900072147200672 6.461450737884145 2.226241715908062 -1.544345969342179 0.43967895229486215 0.5262469672940937
P 8.779619931601177 1.964983522528478 3.6802012707990954 -1.8616617513160714 -0.2698809855306965 -0.21664526613500754
P 1.9510347712377443 3.1704315032613346 1.4495876672893664 -1.0286063293373124 2.0048727116203278 0.308899532885739
P 4.859929471483367 1.1478260271362966 8.252637569396011 0.5641578834072543 -1.8229265395294023 -0.22022655572836267
P 8.825247968730983 1.6753573873457681 12.41653896705924 -0.6524945602711344 -0.18020990612610902 0.05960819858093605
P 6.444268287865894 8.154958857917986 1.3323505593551603 1.8264124411954739 -0.7071916947036981 -0.48676716403191655
P 2.00989904976917 3.296911143321254 5.864021244078365 -0.8546326339289023 -0.1590227305255326 1.325952867278129
P 6.954397964245079 3.9692647058642487 5.97936106606425 -1.20926129342064 0.9999765814157617 -0.6740452898587165
P 2.4570720831256074 8.581834494176839 10.12630929573765 -0.002269512760467059 0.8087906358941231 1.0100738177507635
