# total energy = -340894.62455973466 ev
CRYSTAL
PRIMVEC
9.04695045177356 0.00000000000000 0.00000000000000

0.00000000000000 9.04695045177356 0.00000000000000

0.00000000000000 0.00000000000000 13.24112646593987

PRIMCOORD
 96 1
Ni 6.380732843318694 2.1695673199033343 11.387037570012039 -0.08955049466632319 0.11065565207605459 1.0093320544887328
Ni 4.124613346920792 0.4849844048743099 6.232532031276208 1.6235297760621972 -0.24741005812169 -0.568602292331853
Ni 2.684040260293903 1.4208054995420532 4.653143439170591 -0.25852339442603217 0.25225813024261073 -0.4095841897920107
Ni 3.4079320134257944 4.476078331204 5.008998908585273 0.8052720812179034 0.02416117062723581 -1.3824585156743414
Ni 5.238573422592641 4.546716921573979 2.6187104205424054 -0.04652642569631342 0.0741704126658271 0.06668644558395612
Ni 7.360517594480149 6.088308258722279 2.390963390558441 0.12605604579152485 -0.8936946329273706 0.42448116150850124
Ni 4.929212946452604 4.710729089199149 11.159647894577205 0.7439530705934477 1.0556414790782334 1.221621871868522
Ni 5.8513595752719585 7.96855409808874 12.244692106706466 -0.754760702731913 -0.19804204921152346 -0.2765406569390592
Ni 1.9431130991616685 6.5574921643546356 0.5434684170985318 0.5086611358915304 0.19424607250420095 -0.2925162064317091
Ni 2.8472924840677574 1.5649957983787226 0.4422945590266131 -0.4806304550065593 0.033690964494541974 0.14453225021884142
Ni 0.24148844326687455 -0.24226648101941273 4.648827139034126 1.7087991268546634 1.2512080701660708 1.0806511137486938
Ni 8.684620238942195 2.4287262671034364 1.4652893556958932 -0.6403887781465358 -1.0430842112385132 0.11325195204832109
Ni 6.793653763101807 0.7977438203588653 4.653408514823491 -0.3461260213373652 -0.5823522949280939 0.8807660977911606
Ni 0.7166080531950492 7.310098938725553 2.6044632827203458 0.43202889194877203 -0.0660747801418862 -0.34124118244123813
Ni 7.598741897966608 3.759433185511446 3.9719940041999386 -0.3626983238737495 -0.1342835759076397 -0.5646870164378468
Ni 7.788944987610361 3.8498845977193152 12.57463439548632 -0.03009424828221914 0.42749629418574114 -0.023293423310301816
Ni 7.675052926369626 8.62794109336485 7.313232802417172 0.9148051896537407 0.6064980389363619 -0.2467891367082395
Ni 6.661305922614818 0.8318625851977868 0.36475043125532786 1.2818761886738892 -0.1476941928865908 -0.45735168698427686
Ni 1.5778696090980462 6.540673883168956 9.258262045718231 1.7559307902351435 0.3076607753826314 -0.24170323754489983
Ni 0.41213835855526976 4.8221784737749385 1.6719434203305235 -1.029109494225976 -0.31245639699906186 -2.02887807339599
Ni 6.3726267755713195 1.818554683150672 6.963548258014191 0.11183167466202676 0.4343436561248778 0.41017220108499686
Ni 3.4339329494815476 4.501201713050494 0.7738363486744769 -0.10522856752321232 -0.1280782184278762 -0.45438463393615297
Ni 5.946931561525602 5.610321670145507 4.799034564722111 0.9076621508510562 -0.24404679807641197 0.2807546950204068
Ni 5.171779786232299 3.152482315976165 9.312206298125899 0.4976002500916785 -0.46440602272789694 -0.5245338412577288
P 0.31422683087364484 5.584537860904416 12.751827065456524 -0.45398637005646975 -1.9371817360312575 -0.23730922224226222
P 4.037753574105454 6.232353806349174 12.587717190764756 0.5210512820257671 -0.19030688535079485 0.04914123761134117
P 2.4917925598120836 8.512872928544697 1.5486162942976716 -0.5867733068139249 0.07052895925849788 -1.9727205523678155
P 6.378842030641014 7.721237609238318 5.745218941314651 -0.5943367209834797 0.13992483335381709 0.7991873084764042
P 4.720418373303433 1.15606458381502 12.572608783244537 0.5093584190688711 -0.5965393850617533 0.9089803554418475
P 3.7365082126634026 6.343884613480461 8.200242884453878 0.7530920567802385 -0.35195959730000675 -0.7414696420499617
P 4.705409482239935 0.8615999118558451 3.8583190697738656 0.05505837442672454 1.172961173438025 -0.3707713306898711
P 0.18353005887314647 5.408855126991172 3.650075455916899 -0.33480828233170085 0.7595277851032531 1.153471954365162
Ni 1.3330048438631803 0.9604423707553325 2.6777399638884654 0.20767185899180363 0.32365766503152 -0.7897657580521883
Ni 1.6584327042881917 6.460572182459966 4.903970144858046 0.7561853509935815 0.9036368317417469 -0.6827243056899532
Ni 6.099028895196206 5.579417286858641 9.146016529488682 -0.5839090978922525 0.4175322409944938 -0.44073181903940867
Ni 8.658067438899177 2.3918056616603165 10.208140292245204 0.18129285477764262 -0.45893728630384184 -0.010172055436995385
Ni 2.279840600899705 5.19885730941075 6.865497407293159 -0.08947567556432978 -0.07349215565187989 1.9868968438681978
Ni 0.6956227465579843 9.08132902323056 9.183568612084445 -1.935181931992409 -0.013556912748828266 -0.993417183030689
Ni 1.5722333588674497 1.2421101310753766 11.481857754669916 0.6189275229489662 -0.46480222972505114 -1.4861079116358924
Ni 4.159163651303854 6.912521647178542 1.635637102833884 0.45061205426759815 -0.45596946192476956 -0.36899778372921616
Ni 5.512876965115405 7.870801796737867 7.8719950895234465 -0.09076945467508885 -0.11169514908416248 0.47535866508465874
Ni 5.109753892843906 2.79258557372359 4.951082140164354 0.37928271059499197 -0.13737584167971825 -0.54056775479214
Ni 0.6347412924218715 7.2046295885035745 6.988719588698924 0.0019383546732934357 0.8805778930397544 -0.2155972844864674
Ni 4.947171143415259 4.6457538899115995 6.91660815476949 0.7830724051924127 0.7877600404760692 1.0955190319994617
Ni 8.229911454287294 6.938875414308121 9.115495736907718 -0.0014670714638297315 0.7275728294632114 -0.11202296473722642
Ni 4.39556951771752 0.5959579198479653 10.568179976317433 0.20698717421995322 -1.1749980013623957 -0.8026708961496305
Ni 8.008487338085292 7.068129197686178 4.51195401385156 -0.5971644202402618 -1.2563962992352298 0.17289383208066997
Ni 7.323931726209634 5.98940699464382 6.934404411316209 -0.3403235557229752 0.15740447819581924 0.026790123609650635
Ni 2.4151106064340184 5.257327751209055 2.875111857196303 0.7105773233464795 0.12882615233749425 -0.049584238686030735
Ni 2.438325081701611 4.980156325342634 11.693980700948838 -0.7458333183352962 0.8131620254889413 -0.011022576362748759
Ni 0.9736871064497034 3.2803066811576995 3.7616053583531253 0.323871580814539 -0.028418660352009118 0.15807219368680517
Ni 3.7073317969432202 2.692915318843204 2.5646738892385064 -0.20990640474927721 -0.36905897598445475 0.6202200165081447
Ni 1.2091339960986127 3.228114823083365 8.117220828087687 -0.38644657533328286 0.35848351446145355 0.21603411491356986
Ni 3.6877270549693804 2.7948654052775392 7.064233580753121 -0.8069965201081779 -0.2587961884714446 0.08729178053913353
Ni 4.093338038658879 6.839485614896673 6.035954460232008 -0.1624482112673138 0.9418022870678748 -0.38831730999343445
Ni 0.6764359737023684 7.120710074636782 11.450780574626382 1.7338951505913427 0.9485969413922051 -1.1517770831612422
P 0.2547919841402164 5.317634723981376 8.050459760749545 0.08187678017114931 0.1909954267773872 -0.3896216306271548
P 8.63082707060973 1.4709617937289332 8.027247999567136 -0.8733880601595345 0.7758563470599477 -0.11769790363481666
P 1.8535030533606138 3.290520688397416 10.414490379339307 -0.2616873939763106 -0.8799603140604135 -0.14771836125630688
P 4.196057115895141 6.295374864304767 3.863006294885378 -1.4503022147911926 -1.3818157398840203 -1.2025100907397352
P 6.974285178999218 4.091682446697083 10.463442524399877 0.2458807659613572 -0.1529767814417688 -0.4658185868047074
P 6.364086454194622 7.702971815954892 9.950905631440044 0.11589967408381331 0.768652630222657 0.7015501801472047
P 2.22943099209572 8.418639890981467 5.732613825028471 -0.06509698960964917 -0.11283131957113472 0.29380278645361657
P 7.031832831835211 3.8548604205553154 1.4161381777218853 -0.588804992531973 1.6145939070251485 0.5098469286695154
Ni 5.282876339734263 3.0334606337390446 0.3678680104358471 -0.28868269161823185 0.2738895924694573 -0.29412880233446764
Ni 1.682886611789479 1.0879048579124309 6.950439226578984 -0.6406942252020965 0.021844863789233344 -0.06278171121291123
Ni 6.709281901704469 1.0282130777816525 9.459129680742125 -0.13681456985960955 -1.3359143493662156 -1.8407933925074942
Ni 2.762477322090484 1.6315994487762353 9.172631753490917 -0.7820246806541886 0.2852723803851023 0.4969777860163312
Ni 6.2721603890371735 2.0878552619856032 2.4348573855324496 0.3845449874351958 -0.41578646194798075 1.2122000643339899
Ni 4.205655930493315 7.161557056645037 10.265541384481303 -0.26959199353536795 -0.4895089884431118 0.02532356636645316
Ni 8.272694483726282 7.383243534414754 0.12102829588261983 -1.1471143875782501 -0.07946251430270186 1.1994764461197343
Ni 7.754249932017525 3.7858231404434677 8.173880070373688 -0.625107169397117 -0.7497187694326314 -0.028724107407569883
Ni 3.2350719281031544 8.32689476483624 12.399388629287584 -0.0003141888063091363 0.07465403717046497 0.14194906287269746
Ni 0.1752964291221581 4.730903789061476 10.252101234653734 -0.01630156537350096 0.32787453132634503 0.4124597115675929
Ni 8.763554883022378 2.2693009034379963 5.937917179936892 -0.5084919573035178 0.15480097913470114 -0.26829230088733796
Ni 3.7116200515327917 2.770456732529306 11.517873665051944 -0.5244469379708775 0.14255250078465126 -0.022493038896193522
Ni 1.0261232321905325 3.169617240433227 12.764327237115618 0.6223481185947412 0.8140184599519659 0.11907781470147878
Ni 3.165410408399154 8.393959809714909 8.045242384332234 -1.1102182858828493 0.17923031582165908 0.9914839705637183
Ni 5.7274073049518925 7.867526800616718 3.51550568435987 -0.07702073763042865 0.2603419356920097 0.03198298066449976
Ni 3.0702274410217796 8.188340716230165 3.5047280520970943 0.4363848549246226 0.07160085216643797 1.952152755518793
Ni 3.32339730691746 4.669854966339062 9.327883758839544 -0.27735209709676106 -1.04541285937169 -0.12093106586013366
Ni 7.5079376546849135 6.169703673368629 11.306584847619344 -1.2241549227030208 -0.781323540822106 0.6627928568733488
Ni 0.9435879017672089 8.928200337190313 0.04990117017965245 -0.46663774027189314 0.16094308747669703 0.7580406590347655
Ni 4.615464699266276 0.3536733449273307 1.591013923640636 -0.038107605504998886 -0.3962329652960853 0.3920960603095764
Ni 6.110590898076948 5.75315492639054 0.33540574225378306 -0.7022155816453455 -0.6293983405733031 -0.7565406774504713
Ni 8.035981020991844 8.700560965918617 11.184952215435917 -0.31306754822049954 0.9139729235604324 -0.23008905034473923
Ni 0.1480940580252766 4.813466260336633 5.830796761228424 -0.8172449373090634 -1.0683234454212762 -0.34062257502063276
Ni 7.895038577424492 8.733374255784385 2.3893087032917055 0.34176954414088234 1.053869217669159 0.2683581211282669
P 8.55300520145469 1.5592690786420171 3.7240804166091963 -0.7240303635275918 0.4724353207902766 -0.832241667828212
P 1.7275152191530938 3.1050129661207246 1.6928518278873954 1.8593554717803975 -0.3327783963858656 -0.693745082280489
P 4.672279549102786 1.2344021291548821 8.334640763949299 1.0342691840500444 -0.8129398821758064 -0.5521778282272426
P 8.577015808376043 1.476371870194257 12.310885025546243 -0.8531992439164855 0.233993527605468 0.951801821482748
P 6.341604781926511 7.742868868149001 1.2822161678285977 -0.28665229145176435 0.43329875980013116 -0.4216884292547125
P 1.8713707808171594 3.154707865826449 5.788755581739528 -0.2632526815809014 -0.3181719593266004 1.122418427493467
P 6.826349442609632 3.9071427481357586 6.026314934356085 0.21938734765651893 -0.26452692030763475 0.4182135833322346
P 2.243634704554847 8.427741123296043 10.243030761971237 2.442884560625412 0.05951383909491686 1.9228164684485207
