# total energy = -340871.25417195546 ev
CRYSTAL
PRIMVEC
9.21324386068249 0.00000000000000 0.00000000000000

0.00000000000000 9.21324386068249 0.00000000000000

0.00000000000000 0.00000000000000 13.48451367906739

PRIMCOORD
 96 1
Ni 9.000279883947249 1.2141857895921793 13.464031197341626 -0.5217128268691661 0.5545612408577546 1.845545562480499
Ni 1.3246433721414492 7.694081426332753 7.516456530908435 0.010759038288716955 -0.2055026192546267 -1.7719317936490901
Ni 9.288239825775378 7.140964321624652 5.517741822598248 -1.5847845369731999 2.2425226050314606 -0.9653047410651892
Ni 3.514824953690786 0.7141858006294539 11.233112336035859 1.393618131835587 -0.20072525247064138 0.45957491988784077
Ni 0.6074162796611726 5.391710172358487 9.078354756416932 -0.6620068706369436 -0.36304696546241993 0.6805548088424602
Ni 5.501117445089539 8.730958334770481 12.10093542996057 0.804327200806131 1.2291096956051348 -1.4601837355709626
Ni 2.617639251076064 6.140866683312594 8.354681157096241 2.9967089233171422 -1.4084546826277873 -0.3926100238315174
Ni 5.557419579292442 3.2782288472711305 1.1823558741537594 1.705059200196257 -0.406345628250055 -0.1809526978294045
Ni -0.1929188804966159 5.494907718620426 11.713268840029476 0.02109847254151205 0.5444940864297397 -1.3407449379856393
Ni 6.855399823241582 4.463042814929281 7.643413190847748 -0.3654506898079061 -1.3454482569985795 0.3016284531456225
Ni 0.016298228670419426 2.0865233730864263 2.884890584321659 -0.12905909428390677 -0.37528541651014075 0.758217550932262
Ni 7.645509203862175 6.053119747271286 4.18849182844707 -0.22822371500122632 0.9654986022435502 -1.671057646439832
Ni 3.530920490992777 2.020270935342511 1.8905825485514283 1.4652755482715734 -0.9983729843740676 -0.3210739634647438
Ni 1.9565982059240437 8.195079209622785 9.54397460399665 0.6166695801527251 0.14325621171989522 1.2314684256452986
Ni 4.8128789035920825 2.2374270968811123 8.428441467391611 0.5807520403205095 -0.1692251249798311 1.4036310359868986
Ni 8.117641893639249 0.049456693896445164 11.68375144883994 -1.081161734836525 0.18886886735268765 -1.1892701950106936
Ni 1.9544975862876073 7.390449756427527 4.15430885048608 1.3700426585084922 0.8289426853619659 1.6242921081495187
Ni 8.283093329740657 1.6418553637313538 7.130947682726698 -0.7694818109921715 -0.04420163421787871 0.26603847185615476
Ni 1.4512978376769246 2.456803650228403 1.183836442467686 -0.05570912063684599 -0.15309685195940084 -1.517890860474444
Ni 1.7169248760018891 3.75400076843589 6.6449260275902935 -0.10178920282436019 0.9122837087834674 0.8114450427978348
Ni 8.556044897061092 6.178318520251688 0.6180640257744591 1.0622697830280285 1.4791044837348655 0.5251323940736763
Ni 6.627676070812663 8.53959925648636 3.1859591297406706 -0.48065565181753994 -1.1708402704402803 0.4937973314058205
Ni 1.3098929684662985 0.9634934198227545 11.782202331783054 -0.6357492224919954 0.5020690844963095 -0.9997238419750072
Ni 2.2518089707954845 7.376629890398342 1.65182593640921 -1.3153375536561283 0.6125324180559 -1.1146840349636868
P 2.7970856048430273 -0.2136919817872856 5.826011439542867 -0.1012821812809546 0.013095913952009704 -0.6928734783088131
P 5.487444990964666 2.376851118627555 6.5055637345787805 0.0036872190436001017 0.5379028063654671 -2.316642109854694
P 0.45902869280820013 8.603612875933546 1.1846683984026432 -0.026739472877373303 1.06832318831096 -0.14837193567990575
P 4.947613384132621 0.5993528484953438 2.506191244794702 0.4152496156079042 0.21143364002708104 1.3034896531786067
P 2.8102881835229097 3.402552362069683 3.2793528630415043 -1.152566411831757 0.2942329320124997 -0.9589299478870968
P 2.054525776606852 6.337154847147126 11.055925991026868 -1.8642539375232798 0.6141972073528326 -0.750125517952747
P 0.5477273569567185 0.4375544636476497 9.843075200493107 -1.062330461062635 1.9749311868658892 -0.4898823126221305
P 6.726193289112716 1.157386140212227 13.037138299673291 0.17394849859742945 0.4445457934688602 0.9058351249446464
Ni 3.606588864124578 3.1280253300219227 10.895851404135213 0.23903211847063996 -0.9152150234976496 -0.8574148246597296
Ni 5.4247672919003 6.621171520534927 12.767178272685976 0.8841923498638902 -1.7111205758989887 -1.1828496361963308
Ni 9.231762639936106 4.256343685352763 4.030184341758348 -0.4641789943187554 0.3514029534655883 0.4888762399551194
Ni 8.872593535081595 5.1632954266281095 6.49431712760423 -0.7332562530012339 -0.10523293839858651 0.7394322999049588
Ni 3.7223717017170936 8.946861495122437 8.030702037774045 -0.8525572394571123 -0.5397262327274511 -0.9639651963181591
Ni 7.367656190723391 8.51633581533723 0.917552499844134 1.1165578549476318 -0.3892943291947231 -2.0255441239267507
Ni 7.089535993508043 4.786529025696435 12.960208633435228 -1.5741070026546955 -1.025576027151421 -0.43085904001038694
Ni 1.5044214026931135 2.450593923759289 4.674717096276305 0.4715783721066201 -0.8041981314274343 0.3812670880148724
Ni 6.769145432731426 4.042393732732933 5.1534169863904475 -0.12633063960915017 -0.7448542422514786 0.872225150199685
Ni 4.723141906842571 5.050341054949567 9.373112229682615 -0.36196761635531205 -0.5356685177183097 0.9394013909358659
Ni 3.0576361457132717 1.7990425199473095 6.655456765504532 2.0819914082812017 1.0751610371684 -0.054316354054377416
Ni 1.2760987894029303 0.7202370593014332 7.375287520744707 -0.8469902868922962 0.35117926749055645 2.2919142680907107
Ni 7.4933616921248625 0.7303006857438862 9.26646340221099 0.7668055497115891 -0.01785785411702731 0.45808059473050133
Ni 8.368850205073764 8.261718603615519 7.512668044967635 -0.9259167261858698 1.195029466091974 -0.803383605945939
Ni 0.6089631833320395 7.926374947795321 12.583707573931315 0.6266786276492948 -0.7039297361229748 0.044953167671922575
Ni 2.0531437900039333 0.30928307378675973 2.872700541159515 -0.2424845957956146 0.4597623533082985 -0.001193506087468912
Ni 4.179099847493635 6.642601526124183 5.979329954595053 -2.575180673789378 0.5778148120690565 0.15323286331663288
Ni 6.24682820278037 6.993635336509515 10.061537800033667 0.4065366612149386 0.8179807870338235 0.09311327231691706
Ni 0.7656030728532395 4.5331095356972515 1.877354172788292 0.7568378969759159 -0.6338147244734439 -1.2722332662674865
Ni 9.093223089615531 8.405187239486503 3.3013457978403498 -0.973937991260155 -0.1633792077220154 -0.6507737209252857
Ni 4.52701958140039 4.432998426181832 7.0377971790679785 -0.41095098823255033 -0.8865603358754345 0.42047692544511456
Ni 2.5953800535250555 0.2519932798249722 0.245532953118529 -1.5139804696764443 1.0442260381524404 0.39922470093455764
Ni 8.233553716648037 3.0138640233768315 11.494037855937695 -0.8065496623787465 -0.6199688197292871 -0.24616050198530512
Ni 6.071159279061383 8.591552739512078 7.926804284966629 0.032475346919886 -0.7385812647585731 -1.2616148673216918
P 7.923546481881349 6.319732602706333 8.220240579039922 0.036304490857989084 -0.2400284209456382 1.2392989774333107
P -0.3804655184054864 3.1904450582537445 5.839077662211261 0.5177666977372244 -1.3309418358522886 -0.09104636248555932
P 5.109619066970753 0.007482075468201027 9.674775029340882 0.844828503354287 2.002032413958055 1.7435519569548168
P 8.982378550817444 3.7513934203783834 0.06554301795441708 0.42270504344468496 0.1953151371986636 -0.7687259066627535
P 4.814058198826572 6.722203954452293 8.008924692885255 0.5907402618814729 0.12502426209290082 0.4799861365543411
P 4.084894427394688 6.32621872649603 1.0495497255864925 -0.04451608013450398 -0.7786511361962654 -0.09600987713842174
P 2.762397741109772 3.815876915270563 8.570541015201304 0.5074349767939131 -0.2947363540114795 0.9153854876372429
P 1.6259717310418098 5.956693935363649 6.16772236830491 2.6588834514256727 -0.6210196295913046 0.20524473760754977
Ni 5.178294587891786 8.872860719158158 5.3119004460399415 -1.4341142921774204 -1.209161534617982 0.8633296474822679
Ni 7.511465716623095 4.619225727547116 2.1208574482493345 0.36057202155936613 0.8632489148430036 -1.3301705049039028
Ni 4.9685919407649255 3.8963453885365 3.4832253693528523 1.7810406979288942 -0.02156718464781447 -1.7145604548184727
Ni 7.4722357235882475 4.9526253888792064 9.945584517426791 -0.28621597524529413 -0.5267177362829252 0.5244932178277806
Ni 3.8743533750620567 7.664543766006373 10.447760674626913 1.3523763515769807 -1.96995481669722 0.5809605567868897
Ni 3.4578041864543665 4.080748467585932 0.8022211112085713 -0.8984038654775817 1.2047076126116867 -0.7665926623698346
Ni 3.268794485395207 7.457641945061427 12.76386058351457 -1.3153264979125348 -0.10381806032893087 -0.8262947062161576
Ni 6.305525780428329 1.4575167773900581 4.530000987165087 0.9297160453273021 1.1898450936775573 0.2582040634134005
Ni 1.614482815749547 5.591001853743363 -0.36635543518968805 0.41448496952773783 -0.3484860369291095 1.3023637671042798
Ni 0.7482923086650818 2.710960199749144 9.472290958903267 -2.6812978145651307 0.8388131503981425 -0.5164376945131557
Ni 2.9086119236985546 5.575818427599296 2.866659417055957 0.4824682795462465 -1.1979345555539112 -0.12249995300915031
Ni 7.321221440865328 1.2817004417667601 1.9610122711337656 -1.437494264393247 0.7829176247821032 -0.5644669300072408
Ni 4.642866911701042 8.628184597733439 0.7493610449713387 1.1732085135621408 -0.19398690530554333 1.0661698894133833
Ni 3.595818581865833 5.163553397460655 11.878535089926094 0.49084956163140625 0.798520878536999 0.7139621806583123
Ni 8.967314896845632 7.693722109815994 9.964476274288689 -2.070211642037454 -1.8398315428148573 0.12597377049036368
Ni 3.527981466150571 4.479387109819798 4.949679914766185 -1.8481701445875394 1.005615524869094 2.1523344767811383
Ni 6.239780071105486 6.577279626026234 1.396335309154452 -0.37811722953198107 -0.7826546009287036 1.729582382148602
Ni 6.618674731405654 6.504338373124193 6.344126508896649 -0.08260954457211579 0.5841091297182005 0.698219830222391
Ni 0.33717156343365606 0.42846467709805347 5.407236331180077 -0.8034651099161518 -0.4012113923472832 -1.5734089481464064
Ni 4.173102025636969 7.782123186182683 2.996393870067137 0.9749065258210112 -0.5521901695224167 0.8829006276356601
Ni 3.944558294490319 1.726534289514183 4.420803776397679 -0.5696574730692447 -0.3457285287886304 -0.46462533782755466
Ni 2.6337532148660943 1.6856182728237745 9.22056209918165 0.9836945564262866 -1.3141286209496916 -0.3405166455703878
Ni 1.2532867972107549 3.5086428669537306 11.599243889395872 1.5004371837743709 0.3904672664569017 1.2777752791316381
Ni 6.148320197724336 1.6954672306805738 10.993802929252473 -1.138264136276472 0.5469314922266387 -0.2596659926709077
P 5.424960770024708 4.232702501198837 11.307156414247027 2.3482363397212076 -0.09062470156710845 0.5067865445766369
P 7.539520044662342 7.103715176053987 12.12830889926678 0.12035873829643143 -0.06987332795236997 -0.08606999231689048
P 5.546999400306436 6.588436864533796 4.441987788371616 0.21118115769664272 -0.10096722114369708 -2.3365779295466726
P 7.016880351170604 3.027702315894056 3.209543191781677 -0.11754209478324273 -0.8678717583269957 0.13557684079776652
P 7.34155507041627 8.765074977374532 5.269666935454751 2.140154903995811 -0.20882551298027263 0.9685173344652158
P 2.916747218167735 2.2710370110640916 12.864765874664467 -0.19942196027818557 0.44295762304613395 0.1475134443343524
P 7.687392611174627 2.912555192138882 9.028407917938651 0.23941752683451673 -0.33818491211341756 0.7681008714842449
P 0.6214388370587861 6.241447668273007 2.96590540295795 -1.2324071354094839 0.9196501764508678 0.7111519649030268
