# total energy = -340868.6323424667 ev
CRYSTAL
PRIMVEC
9.33972359598550 0.00000000000000 0.00000000000000

0.00000000000000 9.33972359598550 0.00000000000000

0.00000000000000 0.00000000000000 13.66962955645306

PRIMCOORD
 96 1
Ni 4.740236679438129 1.016283357403334 9.119597641911964 1.4247989283137656 0.4467222322948887 1.140953767293493
Ni 2.9426200545916523 1.9962632086977776 5.042767142308718 1.6664653990834588 0.6030897845857612 0.9747620298233471
Ni 1.7861100852205052 4.587055870667376 10.557615290026995 0.020347967528732698 -0.8553692549846106 1.2149200343683142
Ni 0.1526633880765344 7.926343331472229 12.684719622323966 3.5464436893205304 -1.4567559408363364 0.3460751134947717
Ni 8.25711898682404 9.152163390587157 6.34549702436033 -0.09561187036905469 -0.23614065585545782 0.06295937444135609
Ni 8.117667571925184 6.420677130463628 1.0807321209496172 -0.6240342480479124 0.02613860606858079 0.35651893453591504
Ni 3.8348532015143357 5.613304713282489 10.59043601315981 0.7565028822340004 -0.4210567092079845 0.021170720540344183
Ni 5.474890007716818 3.8079828163650484 9.61275746979056 -0.07207624914095975 0.7901411391137361 -0.1847900692976237
Ni 3.0690051960028986 3.8524212218361322 8.602516913635606 -0.6955515393616086 -0.36075148456002387 0.7577727500853595
Ni 8.26728994595771 3.153921964086778 2.837910543995306 0.4393601355028626 -1.0665779234850792 -0.06291103770192391
Ni 6.267272168323537 2.0544216683170378 3.149468783815947 -0.6080165324634174 -0.45347600607895444 -0.6086845050647195
Ni 0.894139384534421 2.531943062794882 9.495198367296965 -0.299376166776336 -0.6310284199775584 -0.6625334325643751
Ni 3.550598710023701 4.480340187415462 6.3388125840922225 -0.43852375564449636 -0.3874619039716746 -0.8469668898535284
Ni 9.035136652345738 8.619107998856043 1.568398323334711 0.7456960214264835 -1.102680068524275 -0.8390921150911421
Ni 7.469397348354788 1.815866445000008 5.2842961336589545 0.3396090461544538 0.8510464592395408 -0.9009885954856224
Ni 1.0786446926976654 7.744069283306261 6.689820882943824 -0.09998171730197619 0.7968182940235954 0.24647160546782065
Ni 7.652119703259429 1.5197878632768398 9.930042828197767 0.9718700529875327 -0.7976284486297167 -0.41866558326798864
Ni 1.3976989947778884 4.835361765550569 4.3910132017898755 0.8858869639574938 -0.42110838838152637 0.8579655549568772
Ni 0.3796093348066459 2.7221652158485954 12.005242579879981 1.615362923980689 0.8390165246582002 -0.4701192710625903
Ni 9.192809868226956 8.932362332504667 8.746840862400427 -0.22183066699068893 -0.21050032957953424 -0.0908761554562822
Ni 0.6462005407935159 1.6008193062922085 4.301025897697116 -0.08995775740707088 0.6791057351007594 0.9823665816434823
Ni 7.685443837500881 5.1019828586533515 4.051473149696984 0.35290447771177935 0.829700903684229 1.024344468737165
Ni 5.965505694853438 9.040833883816388 2.0228048355720367 1.5163733953886531 -1.3338189002897676 -1.3111152880446646
Ni 2.241328219449306 7.137799797315408 11.440810386303529 0.3008992882890818 -2.098647014560011 1.7354578670927723
P 3.855475311493351 7.824493644279675 3.067833994648112 -0.43210139705792033 -0.5298596243460164 0.2883934425125872
P 8.660819205000191 3.9551114841637007 13.339535124279005 0.04266617140995878 0.5768812445111936 0.3147881304560321
P 8.877463436464518 1.549936491452682 7.639382188046849 -0.07425243085667213 -0.33624964276391767 -0.07655562506855201
P 2.889719859428092 6.422834606643498 6.78524857610487 -0.5437232697019861 0.9505460946987759 -0.9820685907870892
P 7.220932678168313 7.34622507190404 3.0849350287837902 -0.26024834753693893 0.034730718612966 -0.8267081396044924
P 3.1380537734824543 5.48855402352266 12.721736683325247 0.8813106574407209 -0.2416739269688612 0.12133241506361038
P 8.932026102450662 3.553783555813032 5.015879011684358 0.47697846007626893 0.24496596745657168 0.20795442322922897
P 4.291631069604774 7.781708369907452 9.563669749850476 -0.5119714312116861 -0.35721313238946223 0.9841267588676986
Ni 7.802573312703249 6.351992802209245 12.173543467384897 -0.5845999533116899 -0.33476894445333316 0.15793078301293448
Ni 3.4761984708512217 8.926982651640577 7.828350950177018 0.12279871519649173 -1.606749471280065 -0.10168635869790875
Ni 4.7650896842633825 2.5468492618558 12.801949966542534 0.11692323025232121 -2.431983340331876 -1.4986466675328511
Ni 1.3657011013050144 2.882565631056749 6.725321172812591 -1.5570780721968667 4.479061224565344 0.021148866163473255
Ni 2.3969466961116015 9.186141305489176 1.9889446011889202 -0.6914876537048801 1.4855186147913255 -0.47953156551542575
Ni 4.392425368016699 4.24440942646442 0.6426243605802167 -0.5530507177504992 0.7727548253164885 0.23704388439601753
Ni 5.393064688185047 6.890642688450067 12.792955812597883 -0.7295201829975695 0.10107880702089689 0.7440343174533445
Ni 4.258353633981934 0.5523503269691806 3.1709987149407772 0.17788948552304848 -0.02032045672490694 3.1550559679318892
Ni 3.1481219956551794 8.336814849347109 5.630042432165367 0.43957405128588173 0.9637301974892176 -1.6474212379678144
Ni 0.4119752133941815 0.6670524079761015 11.040809632693813 -0.8033638084515972 -1.0039674477427096 0.24681407640890396
Ni 3.1012085633976647 2.0619588253609984 10.894189045865657 -0.1546330860982692 -0.4127193929868828 -0.3844724823260475
Ni 6.005666506859673 6.402287214454262 10.491194910802916 0.6676293590300437 0.4575568610165475 -0.4118274773002327
Ni 7.812081151452632 9.139778916931283 12.760148165078277 -1.9827226578858497 1.960946699661339 -0.1829920968569365
Ni 2.5124790785574422 3.365905673413636 12.815797040933335 0.040777439027678164 0.7534820931298056 0.36904534913769993
Ni 6.591164447291953 1.5016594595317 7.398577959257469 0.42117060907802945 -1.2416885607114097 0.5636932850660099
Ni 1.2820078370287673 3.4276412472185678 1.2661947507944058 -0.6335951522634701 -0.31103791938498043 -1.2145312835703277
Ni 6.284924246158834 8.27882450475485 8.845070472678188 1.038536958187463 0.4768797297148755 -0.3141422693419171
Ni 0.24688812482213723 5.009753086894849 2.540172293366671 -0.23165459505964617 1.8486537690921776 -1.0271929939295534
Ni 5.730294092629021 4.434865072611194 12.033293506107778 0.7137685765902675 0.842687031531252 -0.30175752252431903
Ni 0.7275243171613952 5.476851349698518 6.620994590888862 -0.3574944110753069 -1.442415098733632 0.6539652312793899
Ni 6.27968466115058 5.823541894273263 5.853923081569793 -0.21282023596196253 0.8436699642698116 0.7063028643408416
Ni 2.789579341676734 7.752643149683406 0.054331974810201134 -0.0038021473549095805 -0.67559977883003 0.0793018203551215
Ni 0.6575062763594569 0.8656709726562345 0.053491399675186936 0.437271371294634 0.4777909286752352 -0.4571454845107418
Ni 6.040914624187935 8.436338945332789 4.800063213714207 -0.04478861706960029 0.49526620264186316 -1.1795205718230977
P 8.333788778861056 7.020679661836763 6.891119948332281 0.14050076046194512 -0.2815661351781086 0.12709502857900046
P 0.2968491089302645 4.62957029305165 9.123849084150391 0.054954501859008575 1.4498479008625933 -1.1700368007023785
P 0.9365781551565433 6.79776847575472 0.9887405121460356 -0.0426528016735201 -0.38900148054465267 -1.0630871367230013
P 6.375379470410085 5.326098869095582 0.4060136677421864 -0.7040197247336197 -0.3103925724914977 -0.7313389813738631
P 4.725283781758599 1.763321159337898 1.493748713538844 0.4046451006191805 0.9691092024129438 -1.1440678874424426
P 3.4439110459429543 4.022609667505341 3.7213381993925294 -1.0388164371010948 0.8403591547290237 -0.17810854351239003
P 5.181193055542857 1.501678138979145 5.086387387981722 0.3758626291698494 0.024961812151660236 0.5499844201203495
P 5.832956335785422 2.048360187621213 10.758900345829867 -1.2203990552050146 0.46779062292941376 1.750904797775462
Ni 7.778672959697679 1.2843707871305297 1.134626996689611 0.99348685992636 -1.1401826934554233 0.33146790510455815
Ni 8.798813622998356 7.404112679535351 4.5564701434213255 -0.4697045521226749 -1.2218874668250828 0.8798284164682396
Ni 6.042156807443011 4.781807789726444 2.555304513741671 0.8421157324088142 -1.824486942037987 -0.21290379681470434
Ni 0.1818434869023662 6.614354981294622 10.249803213391399 -0.11750969888341051 0.6624370161958268 0.43347847991110505
Ni 2.620016657496925 5.446385170916114 1.9062301399587789 0.3542221680819384 -0.45729152317030275 0.3618367472044026
Ni 3.1258187354061358 1.0549311341665426 0.12586585277228174 0.2988174660593886 0.39321397596410346 -0.7433249500911457
Ni 0.9130476552103792 5.56696100417204 12.51883865723552 -1.2026761840039546 -0.9895224759619732 1.6165183777413707
Ni 4.849315312791806 6.427448430162354 1.8021080979845698 -0.4298941049939564 1.8780515055280043 -0.8515000018371917
Ni 8.150954347271746 0.23459704840348516 3.4009903455767567 -0.7109483335326531 0.2774621403120641 1.198562418945897
Ni 2.714693436870691 2.147482675486832 2.767881295524901 -0.602151331931892 1.274405848438773 -1.5621547153888258
Ni 7.984660566394769 3.4456295551078724 8.394970507049251 0.22244130399149437 -0.5476280040730311 -0.2729076881721622
Ni 5.292008877508896 3.740185761864292 4.635385205041203 0.6778420378969875 0.08750286810867511 1.0936806932391423
Ni 2.0751371755332766 8.626542418939056 10.003380206810636 0.4373698445457112 2.125832059615236 -3.3909256295141468
Ni 8.11133523924141 4.359344066592029 10.762113210790366 -0.16022600680501436 -0.35227764276105783 0.5217169406342241
Ni 6.4914628965555465 2.959198064198877 0.6665546007016987 -0.6577946323278091 2.3368962321180393 1.60583133034117
Ni 4.170018527015664 8.768777071507182 11.44086455670112 1.5509184803533742 0.5078327264529642 1.0434063704646224
Ni 4.770665499325644 2.843917854293541 7.437986923504051 0.6682865329980685 -0.12521966593315853 -0.8416621898111634
Ni 3.494663104650367 6.229128736641337 4.645131206745507 0.49108970266667035 -0.7021155657323714 -1.5929426473039598
Ni 4.694238540105409 6.1619014052876455 8.179127623880305 0.4293708855006347 -0.4625383733915389 -0.6782151049656902
Ni 7.73429059256893 5.928398972504422 8.809857846300071 -0.3670427168853744 0.22674044558748047 -0.9942383933804038
Ni 2.1665824104990987 6.266001965897293 8.778294249980286 -0.2862414291665909 0.2598750233579202 0.4817540270880413
Ni 1.5939546093562593 7.390728855441181 2.8960475222500044 -0.5633567276621976 -1.4834213659426645 2.7610405791124126
Ni 7.49687481554603 2.321154838104488 12.41099847124743 -0.9909520093196481 -0.674932063339044 -1.1761948498839743
Ni 1.6914052866755722 0.8904698070838978 6.767532988148259 -0.3974195294050188 -4.40145247564193 0.045851768226791996
P 0.9781025668262447 8.844008546090953 4.680139293174103 0.9514367248338453 0.33736241621212226 0.5702154024552438
P 8.076273916387596 8.35471909972291 10.648928834888332 -0.3066557311568848 -0.12137895203082967 -0.11674762390640538
P 6.306872596906428 4.571626647078004 7.675934130806755 -1.220971639879033 -0.13929568441025042 -1.0313921196125657
P 2.240562362104071 0.02149630811942979 12.037640213528173 -1.3573444942155335 0.687178741916881 1.6264112113750506
P 5.452306555756103 8.260677421562265 6.787914133255237 -0.5062892932252442 -0.29571543009529716 0.6108097789378383
P 0.5677786165861801 1.5864174523122987 2.1895599988008985 -0.7455674662684192 -0.7172513929325454 -1.3964329755765628
P 2.6746447015491257 1.3781789721981141 8.682948746388 -0.5592133949177852 1.4875001639977286 0.21533888861875816
P 5.79107701461427 9.01933383980747 13.33077352945504 -0.7874615353990438 -0.5055341602267746 0.2327226313128444
