# total energy = -340864.7972898908 ev
CRYSTAL
PRIMVEC
9.33058160097888 0.00000000000000 0.00000000000000

0.00000000000000 9.33058160097888 0.00000000000000

0.00000000000000 0.00000000000000 13.65624932267452

PRIMCOORD
 96 1
Ni 2.9001500517698235 4.075691373562928 8.29072285441593 -0.22323988863338973 0.5532481784732859 0.403144347703938
Ni 0.8820889303337103 -0.004422695705384098 6.170344440646271 -1.145912396850349 0.9052612547190474 0.16495555107019977
Ni 5.175188454852067 3.5235728651774996 7.7932526297369655 0.05337558740766291 -0.06204611859846733 -0.86895599253011
Ni 7.54904704826284 9.121259388036945 0.4580727766907496 0.4839273805902763 0.013785226709550452 0.039760310617073455
Ni 7.841411493901036 3.6905436239282348 10.962936126888648 -0.23291006473330214 0.3277542036983968 -0.13500605589596104
Ni 6.620710156888397 3.0516600367150284 1.8394971149766444 0.5664273961677213 0.189763354142499 -0.6319025950523955
Ni 5.020636700286703 3.4664790360187547 12.365337478855649 0.744467291225705 -0.25716688039813773 -0.37920017818351465
Ni 4.525294781283684 2.6275477780810013 0.9339520354155816 0.21350646339570972 0.4660823819890553 -0.4741191362506028
Ni 5.219032858057974 0.17258776890820607 0.2753305357653083 -0.9759298248792032 0.5866987448222477 0.27580969231030567
Ni 2.207447669559453 7.066338736823301 2.0313805267513785 0.6255913081223872 0.019597462515953346 0.14541053905873666
Ni 3.2357617433878842 3.905184324364218 2.5977057787676463 -0.7666093745403829 0.764809859437799 0.05093123963222841
Ni 7.670409923874508 7.809892789063932 10.594955714444538 -0.43132235280005066 -1.958695441733317 0.5864763443987964
Ni 1.4436835774499157 8.826030453830072 12.056802202147828 1.0596557424439492 -0.21101583576337204 -0.44069530937451845
Ni 5.275650827552216 5.31914066865516 2.9269848046151496 0.3300226880175993 -0.08176262319078823 0.07471677208760034
Ni 6.875117796346209 1.6057744419940774 12.161094778618148 -0.6409305095826188 1.1054995402509413 -0.950524497432221
Ni 1.5411415028565338 0.7884742715115812 8.361708053545511 -0.6097458564496983 0.8804719635895095 -0.24904605106321626
Ni 8.475424517489326 8.788278920446139 2.585770098712104 0.1557628288273382 -1.143974556397688 1.4029520076420032
Ni 0.9780222386975861 2.694354742744609 4.462630594875752 1.1847355403651338 -1.3331969504350525 -0.4001780659867624
Ni 8.579432511219109 9.158413764194833 12.110731098008545 0.38942442701468416 0.6242509920444088 -0.4594684762169636
Ni 2.046504466559094 6.082120991905515 10.3162997593767 0.8159568146252593 -0.9065943717081741 -0.20860799765282784
Ni 8.254149773495268 1.6476500924703723 9.743201438135666 -0.010673677663762262 -0.21985605976282135 -0.42909680590364163
Ni 5.520942488731208 5.88975238988462 8.398005882307293 0.8526742246509509 -1.1975853997446084 -0.6261194127117152
Ni 4.043920743021087 5.707768725247887 6.5561471971132805 0.18762291076072848 -0.5104033153936177 0.3986500593780102
Ni 1.0523496521766784 5.484002715951428 7.5819084238003756 -0.1644845249710522 0.21350183541001938 0.988154649080169
P 2.9110854934717434 1.4157198242241011 4.112866277000463 -0.713751607309403 1.2299643302959462 1.8113673739368934
P 1.2690244194138713 6.525687513294238 5.831873858808527 0.39423830346355976 1.2417096437573325 -0.948240843604367
P 8.754726148807823 9.371076381319549 8.303490822355272 -0.2993573977232586 -0.8099856846434889 -0.17869038415778904
P 3.715167028920869 4.560368437732079 0.054560576238889276 0.33181706091386076 0.3226335946423798 -0.37450174426658084
P 3.3186359696647227 6.385990044726705 8.514398357070316 -0.41642178153913445 0.6626146794242718 0.6870069922257072
P 6.507912755237789 5.384977252826446 10.326855446405181 0.14310528796432775 0.8031290667329717 0.8338624912610864
P 6.456128027041836 0.6354508662216228 2.111829734855582 -0.7505068125515655 0.7682394539446382 0.8781646556125715
P 1.4446539579422362 5.233672540677694 2.9677622456304245 -0.22609381314241708 -0.05015579491878459 -0.004990511236055922
Ni 6.257377307167602 7.269773408689313 13.281740556290881 -0.9739626738505033 1.375063251651535 -0.34378811723280794
Ni 1.4197133131732664 -0.09186050947062657 3.815774958694866 -1.003569955193975 0.6550561503507235 -1.1295462967874996
Ni 5.895285424807179 7.311630398002294 6.272793294181179 -1.2019156516888463 0.5879418732007293 -1.4801393527572833
Ni 0.21634353158837216 7.570470063747147 0.7547619469269329 -0.09137700635210069 1.2983531032829898 0.2218275816668954
Ni 4.370136538910621 1.3774644394306945 10.790594685336183 -0.21101557865305592 0.5753576087778155 -0.004982283705939806
Ni 4.9403377145471765 7.416319524193032 9.86979503782421 -0.7424363768386053 1.0758426366164568 1.1970868628416351
Ni 2.536192053078014 8.096537588146433 6.940788296164003 0.8138911903454822 -1.908479225890242 2.38619096458811
Ni 2.816361428490606 9.071592701877114 0.684139707423807 -0.3440393140116656 -0.5335031346358747 0.5904669536154283
Ni 8.553810733989183 1.6243982829813064 2.095305274741161 -1.1381687483491882 0.10335937552495747 -0.19876761452363834
Ni 0.4024354513286508 7.409405563185247 9.04980486065002 -0.7537232626063342 0.751193554205945 -0.12602005034726682
Ni 8.366881861074276 7.378512007319158 6.289262703863824 1.6303509127490892 0.44788385670315767 -0.9027449160550969
Ni 2.864535221585327 5.426274407240012 4.689228435705089 0.28356439655506005 1.81826255839483 -2.813540963003974
Ni 6.823640977344935 0.34629520761524357 6.8852078873500115 0.693168898062045 -0.2690780300134269 0.3894547660319873
Ni 9.174126463705102 4.835051431130396 5.197814182311952 -0.19584092779514659 -0.1198676575926258 0.43788072274385875
Ni 7.682912903294793 5.745846828989812 12.646506159563698 1.4716248875283688 -1.5220673604496366 -1.702597368919326
Ni 7.977106142937747 5.438954667711778 3.196163687894045 0.1574985805715223 -1.104811255934665 -1.6627758660470138
Ni 2.8137861879532933 3.6762678339931343 11.37090368008169 -1.1675184051558989 -0.34756841021084656 0.23948746084050365
Ni 2.2907697637558244 2.1370017780496435 1.3795955442811367 -0.22936708457705016 0.199038865907154 -0.7157956343226253
Ni 4.218757182108613 0.25700247421660366 8.470698577880093 -0.9295481522908701 0.4370011483523829 2.3585199810354025
Ni 7.204767246285493 7.368462970874646 3.92210253502456 -0.6283429027255952 -0.06971597643889928 0.9420270014841712
Ni 0.5292053990105096 3.354726659513722 2.3230377142999803 0.6768981859264794 0.42433640840052084 1.7164558720689729
Ni 6.152958767844916 0.1802435111577159 9.708501004953549 1.443547412565862 0.6793214506559914 0.3943763717033208
Ni 8.786142217246702 4.586540719279763 0.9347824571830482 -2.3681595610076958 0.9321771052732848 -1.962374176136485
Ni 5.01290164809311 3.0353035270704325 3.658837374399826 0.5509241583257996 -0.4729870795286886 -0.5290319862383985
P 0.3070797059693388 6.899181366439428 11.392439595604047 -0.5575321505606204 1.6279847265097576 0.029532205131162042
P 6.182396752972526 9.03821721129028 12.001220860275671 0.5122323981825566 -1.898003523169899 -1.3541812659962034
P 7.346797360267257 3.481491941904752 13.154395844778954 -1.0521247241742269 1.1376912944921374 0.749281939005529
P 0.5919554267696849 3.191516125170729 7.354532412460851 0.10556769603018593 -0.4320240068527657 -0.3606872069809917
P 4.588425496774462 3.481100057475161 5.665336039046673 -3.3687046133324174 1.761313394703296 0.8575834890271101
P 1.0589090510814991 0.5183959201609579 1.7191036867991305 -1.0978368814993609 -1.5830932653137058 -0.2488586176427585
P 6.20467818196927 2.3874812426298884 9.237387807339077 0.6596905637989413 -0.6865699046882885 1.1143235663004745
P 7.144062482025516 5.712256735024869 6.904886084064474 1.4114538744654272 -0.809399987343348 1.7535388929641995
Ni 1.8719666060845899 6.845455877258834 13.191458781236605 1.8117514967491894 -1.1673677385106476 -1.0121250438528377
Ni 6.187799159751887 2.2369229770136903 5.544519002461935 -0.38045744762938344 -1.6190295741989988 0.6750634467105858
Ni 4.501147235955553 4.361683031929443 10.088772592614333 1.684314511449738 0.39896219130179034 -0.4703229024329642
Ni 0.7223447070762663 4.816427590143167 11.969648038064959 -0.7294422785717825 3.1085377697656917 -0.8503748870938128
Ni 4.665962630343538 7.1216784166305445 1.3177169928487185 -0.9398099392281943 0.27806377845180497 0.8120284261051306
Ni 8.87293528781945 1.8432937286528486 13.333484229927542 0.29630832648428973 -0.2830540325775448 1.0127325955298494
Ni 3.3663525642582552 8.426793525893414 4.840375461023839 0.7979868604103999 0.21901659458066153 -0.6987145104706224
Ni 2.1321498755880404 3.898988818144017 6.034533159338848 0.5279714061843681 -1.0907455218702182 0.8978500498566407
Ni 3.223529350835651 1.6597425262977517 6.509770474045684 0.33702303059483246 -0.2178266880376184 -0.5003860403669318
Ni 7.147598772473492 7.654781199599153 8.350591598559445 0.5086248833369562 0.26517895206933684 0.021743819434994812
Ni 0.5709672163905901 7.095692746715998 3.7855392088355893 -0.9337655328063273 -1.144391075109816 0.9832554120063389
Ni 5.780556592753586 5.085577548618925 0.5106272778733993 0.5992722106118841 -0.5387985787068592 0.07712023932277041
Ni 4.262881502764228 6.166478780665805 12.042094406282013 -0.15349640139066467 -0.14732703935515917 0.39434320447254023
Ni 1.1681794928657887 1.4990139266755016 10.73486312109935 0.38497359033218215 0.5597199022405586 0.3740538580958848
Ni 8.356422279036861 2.174473393983868 5.55073316984545 1.853695188170827 -1.465071402680567 -1.146938267011702
Ni 5.896106515992988 -0.13138858560203837 4.573737295130125 -0.5141576402297273 0.7911045314682699 -0.3668390855150005
Ni 4.194003148972782 0.9887803993480246 2.58003459016759 1.2680426252249066 -1.3046492207043467 -0.5080967787476282
Ni 8.349396351049194 5.3472257194425135 8.942836273360495 -1.6780006534165683 0.7802750449529336 -0.19748206294299536
Ni 6.4356474003048785 4.638661348415365 5.2768432758879715 0.03063572260798595 0.1312959540342255 -1.13761673250046
Ni 2.4398631280518845 8.456278163929309 9.728370478591978 0.8690794054818517 -0.37375098214348534 0.8304123279289569
Ni 2.8500634894354313 1.5817575248091433 12.691886376510336 0.041076715435651834 0.21762305666724457 0.08215343087130367
Ni 1.7389591645650744 4.6802664120236095 0.8276011326317452 0.8556196804325199 0.6849539663514203 -1.0749388938552649
Ni 7.799087975505209 3.3340500905619685 7.3636679849611495 -1.2788597704450686 1.1389395650769418 1.4988574979920766
Ni 0.7275661005714835 3.9172580970282826 9.397411014988062 0.14471454143297655 -1.3088835705006685 1.2622057068281554
P 4.816334284326597 7.157946387531025 3.8652102464296045 0.8170659885290379 0.16508410622826408 -0.5461884434130271
P 4.5939305399520505 9.133277177211069 6.616589772028698 1.259100071319638 -0.19931474527635998 -3.315649128268335
P 7.67723990964738 3.3110035538693547 3.6727250121379984 0.6348616776807195 -0.06389319910953511 1.1177338775336039
P 1.0215400715455005 3.024321432460227 12.593519652450333 2.25758567001217 -3.114994581134629 0.37638019223621627
P 3.1841916185700403 2.1210744751612665 9.066479543129118 -0.5549569336342765 -0.08003072810134604 0.9502362767678408
P 7.707228399092748 6.636096286040672 1.1487989417061826 -0.5746163597364169 -0.5282783959018257 1.0387868694147402
P 3.749270304876943 8.7706534516962 12.391803673725528 -1.1502305646097288 -0.7916362356020237 -1.0088291467103851
P 8.59042393641097 9.340005544401976 4.790024843228556 -1.3715614091458637 -0.36629812540986595 -0.3946769336628751
