# total energy = -340897.9490470199 ev
CRYSTAL
PRIMVEC
9.01712399877225 0.00000000000000 0.00000000000000

0.00000000000000 9.01712399877225 0.00000000000000

0.00000000000000 0.00000000000000 13.19747243706895

PRIMCOORD
 96 1
Ni 6.533303139810232 1.9026762979500729 11.360661085996435 -0.04936518069668918 0.04927390653446353 -0.10318839716473198
Ni 4.82050042333345 0.4240771482834765 6.096136734231479 -1.127387341462968 -0.5373109384177391 -0.9730167649974663
Ni 2.8198981580186078 1.4462294776918223 4.865366927552316 0.0391941537009583 0.2195984352260605 0.4977416607655492
Ni 3.415740699224553 4.3185622121585086 4.869801549168336 0.41877099849760135 0.47476268337187266 -0.3670362891274711
Ni 5.1423396155234435 4.610726049044869 2.5919966592186654 -0.6339630771258501 -0.5288980317636955 0.18112599018247516
Ni 7.140714651193801 6.238172669105915 2.6889848456804937 0.7369177610132212 -0.7124570568676956 -0.885089921977495
Ni 5.006361384597042 4.677452767138727 11.378478021439902 0.6635757577859605 -0.8177861545245142 -0.2051202962145435
Ni 5.642041579929834 7.872562474698348 12.25391903714521 0.253138475965035 0.4680135375734972 0.345883823419572
Ni 1.859159657203998 6.427225692289132 0.4130501072622632 0.6044324146565848 0.3066459609648719 -0.42784596421567606
Ni 2.729573626242099 1.5745792216577634 0.37523950262561967 0.26392271106473253 -0.31607419625730726 0.005019050481146195
Ni 0.5663574472201204 0.05572853186965757 4.630505110685259 0.23107763951025367 -0.7756038647295094 0.4576743604310182
Ni 8.527331921680423 2.3742718866404426 1.417817421469939 0.4716475347816587 -0.09819402927393411 -0.19113966566473534
Ni 6.8975949521064255 0.6627279606833769 4.666414905568633 -0.2015518621369948 0.5059835890593672 -0.08525109596002092
Ni 0.7220687524541696 7.412310428083934 2.3191916859911834 0.05230060917592928 -0.573426967414006 1.0131113190255068
Ni 7.491805393856291 3.8779855302577158 3.7729198040569045 1.1121844084702845 -0.02710868329133396 -0.22366283510342125
Ni 7.625141607431138 3.875794369109499 12.54195393292141 0.6792173209779592 -0.40217195648833964 0.17944937381100062
Ni 7.930740959176937 8.750830358798577 6.817457967100516 -0.5805252690216841 0.9790092351354752 0.1440967053433196
Ni 6.81331189345463 0.7659812449467744 0.2841746649632313 0.16710602175429928 -0.5492444566305315 0.6173766335220786
Ni 1.9105482472603348 6.409137341411257 9.339257217172037 -0.0798792901251463 0.06906754422162299 -0.3855975970694262
Ni 0.10147871424706346 4.87143815718645 1.3224396933664304 -0.5051371818986721 -0.3930121443659425 0.6757987822147136
Ni 6.271995901480246 1.970503105180072 7.0553955249867375 1.4343063535835685 1.1437099898823917 -0.42623568230576275
Ni 3.4863447806671073 4.365911130632947 0.4197453218818158 -0.14213983872726488 -0.3947985468424039 0.8015653217902776
Ni 5.943610277217802 5.636622288365725 4.778079363161484 -0.35499092792716286 0.7437800353506933 0.23539066506331074
Ni 5.252673145604043 2.7222517214999082 9.478701630589692 0.021423459981098587 0.5188149364960807 -0.5017731505224455
P 0.1645715313420255 5.507695448459512 12.414149724961508 0.59599302563998 0.49180935444151425 0.04846709436245201
P 4.068174711073342 6.212185317545577 12.614949355666464 -1.072240006866863 -0.022475812505012904 0.7331531517644664
P 2.385038332776127 8.549351738651394 1.3697922186904954 0.5162412622316335 -0.43091611850056755 0.6591169506836584
P 6.268253794992551 7.771678890639689 5.863518377832226 -0.15325857434824575 -0.9306688961588746 -1.3493941290202052
P 4.749779119278028 1.0866175527862654 12.603599501603663 -0.012261590976172432 -0.04781763370391119 -1.0966251205794468
P 3.920708664085918 6.0295885551941435 8.326509748165298 0.30513749474014545 1.0741235970428211 -0.45229047041128556
P 4.715712424553894 1.0085653268645858 3.6796006853778316 -0.2844038617372199 0.013061461169648474 0.8563778987547832
P 0.12283847773635118 5.549255373283105 3.649457341335135 -0.16824013535874252 0.020083401013436378 -0.5899799866766806
Ni 1.5865088767980569 1.19925946662795 2.7208044730871968 -0.008635049967178676 -0.2541594610303816 -1.3714269404505284
Ni 1.6443356934380444 6.28132862488932 4.967462413085544 1.0771251028733062 1.2841482725375173 -1.0428651532491717
Ni 5.993907795262063 5.668642095926709 9.200578357587647 -0.5173872029106186 0.10254305027124921 -0.28715699900232483
Ni 8.645762829172952 2.3219455156811653 10.044582973659088 -0.400025342458982 0.003493357865239145 0.28821655061509077
Ni 2.3322971741097795 5.253547806638517 6.973293708646687 -0.40540203338986314 -0.5452101386601578 1.2553107794805347
Ni 0.6049723793235168 8.958512760303675 8.914417220192515 0.4917026536603209 0.45311373764352936 1.380313444306881
Ni 1.377374718318215 1.0931008649902496 11.30912551681781 0.7040989147109874 -0.13264938273832638 -0.3418680173919596
Ni 4.126740931886802 6.704962130668713 1.7096530350402708 -0.21104977432510105 1.3765053834147003 -1.044942861713807
Ni 5.555531291633555 7.853103520962327 7.865759956302401 -0.13896041255801875 -0.04382522471506646 1.3466638745732358
Ni 5.391086000028463 2.903234418643396 4.728627651354682 -0.9419084736284359 -0.7770624515529069 0.14175905834907843
Ni 0.5893114382444072 7.335691924888865 7.049799497790921 1.3832812686859532 -1.2455254179589967 -0.02756556832309446
Ni 4.995441647352224 4.642168760665583 7.012186368171339 0.25287725188384835 0.04997993146255263 0.03956876343155766
Ni 8.250533264203783 7.177775031108092 9.161632497031004 -0.7826659137826134 -0.8483889670120357 0.24919543215688694
Ni 4.595000184672479 0.30202316034093146 10.346672860718114 0.22366026400025998 -0.08102343103191852 0.49251846469339694
Ni 8.073996009225196 7.289064376339766 4.694539315532787 0.047761583654995166 -0.5850336984149989 0.18556320001822235
Ni 7.288018389948025 6.079868038990272 6.963672437267477 -0.0008469213813275736 0.04953924438070823 -0.009512824586441681
Ni 2.2505569444448046 5.1662981141687645 2.598186013178074 -0.08878199193141484 -0.0075569864116515 0.3235759039509911
Ni 2.3718011946461566 5.044485785151209 11.517394933099652 -0.0468401002819903 1.0644894163871668 -0.29387580578339706
Ni 1.025319143380584 3.2904748116894367 3.9010405130715506 0.09133355470867495 0.6185626834103799 -0.4857299810166538
Ni 3.544279802795896 2.735272448652277 2.846365220579296 0.16542760561061187 0.3182544917380777 -0.6499671658635903
Ni 0.975616755524727 3.2779951119810717 8.29706613295018 0.7058675765756359 0.30839456822486244 -1.3053105084374295
Ni 3.7537025092458736 2.6495195987776037 7.126885989725053 -0.9328725886784127 -0.05062759234888055 -0.40734424471789843
Ni 4.074748194517994 6.9284966362831355 6.0315488779662525 -0.5324034738137927 -0.02517598504499535 -0.6581108780166472
Ni 0.8678711400512811 7.4018866326627855 11.401626782344032 -0.05322312099019866 -0.48198954013761514 -0.20424946357381596
P 0.2291855372670462 5.4204547731138275 8.161990516142861 0.057143024869895136 0.7175918069910996 -1.2053357331139887
P 8.538982045974647 1.5537226136913995 7.810172091568185 -0.4980841317066325 0.8037538448011642 0.9689708770628667
P 1.7610803987300945 3.1993838243672545 10.398157032289559 -0.4950332606954506 -0.3669308738978584 -0.2714125916838745
P 4.016677915528205 6.18271735609548 3.7477259594144403 -0.7334799389762658 -0.49231534754365536 1.3369355915418781
P 6.953555224064599 3.896912473673798 10.33331759826287 -0.3984891083201137 0.4467785394541209 0.2890796699463344
P 6.291950797039937 7.763554461855559 10.020445034244839 0.2943568591848737 -0.6714497612173984 1.1300340350571956
P 2.186156644360165 8.3378190251698 5.8640458795901305 1.4012512229008127 -0.20180563001901372 -0.06527953793410049
P 6.9525272719209905 4.019301898631626 1.5781409856641246 0.08215754463636173 0.30226454406772457 -0.7189786600362972
Ni 5.448786576931517 2.989916032296943 0.18724869665746358 -0.23191581914083284 0.2851335408143928 0.3828819979104761
Ni 1.571495365226939 1.0003236754675877 7.088005954174094 0.15146882943767462 1.2844580904684522 -1.1566115284354082
Ni 6.889506591818562 0.6891589547477979 9.121248405185712 -0.21160718949046783 0.07340910901977034 -0.5922690398211735
Ni 2.755813457276305 1.5991779361118232 9.217669414543744 0.051298393163660035 -0.43512038638990225 0.04142124325926415
Ni 6.193555939223698 2.138906914250461 2.4811383325173813 0.4618164076238498 -0.5245155864252838 -0.046160557716462436
Ni 4.050257685552736 6.828298353653548 10.60290255648612 0.16354658653781512 0.4510511986875458 -1.8192053819240734
Ni 8.156169060845375 7.186539675700962 0.2590953377964144 -0.44841916038133744 -0.3823752334773866 0.02341169405572097
Ni 7.530037999899258 3.9448655394607077 8.174158223358516 0.2843287855249103 -0.829284899192733 -0.24961555041344105
Ni 3.088978157294121 8.357214859037352 12.379863012410144 0.5186123335669713 0.06471080991482404 0.5091115931653878
Ni 0.17073473564164057 4.917650918028479 10.30545739003387 -0.5583924416783866 -1.0388220935280497 -0.08880718874239545
Ni 8.519414886749827 2.2136678898877813 5.668064098274032 0.07327952542044154 0.4196042930321741 0.6481180284699934
Ni 3.5839551486895407 2.774451852722251 11.484348075107466 0.5342019604751123 -1.0081544892408636 0.3498764895187329
Ni 1.2355714252447016 3.218446024644338 12.565393045220487 -1.6015830965877773 0.4089938645061795 0.4387847226153669
Ni 3.1019177303298893 8.2018948969878 8.111087047361314 -0.036974520341820194 0.24420106426608912 -0.37900631700515375
Ni 5.576775635934789 7.949649868344886 3.658194032843397 -0.6241813151487379 -0.2225068671221071 -0.36853781337366204
Ni 3.005831256274735 8.257296107253834 3.596112937068723 0.12597479893162822 -0.28490368419177386 0.16483856587636125
Ni 3.368563106107383 4.211276470012466 9.350778396592107 0.3417417762267405 0.1382962966114586 -0.6148003881544702
Ni 7.178911188740502 6.006829334049699 11.344441984937596 0.2659561965549936 0.567870556372151 -0.08288079595563146
Ni 0.6604763848039127 8.912408204950445 0.13680870805294754 -0.09042492685147653 0.3831933585033078 0.7111756190521107
Ni 4.562349178426823 0.41447391115240106 1.512086945025646 0.059224332878956065 -1.1577502700255415 0.23789620509398385
Ni 5.949218928387313 5.666360763537824 0.3980618436385322 0.6146052414245285 0.0893049543144204 -0.05132873218096321
Ni 8.035249427110424 8.859811320269166 11.043710978475426 -0.11508823392611148 -0.312146836178443 0.7233757606627285
Ni 0.055104546884239346 4.675036177888841 5.854861037015751 -0.6059257113726596 -0.1332276238392996 0.4399098373587456
Ni 7.8426526741689795 8.818016950219837 2.4190310870829137 0.28227241721651386 0.460051345303627 0.38548575408191027
P 8.599649256695658 1.5626225151452695 3.50489210315998 -1.113846883774372 0.9812975169490198 0.0037360700036645337
P 1.7791958009801698 3.176895116944811 1.5142519565140695 0.2004372889165774 0.6894875925557157 0.9797340291166418
P 4.724107367060027 0.9946699386777433 8.241689268919126 -0.3478628015228138 -0.10180051567826984 -0.40040586572685233
P 8.578666408992358 1.532343012529165 12.39174036823085 -0.9137104139276652 0.9675130615704175 0.05928372536198177
P 6.321490895482569 7.78624154600747 1.3129581874102558 -0.9515251707825934 -0.1673225086404796 -0.03724371484280682
P 1.8622254793866888 3.316931053701244 5.973413675683183 -0.021315987868956835 -1.3637745661115932 0.4914871952154051
P 6.776017068314605 3.9743876036552064 5.907109860708055 1.4249290261337266 0.01694614093603533 1.341944100500063
P 2.465335822590424 8.510587122288491 10.230363682518487 -0.674118052078181 -0.17227239644658718 -0.27047362480937287
