# total energy = -340862.9452752136 ev
CRYSTAL
PRIMVEC
9.31976603362952 0.00000000000000 0.00000000000000

0.00000000000000 9.31976603362952 0.00000000000000

0.00000000000000 0.00000000000000 13.64041964660465

PRIMCOORD
 96 1
Ni 5.48730102982546 0.7840047947739502 3.8870832616356297 0.920430506260318 -1.3406235819164267 -0.22733462752805364
Ni 7.334963239993513 -0.36192471720783265 10.56344101970073 0.8286107559438439 2.736170298233294 -0.5634521155894813
Ni 8.744139788850728 3.384444992413183 10.618615897213374 -1.0785620924301489 -0.11083177264260266 1.141391883272176
Ni 8.880087212633192 1.2811416062423155 12.452297526698898 -0.8897780714817838 0.04423377300739479 0.5449473719170744
Ni 7.737353448345591 2.0807495529252673 4.020677444552594 -1.1767077849646508 0.6145946999015673 0.7010637274290894
Ni 1.6140622802916227 1.6466162222448792 6.200703006774878 -1.035083966641856 -0.5444246666443849 0.8923964829412373
Ni 8.34230876644689 3.038569843896362 0.7453874131886328 -3.6178316541452147 0.6746785525673413 -0.9992738989217824
Ni 7.711164906436443 8.27345433668718 12.782914354641465 0.5576000276840783 -0.1506080240992761 1.21620738572117
Ni 8.895194553001422 7.001371542806321 5.761658159515799 0.9810221518004459 -0.4012257905249864 -4.1690219216482065
Ni 0.7786375416474456 2.739889989410829 9.024487663999857 1.0279938925642942 0.4057265066088173 -2.0218695032886407
Ni 4.828701139756528 2.7113621862848865 13.23104317762967 0.5591941116440756 0.6336152068681281 0.4927935727316545
Ni 1.5883863255016937 8.812062242030038 4.831981697319524 0.5502394735539491 0.42754720202833457 -1.6379382381780434
Ni 8.969435807395824 7.571964884388393 1.9998083188943947 0.8952177544401162 -0.8634731150386676 -1.3086956228595783
Ni 0.3408685703269301 8.872016295446958 6.711645187328659 -1.1823423575426089 1.26329122658285 1.1181650515337516
Ni 3.2562422940138136 9.06424578491958 6.941091297586262 -1.920119124122016 0.005250706875978054 -0.6507876048823565
Ni 7.770475896012889 -0.05199870132665315 2.944093513988388 -0.8852863542590174 0.4303535611288782 -1.0538291084598432
Ni 0.34663843733616606 5.0383026726877445 0.036174670968097684 -0.2512944807777608 0.39344948901367727 -0.51077175447663
Ni 1.231970521860586 6.439352385763899 11.845163247352634 2.7172631769161457 0.6422145185013649 0.47039257932863504
Ni 2.6674567695823983 2.9118396684940193 1.3120189223274383 1.4672660963390407 1.1196642617870975 0.5797770780017498
Ni 6.349407325989814 4.183251439236993 10.328116001173983 -0.18687883350585235 1.0016205447770878 1.1173554111482629
Ni 6.07410144414063 1.7608672312357099 10.661378710628297 -1.5528866598233384 -1.7500082541031217 -1.132887959566223
Ni 4.861683790936767 6.108277025343777 2.8536162955868964 1.0562958248327807 -0.1488028525697373 0.040151375407905046
Ni 6.545075809044099 2.9464998775189724 8.186270723520812 0.769490809853236 -0.20428288791491273 -0.27920174871099007
Ni 4.956372611505071 4.668829877155279 6.459761740898006 2.153468076164949 -0.26673446948191476 1.1358516701802375
P 2.554976516094321 2.827877898366081 7.716999079829726 0.8045318606177694 -2.6001707680758126 0.07708887186420271
P 0.7904475488742326 6.737268019453506 3.8878335027828492 2.5836231481297762 2.0218980425337305 0.2991671360893235
P 8.980852520505684 0.8716068654249179 5.192703232762065 0.5463627642073623 -0.3685748372591846 -0.11126937440065353
P 3.5023773088965804 5.881061135043063 5.835289901226621 -2.5215682877805605 1.3405359072986267 -1.2251098304171224
P 9.13597070254691 7.840197063992366 11.07773924792052 0.7004808583424259 0.13900823507681867 0.8942834155513051
P 0.7903254599422006 2.860049729921375 13.433112475838119 2.8278280690506072 0.38776889368913214 -2.0490740887278904
P 1.9603381787380143 7.5861588877078345 8.618439447569722 2.587219350121467 -1.063066310787395 -0.35869588758257576
P 2.711446064177122 1.2505448151078922 3.008162244007759 -0.9777640498744644 -0.2256508120677275 0.5967401882186497
Ni 3.65313384054155 1.288429663101018 5.122250463166977 -0.8792820570464663 -0.9333955510614182 -0.3811799276177048
Ni 7.3128753950381125 4.377139847022722 6.203321860965793 -0.643286411409305 0.8112408972068286 -0.6849038298397753
Ni -0.16778560772197765 3.5206533696381594 6.714851186765224 1.68288317831985 -1.5082643931282733 0.6233007123159975
Ni 0.7350406091930687 4.832382447249095 4.854420897445736 0.0966678224373948 -0.21689260625912324 0.8356625205843028
Ni 3.5959384378026047 5.606743148369101 11.196328607893095 0.676237412414029 0.5056658007086324 -0.7986864575805859
Ni 1.0798905834714534 5.240765265013122 9.655520618797235 0.08035057333461 1.3694723878273187 -1.039874960272596
Ni 1.1108415257064277 5.053335454929543 2.1951524740987027 0.2457815213793315 -0.9122955358580095 1.44848932995217
Ni 2.721595289137642 1.4027459104524762 13.111280459142373 0.5006657763908797 0.4584320645326492 -0.6430442134915119
Ni 5.887072383986622 7.972276784966184 1.026648625386551 0.48302698026319396 -0.4449170607653499 -1.2152789603696297
Ni 3.5728254186087662 5.871228782119878 8.201056531968804 0.5667672960056432 1.7931572786867696 0.5902198706016287
Ni 4.126298350408951 0.7240143942703954 1.5250398773321305 1.4289072940551844 0.7070489984782468 1.0271395149837987
Ni 1.2986254868905576 1.5064935433822364 10.937706970786175 0.7191041298705679 -0.26167222446765903 -0.13179911892288915
Ni 5.639157293835297 2.457678161100906 5.637817111512686 0.539595877797174 0.35252061200979934 0.3881527593911122
Ni 4.266048238639436 8.036415413229086 4.950872085727569 0.7934226380784852 -1.0693007217328812 0.34506801238649604
Ni 6.67619559414011 4.113781904934224 2.166371173342892 -0.7328872996975895 0.3186188170560319 0.40585480465656554
Ni 7.326109462479745 6.881537994098914 9.875486663279043 0.3892709321559554 -1.750295189215921 -1.4013890340302575
Ni 2.979743482141722 7.814194917399298 3.092010312992888 -0.4256756960372346 -0.9761923345119705 -0.9387784126398864
Ni 0.7015919697226314 1.9532924357902153 1.725253610169011 -0.5566484624040865 -2.174899506565848 2.227199601521145
Ni 2.5765424541647004 8.412495922716563 10.514921386948698 0.30563757430501554 -0.13511095690494151 -0.15079545751973386
Ni 8.424509100837877 5.822458447667719 11.830622548745282 -1.05919345809555 -0.854620035523412 -0.36548282859742215
Ni 7.177319401419413 8.384890776405213 8.008767395995037 -1.0740739747518082 2.1115976611834086 0.3815609651062074
Ni 5.118825449234018 8.51362470145541 11.28192226901331 -1.1398402225143403 0.9927772354538449 0.06224435065220248
Ni 1.6373430552699322 0.40949839373076224 8.500927452524085 0.6957412867749114 2.057970105665939 1.0502401055570043
Ni 1.5933071618461883 4.070622069496053 11.487906800836006 -1.0076664938608517 -1.9719098835410618 -0.1067383192995194
P 6.209899751670233 1.7813054776438093 2.0818278498287865 0.793916289885452 0.5111689899150487 -0.4326097041529066
P 1.9201513485913089 6.5202293134107245 0.8998410959280357 0.4012039361481155 1.213950214255877 -0.9081892269991196
P 5.942273356843518 7.019880597693 6.872261099217646 -0.033966329643115696 0.1635969801597763 -0.8926592496843208
P 8.770784999284269 3.488723851993769 2.8585818668072505 1.1963846945682879 1.3370145244089295 0.03918001263357123
P 7.104615908382667 2.890478765271327 11.937112988751151 0.934124973028275 0.583698524543343 3.3216639670038473
P 9.055326769045184 -0.08674931207990469 0.7062630363435797 -0.20454719731989288 1.5744363609696561 -0.6125450164613903
P 5.117902792419426 6.502540397914794 9.885989107363534 -0.24103963581897198 -0.3825760366342831 0.601129575535597
P 3.665184297726079 3.1546754862821818 11.56201478257941 -0.7908278807681155 -0.20434330883920293 -1.348738497714077
Ni 6.8223015626489 6.495997922320409 4.782180596769447 -2.1383350771782528 -1.113878765453572 -0.10456136625285863
Ni 6.263348608555983 6.6124856751041925 11.854261202730466 -1.703815814707459 -0.6924998970194783 1.1534285027217361
Ni 6.592858248321038 1.1382416371700905 13.651331996208265 -0.15392706117018007 -0.5772121454880511 0.07632551133561694
Ni 3.3429906741171376 3.8444313534337753 9.39801735358679 0.22196924945108226 -0.6092709736958086 1.1297728109760092
Ni 1.7296087367292048 2.7823135633504865 4.192601028291533 -1.0703170788125373 -0.30791582881623103 -2.2818519987587025
Ni 3.8146174226268847 7.088222440333489 13.425487043457315 -1.025786086279698 0.5621315970058448 -0.3690378929385322
Ni 1.7603732836480996 9.090275890810059 1.5181376587777125 0.1482912030406414 -0.5514676895340954 -0.4822456220124791
Ni 1.752414203651512 7.097924316535419 6.5511522963482856 1.5782943012631656 -1.1294239122770224 -0.22499440943065124
Ni 9.341853648922342 8.116686556098653 8.874948293768886 -2.0995327595990743 -0.1590921503108873 1.8401537020409664
Ni 5.4391085208531464 0.059106886705338736 6.568079786978031 0.30028325197163763 1.4825554183979437 0.25524086702001847
Ni 2.9777397324938697 4.9628405289730235 3.6174391375123567 0.02209014703082002 0.10746799837669233 0.37008201793233036
Ni 6.268651555298439 5.245192153770007 8.241254545834474 -0.6350761076843707 1.0897767301990455 0.8950408625426197
Ni 7.235978007389581 8.667419476752471 5.166294744379944 0.34932961587632744 1.2222291664352176 0.41127314745865945
Ni 4.615763130667491 2.876732110710476 3.1670185841129554 -0.7621359121500616 1.00939067564081 0.06270097857364684
Ni 4.674384457574443 8.08667691020988 8.412169730913424 0.5017492392630456 0.10477836735967117 1.6253436893424846
Ni 7.631434309983506 1.0795364323709027 6.952275948527603 0.6501671976895383 1.5688028168329626 -0.042299532099159404
Ni 3.2061205935200796 3.61803560252381 5.635075236413159 -0.3398023931121825 -0.512161435735305 0.3309552271341978
Ni 5.352350820984018 5.290933564335876 -0.09363941493877745 1.7265497659698654 -0.1899505304526406 0.029735836501535884
Ni 2.904355896553434 4.614355846031092 13.151396459068968 0.8257555458832359 0.4470341071083527 2.5589318160306833
Ni 1.5270436269799832 8.901438796090082 12.564721861592151 -1.578489190882791 -1.1853150670176877 0.012412514731739913
Ni 1.871148019994051 4.662194203902855 7.383668336085045 -2.015921513235322 1.633994423038947 -0.9109732175021601
Ni 8.425739309924001 5.838563002976974 3.2645750966191405 -2.468893325984348 -2.3509642801753317 -0.21989205520707933
Ni 8.086462555596388 6.458849335825797 7.514697719452758 0.42739345005928975 -2.555350526437328 2.2069449650371666
Ni 3.649452533048983 1.3814502455904119 10.147926717143505 0.23522740001256906 -0.07569301995794062 -0.34927073761393396
P 5.700630469078263 8.081327364638403 3.0828983779663504 0.42276597858960735 0.023647464215610887 2.019629301104212
P 5.402761434217675 1.2574973603976514 8.599820419446559 -0.8120466809375757 -1.6747070702669609 -0.5482633236641848
P 5.969477753225298 4.3533092058619784 4.527269158429084 -0.050528347766854914 -0.08035134466555839 -1.5777551409302442
P 7.558432584441033 6.023951784349484 0.3968561314176811 -0.31589756147012693 -0.05726001006373364 -0.36062730027733375
P 8.320733508610704 5.008134590780304 9.267546224190735 -0.7052813650548627 -0.4237733368081992 -0.5408086671583525
P 4.469265731994935 9.198012383503917 13.337779659452762 0.31244328437293933 -0.523620328304524 -2.4800272311139806
P 4.199943139791898 4.55171770006263 1.4242503380685496 -0.7952514637571079 -0.9586399274505037 1.4782588479051186
P 8.535572749923752 1.2380936079937923 9.146118995530848 -0.05006169254308153 -0.8320848305353735 -0.27659593565702684
