# total energy = -340873.60191260325 ev
CRYSTAL
PRIMVEC
9.19734101134339 0.00000000000000 0.00000000000000
0.00000000000000 9.19734101134339 0.00000000000000
0.00000000000000 0.00000000000000 13.46123825157651
PRIMCOORD
 96 1
Ni 8.66909189497413 0.3266913983946573 4.248137846778794 -2.9849767224818784 -0.5924922115755732 1.074889271564252
Ni 2.2559790301471248 2.8588371528653136 9.869982295490217 0.07503790287244497 0.14303715373055365 -0.01195742947219231
Ni 5.489672217729896 3.2651021077329325 6.542390692537304 0.5545203603174901 0.46132455558909585 0.03237790211007328
Ni 8.274544352777465 9.028330844357775 11.945261163356166 -0.4728508110611405 0.6296387387188833 -0.32272384036334095
Ni 1.5539091880556453 8.771734222609798 4.116473309030731 2.266295796191658 -0.6716680478757917 1.307329081529355
Ni 2.75352759628571 5.092558617342339 8.613281508923416 2.3198822140585467 -0.6590755559227617 -2.4760371361179807
Ni 1.6634863109455489 4.057397866858989 5.1396352082028365 -0.008809113651197732 -0.9202474437152345 -0.06036076047624443
Ni 2.277666360663693 6.384196424138248 4.270416566333621 0.17486946774980205 0.6104616515698001 -1.2271579711954028
Ni 1.2941302862573139 7.870128063488231 8.703202074230617 0.42408186918755353 0.4989961019979406 -0.2257199747427661
Ni 6.938216665158823 1.5406558194066315 2.2249407628467592 0.08840378265638969 -0.7979796613215483 -1.2054272643865305
Ni 1.9392134023603897 6.110584721196187 12.389966405710638 1.5935915937418683 0.45639626504954306 -1.7935925664519758
Ni 6.363557590516884 1.5469743928014077 7.921118123023368 -0.1552097845373456 0.2828534865309645 -0.38336742218732683
Ni 8.301658114593767 7.351020929609682 9.06972439809945 -1.8570993287563693 -1.2006974630110288 0.24897431728501637
Ni 4.731075516709312 3.2891715496166722 9.372144932838394 -0.8907900576860659 -0.5140571100961212 0.2771055283035937
Ni 8.129115993944566 3.3531850442711737 11.901915933814827 0.2415417722663711 -0.20321150922760486 0.045428821756760475
Ni 1.1291483800629973 3.6462123344568647 7.618926602079955 0.17046182560040968 -1.4780004520374093 -0.23786663740762906
Ni 5.062216588769752 5.606174938532851 7.265164669372568 -0.3055190464492803 0.031102377831759336 0.6553186599834908
Ni 2.9109860773898855 1.543571376562591 2.977410195169235 -0.03146696026002968 1.265908609601039 -0.09995446360846658
Ni 6.415586949606038 8.495988736512585 0.0893098618524524 -0.15179587375979017 -0.042860546808951995 -0.18695056728405224
Ni 6.005293559298955 6.638300566424824 1.513380184385455 0.8860921379897644 1.0501760850882882 -1.5454607996729126
Ni 8.701963192372865 8.160285783223893 0.73070852307642 0.20250188475508996 -0.07751233255486652 -0.7640626968591292
Ni 1.7176586505310392 8.633691328749249 12.588640931871597 -0.6327721421415425 0.3144515730522197 0.48322366965503233
Ni 6.080582994247482 8.999745507951713 4.301673730354214 0.20124795774333085 -0.21244022691472444 -0.37483367368470283
Ni 5.951967375102576 4.756653322547555 2.6906453745970857 0.7139644946511575 -2.42905562516212 1.5942598234534866
P 4.538731520486671 5.129292798039189 0.11881309290887612 -0.7207840886761522 -0.3881681860100799 1.723137912074839
P 8.484096574359096 2.155295736184075 7.386128100650729 -0.05760170967386854 -1.4348159462301353 0.3314221394682873
P 3.809814639473282 7.963039604149117 3.6868581443601167 -1.054016541880301 2.929212837347697 0.14239154972675477
P 7.9696340977794735 3.3399684649869035 0.9475781493056264 -0.2971241375173657 -0.5148682931435068 -0.32837846754595706
P 3.2338219503593755 6.152524597004308 10.317420067911046 -0.2974282990213458 0.6571757677968876 1.9014192337196674
P 5.684894981743753 0.23932861367127928 11.74868639018797 -0.5668570275059721 0.9750044848514563 -0.5176908501939664
P 1.367010017815111 8.138488084613092 6.5087109488483215 -0.16948120685469523 -0.6923263475560916 0.2414222159693713
P 8.53332994172771 0.3808195907424548 9.829369596015235 0.44069530937451845 -0.6657869065046663 -0.6681893452985718
Ni 3.370043770665096 8.99970871858697 5.959223157564205 0.8218963200381457 0.5328351620345726 -0.49673558809853813
Ni 2.4775613740000333 8.889276242966769 1.911819121637914 -0.20604332224944516 -1.7743959389188666 -1.5475601054041026
Ni 0.4158357081057618 1.1504862116144978 2.319802139839076 0.5618408052383034 -0.3413244861836638 -0.7047656017607088
Ni 0.2327690699374301 4.99689707166684 13.423062353097734 -0.9037227065873339 0.4242937280880435 -1.0549477954453188
Ni 8.741566943519745 2.927808014419064 9.449950760335406 -0.07945325833132123 0.7430796668495588 -0.16305062073800305
Ni 0.9037417817449536 5.856811683192307 6.956929575535841 -1.1522655927618866 1.1523473538424154 0.09432169080272143
Ni 1.290883624818659 3.3955204057502923 1.240874921588067 -0.7629380963363829 -1.1419544406438655 0.5945712055917889
Ni 5.256252895770617 3.0502522176281697 1.1375437130975703 0.37662624680875134 0.6952193528331705 1.4044332201732201
Ni 3.592288323083396 7.481659963815505 8.583666070304522 1.4461583678261483 0.4988978858571795 0.16874252891645777
Ni 5.638742723672447 8.15808761868044 7.098191538811485 0.5067752317227272 0.5846549749193414 -1.5232531532276217
Ni 6.702672757385579 4.1592032364467295 8.615246061000743 0.4327354310974934 -0.015929526746062888 -0.3181071675269361
Ni 3.316616415715671 1.9874994435868454 7.5730502642442294 0.3893519219055359 0.05699287244527604 0.2664441919350056
Ni 6.69424799285921 4.752174217389977 13.207668900128876 -0.06876081161448158 0.4122810198978835 0.14648191774604452
Ni 3.0040723675333063 4.0565517114698775 2.805712390440908 1.191788333446857 -1.533342933363456 1.1104728250958167
Ni 1.0452870231291265 5.0988863880783 9.895154498582158 -1.6006595563322434 0.6239905392941705 2.290238937270817
Ni 6.955121378258675 6.753175357837859 3.9486521836122996 -0.5038238624038872 -1.49230169915143 -2.2901900863107527
Ni 4.397441965187469 4.682936632941833 4.75401092642482 0.22460257330887123 -0.5778870600678886 -0.16123490768550297
Ni 5.028112847652095 5.786038142766102 11.683682341887737 1.1302314957799826 1.3911475588079074 -1.3043797690930439
Ni 2.929518719879659 6.680838269410035 6.257550875475382 0.8325144618736243 -0.7678540455807614 3.1620604242741797
Ni 4.273664147506395 0.991142275567194 0.10551465728805093 0.48036151761588886 -2.5475096902366707 -0.01695076892172565
Ni 2.5646418003490012 5.437100215510768 1.1761394356504653 -0.42005886407108944 0.6721311035551392 -1.0089366188225268
Ni 8.228548449506322 3.731287740427286 6.061259380415714 0.6226970172937276 0.07710429848317044 -0.2408498884056691
Ni 3.9014753417328745 8.114823325741536 11.432145177526172 -0.34553029673489527 0.38315247796304336 -1.22286988534301
Ni 3.889923481203269 2.2359932077499654 5.0574817975272035 -1.7871799780574125 -0.23167747787778162 1.4216482984999257
P 8.66356429292135 5.015834397168797 8.460240510790872 -0.27559963318202857 0.6062856658152397 -0.2828336890366226
P 6.076720110949365 3.770174098961659 11.027890761441812 -0.38072561368910557 -0.18369709334376105 -0.2037082463583653
P 1.790731526253742 1.3208393650614332 0.4913339226992107 1.0780944087651112 -0.2326691523670896 -0.2181100236059921
P 7.3948094709961865 8.422051310718398 2.3543170021077464 -1.275541504705113 0.46043932477066507 0.6826561714561792
P 1.1366993971766965 1.7332757358648527 4.310356020433789 0.23305790316507602 1.9589222130321424 -1.3443768783112717
P 1.10463746580233 3.8320262184374516 11.812815771341414 1.1455735254536916 -0.17305452602825033 -1.0530662621518898
P 5.324993823794717 0.9193625460152415 5.963813550550133 0.8648296290665622 1.0706906601018722 1.5262104360837327
P 7.686484752027538 7.769619519007715 5.522526959914495 0.5786301088815002 2.838984856998375 1.1646469971453748
Ni 5.543393887597272 9.05532504073866 9.35480702496868 -1.0548950878305123 0.149760074276684 0.8504777312202644
Ni 2.8225536418865764 1.3163878519274135 11.711680887926134 0.7243160130888107 0.17152214854412395 -1.2279478140865496
Ni 7.356291006109254 5.459256610427822 10.693634549921676 1.4831819962383488 -0.38974735757174167 -0.7969849015084467
Ni 8.6301135630279 3.244619628911729 3.0081559870198866 0.3504395611110545 1.1717303863547175 1.0390635201148943
Ni 3.8855915335046665 7.351931466387095 0.17621185978241222 -0.00039415011462512765 -0.23870404570725984 0.7157097594770384
Ni 6.9125652805910915 2.166617663184031 4.398446314844979 -1.333936142593922 1.0205166103506427 1.403551331788899
Ni 3.5124370069066173 4.196452468249995 11.664849866075302 -1.6309193836580491 -0.7379248621214969 -2.033779624462665
Ni 4.954386960705188 8.836869792888988 1.9750333673433524 0.1778087528837841 -0.00032344477768976555 1.0785973165434584
Ni 1.1455564367388062 1.0528288429016395 6.269760345899787 -0.41398206174939023 0.2715704574179775 -0.6089650124196158
Ni 0.3454015495693199 7.310828548626898 11.022170015224125 0.12827465070939845 -0.6012596733555581 0.4254728359978091
Ni 4.856472066439121 6.913034344991577 5.139204772635331 1.26027146591992 0.5193985769136925 -0.1755904050762266
Ni 8.062895137405427 5.471764994440771 1.6920780854904407 0.2592186207208439 0.030964309591998286 1.3822615691721871
Ni 0.5316725414068512 1.6705774609999482 11.19417777035042 0.41312742705857874 -0.6261479519568055 0.5049510340297949
Ni 8.85001279344377 1.4616690533013361 0.0663339838357269 0.18203230404682844 0.7779003740731699 0.03312377913716231
Ni 8.089015586373645 8.973744624418917 7.428436789840409 0.8264284035805445 0.5722843691691305 -0.814184810326501
Ni 4.216263541164621 6.221458669193314 2.7520826939853906 -0.8446868355701002 -0.5777088826188116 -0.37763360502734317
Ni 6.474992576326358 1.8235384422641738 13.062934020821404 0.5431103187083357 0.13986055577478493 -0.8520558743406617
Ni 6.491041936695913 7.5656684782083525 11.041110099928439 -0.2547904097461612 0.3469346332815896 -0.3530528303641855
Ni 3.381742788653677 2.9593640920282014 -0.01925463377287332 -2.2624774508868324 1.1867165753509046 0.9941841431037007
Ni 8.994263892604863 5.698617414793252 4.655501883918139 -0.0701378944676663 -0.37550498872011456 0.3473678641642663
Ni 0.21419228020996436 7.231483086215349 2.839284525238014 0.20739520829164926 0.17360808453887522 -0.6343484854897269
Ni 1.093674235108628 1.1890690578897325 8.458504052774957 -0.40038144024682015 -0.6517977913144258 2.151319405253063
Ni 7.586454469288692 6.0124766827652145 6.636269793490957 -1.1250679493011722 -0.20717100809598513 1.319555705502534
Ni 6.8474021182883416 1.7324019884521835 10.407677255905657 -0.5847300511316511 -0.38893463186245925 0.3740029502532914
P 6.798978116944096 4.606515925027429 4.777178109138214 -0.7096231869633263 -0.18825334525587578 -0.355283262356601
P 1.184249651108273 5.12610132064765 3.103569204483363 -2.1651478264957227 -1.4127774783728573 -1.4282521769696888
P 6.034301973399572 6.931502606093049 8.76174499034769 0.3832046713572175 -0.560678409499086 1.0430034785992488
P 4.713186688102559 2.7397775712126524 3.2757112407909736 2.24535776048741 0.43823784897296136 -1.6114707880151342
P 7.910890679624545 6.77044796458515 12.5467764742612 0.02840811882904785 -0.42686071748427135 0.0009052854230887634
P 1.4337551228018517 7.267968938700177 0.8206051752965385 0.7689992149287983 -0.6145327363153804 -0.14575403844108445
P 3.058299891165912 0.415197412627454 9.322769006681396 0.17453599566978328 0.4467178614195146 0.4928457661258286
P 3.3717176867609466 4.182316154847126 6.614045338249127 -0.15900910367877777 -0.3997240091684793 0.7529395903627741
