# total energy = -340874.37009799713 ev
CRYSTAL
PRIMVEC
9.19587132914188 0.00000000000000 0.00000000000000
0.00000000000000 9.19587132914188 0.00000000000000
0.00000000000000 0.00000000000000 13.45908722311718
PRIMCOORD
 96 1
Ni 0.9751393706773155 1.662539933643527 6.871335148685465 -1.389043367980711 0.6416573604463143 -0.9294255106700767
Ni 7.428902885491562 4.027138648837206 11.986918255175086 -0.648520920335367 1.4035161076755893 1.361094448176269
Ni 4.960491981092045 5.319443614847087 3.8000787967886684 0.10938372734216645 -0.31944851204617886 0.25830896442238094
Ni 5.0925079070588275 1.7492845860289168 0.9982899762513873 -0.5668665405876688 0.40358837721989205 1.0131534851173518
Ni 2.7097197587666333 2.1238967883212547 1.1281651034187081 -0.9604900932853652 -0.10669923853146786 -0.9215538212314838
Ni 0.18935126288586052 5.027833345389535 7.263842516200105 0.8103081009799141 -0.7045863958703672 1.7572641643345863
Ni 7.139711130141648 6.32678692622764 7.770981015307035 1.4195471929965229 -0.779330421651477 -0.7190318818717358
Ni 6.84645479975152 1.255309976447025 12.999836103635678 0.9092081551819374 -0.3989362231598613 -0.7685346165875538
Ni 7.033719519477596 7.642256291618291 10.111125150400166 -0.024916303625705474 0.5806713076812451 -1.6029360110712456
Ni 9.166858158286216 1.7991813827895573 12.65676390015087 -0.2782782084554562 0.1344013324324266 -0.6470448500104727
Ni 5.493797331504247 2.6430588889328908 3.5791075310164344 2.7843879955891015 -0.0884210090475703 -1.027764035941675
Ni 7.547685952899818 1.1985346680798676 6.355340106091589 1.5700546869621927 0.35389898041456475 1.0850435863894345
Ni 7.3328428156497525 8.101240611544037 6.1870345138777525 0.1599015335860601 -0.41398720395571287 -0.5456071169882604
Ni 7.2324974698605695 4.281533227824741 3.5828493309799256 -1.0360321894877385 -0.5587961048747085 -1.3865974775433798
Ni 8.129453544176114 5.2062516370869085 5.43940927128288 -0.6296891323408446 1.0205664897519715 -0.4717802037047811
Ni 8.363939062163505 8.727635765422507 11.385418163624372 2.159880407449196 1.939614770952782 1.7565931064094908
Ni 0.3957948914442244 3.575133995100424 11.304206666898931 0.9769304982295756 0.7904684405461677 -0.6389170786970158
Ni 4.937971292690496 2.5124499312492596 7.953311230583837 -0.24740131637094165 -0.31173828788611474 2.7585327250888945
Ni 6.6426926872151615 7.6904518522195655 13.206217200270347 1.7346181448002966 -1.488234471060592 -2.458961925803249
Ni 3.241618140895683 0.9882434870399978 12.423733168976513 0.2516480074624376 0.4218686635863186 0.6084052832614038
Ni 4.667704640129634 7.833613173997976 3.356319161108575 0.6046219049595717 -1.7290745892742478 -0.4102123102943128
Ni 3.363113990287793 2.065778882768868 6.305286059934597 -0.007199860182548891 -1.306793520740859 -1.3484392213061036
Ni 4.397621904991407 6.777807621753328 13.338910861939537 -0.09435640069539879 -1.3617498223720805 0.7566440357975549
Ni 1.1549462389155778 3.8868188512384925 5.165530480541484 0.27038440752967624 -0.24740028792967714 0.38544513065196195
P 8.309113278476268 3.294154152671124 6.292096421970389 -0.11643009266598658 -0.2315923743631431 1.8406938908151527
P 6.307475596851056 6.292109296189973 5.531886629731777 -1.9378900749521917 0.30151969548190005 0.37281844302688694
P 3.384172535179401 6.766818555750939 9.694096072925719 -0.39828547694973987 0.15064093421974056 1.1674294449865183
P 5.0077219752244915 4.159366079840017 1.5623573547733742 0.21052012707387613 -0.9688173822041379 0.11723459084515293
P 1.8302818189569896 5.833428440011572 5.85565853888536 -0.7306234433640773 0.06273028914968552 -0.3005372769639727
P 5.133475512950581 0.014132214755206936 12.790843379599604 -0.01618432306934632 0.1049503741611612 0.42007609046227007
P 1.7649727421796082 0.8029945022659916 2.497090987285083 1.2540601949028853 0.0236034983515529 -1.4456436329732587
P 6.133462127425768 5.890350882316837 11.691074206648496 -0.8201109460029489 0.11204147667998768 0.5661905975665668
Ni 1.3299620582942207 0.17778193741506026 0.14962326042266103 -0.663103189024916 -1.6611355022301133 0.5097808513182704
Ni 6.054423615048749 2.919100548564464 6.0275983393704475 -0.059217905121052856 0.9620913763342139 -1.30094914614494
Ni 3.6516988181430143 4.629817651067003 9.302947855164344 -0.38366952680877797 0.08842537992294448 0.3476524852842206
Ni 5.403355938923911 0.4409125939777172 6.674791794987497 -1.3416669355792765 -0.560662468659486 -0.4555801969061508
Ni 2.0823774301615985 5.608690545423791 3.3569251690161543 0.4203049186436245 0.6416218792226885 0.6086719066592292
Ni 9.176155184000372 9.170895145713034 3.369455463020218 -0.843241104262509 -0.03788983306723797 0.4111877868337047
Ni 4.990819964084414 6.999216610991432 7.341783961151112 -0.6061887352260592 0.5378264446015769 -0.9755125348361264
Ni 4.2823792479688585 4.731753882561972 6.7733126799441505 1.2845017992221943 0.3370852512913356 -0.904546745150526
Ni 4.764693492955746 8.782139693620133 9.020266776575678 -1.4567453993133752 -0.5429231423981941 -0.5459246482286791
Ni 8.91165434263909 -0.11380350319043689 7.999422087199554 -1.9790526652334304 2.125611201853681 2.205153677464699
Ni 8.062654736275396 9.038557364256643 1.2421994229745508 1.227744439826492 -1.110726078757203 -0.9930106916208897
Ni 0.09814385424025347 1.83190029227617 1.5803656292105954 0.35534265483962674 0.5691442808782521 -0.6242239954612153
Ni 4.423719787263191 7.80777277611788 11.25125868009679 0.8461636772259427 0.6936116420264183 -0.37156888689050205
Ni 0.7324483768791032 1.7832541339894414 9.31666257737017 0.39330962100170325 -0.14865732813080848 1.3069359598559942
Ni 0.5129925906693742 7.172577173566368 1.9444614332767136 0.06915084796404863 -0.35389383820824216 -0.1812748570555136
Ni 0.8585394030757266 3.6537219097919897 2.7732715045707454 -0.05750863573942999 0.22760896423536284 -0.3585040832867439
Ni 7.756110372099951 2.655537686058617 8.464123480207883 -0.6478974278187553 -0.14872366259236966 0.13421467034291726
Ni 8.28137853114304 6.2424423962076245 11.69866539826772 0.7773876961028096 0.03869150303292691 -1.6102207176581171
Ni 2.8987408898788654 4.635647833364505 0.9801446833343035 0.5414861528413513 0.35025289902154516 0.055273061540691906
Ni 5.880594063046097 8.706659983371082 1.5060850605571208 -1.2313252151992147 0.8335485595650933 2.06200930873232
Ni 0.20791496793943695 7.101989666759388 4.74143437610232 0.7089570141342372 0.5330449640525335 -0.8711807680955705
Ni 3.5229474264279883 1.6204964108293636 10.252526382443968 -0.02178084332051733 0.05903175725217575 -2.145106334463815
Ni 3.6129290254517388 6.836477279573618 5.265463851303969 0.18132730756000384 0.08722287497441109 0.519435343688899
Ni 0.39225540064563047 7.371879288603848 7.0396269470926045 0.9357884767736271 -1.6615741324294289 -0.6836758709699452
P 6.631409353336558 0.3940734243683689 8.442333863561304 1.522832006529803 0.315663848192766 -0.09496189548988163
P 0.763115687516232 3.9594386455655806 9.14627044199655 0.3585855872569566 -0.14413501478042273 -0.24391824291834766
P 9.048167049589276 7.507334470373889 13.204332966275459 0.4978517039808523 0.7949233909937277 1.179155218063879
P 0.002122407057197918 7.245344101831564 9.389435942745159 -0.9710120758626116 -0.17980572870915484 -0.2546168602827744
P 7.580073811025689 1.3908847045417778 2.687712199974232 -2.6788686362983474 0.5182708910671526 0.25293690147719017
P 2.888331163757773 6.977845406481346 1.7965458461232102 -0.4792770263024585 -2.4130271109443475 0.4301144485348786
P 0.15621302167564208 9.33224590058996 5.521792321990501 -0.41514471459892377 -1.0111197425167746 0.7850868645192801
P 0.7283120740440615 3.6747068877145446 0.3902350677579945 -0.11257266659310936 0.10852472177598084 0.018511428540626183
Ni 1.2286235584228122 5.745709025286222 13.186285149592372 -0.4608838685072514 -0.07078786934683938 -0.2449459128519136
Ni 3.0191516264774334 8.77775326309031 6.9527084927428255 -0.06091380476623703 0.2111968414259266 -0.04778240959060158
Ni 6.042432199093004 6.062387239448808 1.5435150148245067 -0.2867440798346223 0.12445501985299211 0.9283870421032335
Ni 1.8744771756159724 8.624733967458708 9.409893997251867 0.2718337383816931 0.0878121718189778 -0.41379822787335835
Ni 7.121751593821425 7.153495740968077 3.7110471312528235 -0.010684990517671921 -0.15320303851996195 -0.6885789646985173
Ni 1.6870193425961304 1.5151393152733994 4.484513691314905 0.8818724434814619 -0.0238202423480493 0.3527928918345795
Ni 5.5604582013379895 6.160829039913728 9.53552063195634 -1.7941232421444648 -0.5980169980485444 0.8095676232694639
Ni 6.034882388893871 0.7774732011141657 10.589596440841113 0.050923783433060685 0.185198617589952 0.544746568760178
Ni 2.283776203817108 8.25367137142321 3.638421819403056 0.0852698650130983 -0.39682457613349725 0.2485418577332881
Ni 2.5088819332501577 6.544333649590426 7.80915031761341 0.3861982067679026 -0.5526421694581708 -0.33856517827097177
Ni 3.3938925709656154 3.1745710444744093 3.075548984541078 -2.5534677075923184 1.3155573829764182 -2.4991986618361084
Ni 3.2800844698396125 5.30152086201139 11.83684991458965 0.06521011814874576 -0.40689944387099597 -0.4394053869185013
Ni 5.416257746121695 3.5434910025362205 10.473403850330659 0.3860735082645803 -0.3886160721807759 -1.0398299659672736
Ni 3.543868033252621 8.66289683265529 0.9107572377100103 -0.12091718190306272 2.7135129658450943 0.11264362904036086
Ni 2.3781626251129464 3.828222760387257 7.5392423040266845 -1.9113146384565083 -0.4630531082444283 0.5491372416287058
Ni 8.527524413725436 2.358189193014879 4.4773271180254754 0.13199992207978556 -0.8244455688225607 -1.8876111241919813
Ni 1.980919383965478 7.501118061488855 11.653980821264529 0.27851372150503007 1.8954249638094456 1.007365160570349
Ni 5.3685219790770065 3.082667508384132 12.599145330400933 -1.7481766002110215 0.2806677917335554 1.625592572128497
Ni 7.136060369302361 3.263623860513858 1.0123762116509358 -0.19611089362708162 -0.23935890568243934 0.7557096969087437
Ni 7.94796383152075 5.53346831956643 0.4104393162214674 1.0224387670740198 -0.14309320377946969 1.2007242024839062
Ni 1.2254785704957685 5.753019742835928 10.515517261765423 -0.10105103910675499 -0.9801392349748604 -1.5316501190420653
Ni 6.346539657418545 0.4297451280753726 4.336086813726478 0.04024213534949844 -0.04132868354545786 -0.5599024505650099
Ni 4.156938369861247 0.8535175378507016 3.0281865698643355 -1.5501741459881817 -0.05003495307020415 -0.3993730535869638
Ni 8.044704395826304 4.9339435011348085 9.493488144187534 -0.06787095281036054 0.3746765792815483 0.5707828449229396
P 4.033171140299605 3.4449756351022467 4.885770010624249 1.1709017198058351 1.7618960066796432 3.1919232732718834
P 3.1620278762507614 3.1909948703156377 11.663510502518315 0.9418573086755263 0.2734987847889419 0.05091015658630586
P 8.893897115483764 5.458595536812074 3.267691194315411 1.1893635260554485 1.175364640673195 -0.7207974584125908
P 4.018347396035294 9.219320603092603 4.988650658084445 0.07435244676964614 -0.5511200763866896 0.48396671846864386
P 7.497356950195988 2.2820749676577425 10.966544394400906 0.8012817291115878 -1.0656834366952679 -0.5866205832861445
P 1.3920525801755046 0.5802456746039985 11.296292700202985 -0.372652606872984 -0.10860751129777425 0.04167783935476048
P 5.947861860374531 4.3532702185231855 8.534595119038606 0.4774379162111907 -0.3426455189879325 -1.4811521102925138
P 2.5916631651777817 1.3687870262122865 8.185722160043914 1.4837165285855802 -0.2770034555080907 1.5914588636695817
