# total energy = -340892.8385576978 ev
CRYSTAL
PRIMVEC
9.05452185929893 0.00000000000000 0.00000000000000
0.00000000000000 9.05452185929893 0.00000000000000
0.00000000000000 0.00000000000000 13.25220798618403
PRIMCOORD
 96 1
Ni 6.472462126351281 1.9757963172511013 11.507144015541526 -0.2506568471937619 0.6315061309449254 -0.7533720499145026
Ni 4.62494122338496 0.538343853789305 6.194440309577193 0.12372302678297402 -1.1083894602042266 -2.432505274273617
Ni 2.663034543002134 1.4933804354356959 4.664777498721116 0.7253387979263701 -0.10822827358148458 -0.3115369705085861
Ni 3.412477335431818 4.135879322364005 4.662868805466989 -1.7293725801306412 -0.1060261237238432 0.6656321260943568
Ni 5.130482354588615 4.664690575309164 2.6125139316134587 -0.2521979664286366 -0.14244811399630308 1.0196956571112439
Ni 7.317701762370501 6.305768374887822 2.809918811062455 -0.43314089406602824 -0.4807525824067205 0.22114649643947074
Ni 5.196335893664863 4.492591274164896 11.524465316277517 0.21122435222975236 0.07102492505830994 -0.014551415451613649
Ni 5.561767350227261 7.784580084299362 12.408891112947666 1.8819683240839071 0.31980409561338474 0.11240888732173544
Ni 1.8149698960944498 6.574995534367153 0.39132286244559955 0.6137611482566784 0.2022118643184969 0.30084452379174637
Ni 2.8871882915751588 1.6866039365888847 0.1422257164509815 -0.498259223831916 -0.19904452233410883 1.1340452130991179
Ni 0.4643394339380752 -0.018834311375292796 4.5886832951741905 0.18536445374385493 -0.6900393512941277 0.9274398476986156
Ni 8.626867946121022 2.4444040528969375 1.3055045350220138 0.3559260381469225 -0.05277549192981879 -0.3363067212540982
Ni 6.969428625146685 0.5901981962801296 4.486826259957575 -1.5204938453149297 -0.9686628589041445 2.098025578925929
Ni 0.5804790722811684 7.387656999948268 2.3655455037594737 0.7709347413886142 -0.8071914097278033 0.9304452101838427
Ni 7.536513342917266 3.8830770659349025 3.894704883187992 -0.5086955886738918 -0.01532068951747039 -0.18801114733808263
Ni 7.617985932578766 3.9434073465433235 12.803409316234735 1.014945029800136 -0.8820339087599907 -1.115346351138034
Ni 7.858981092217626 -0.19753798092354946 6.811714243228382 0.03453762876555342 0.7701600680061187 0.3720543111673528
Ni 7.129259048874712 0.4579514686117596 0.17505016988961977 -1.8462652142553428 0.005096183575984771 0.6726088145225062
Ni 2.09857563663429 6.47400139510461 9.44643891750017 -0.8533470823482593 -1.4721704756191936 -2.260513385181926
Ni -0.1919775989152002 5.007549108330093 1.4652969297573113 1.1000855683242214 -0.5057077096901613 0.5186097624638102
Ni 6.410846103607726 2.1418109795586795 6.983728431865112 -1.2310753039719378 -0.8414804128176605 1.2368348321635343
Ni 3.450913781654652 4.477732803434232 0.6243165409237722 0.06355895569856795 -0.15810587513821803 -0.5279960887747165
Ni 5.930757233966471 5.593575886288702 4.977462742367965 -0.2970403195543078 0.04378228729227298 -0.35823154635164756
Ni 5.526065369672105 2.8453745086170787 9.276691981191874 -0.22626324884074583 0.5165569936998394 -0.018171785813020317
P 0.2432696555849558 5.650818574868386 12.598172275187915 -0.12593828926673795 -1.227530524043473 -1.306345377459847
P 4.101752828650492 6.218446563963672 12.607686766987905 -0.2676096729980165 -1.0913116787863335 0.9691223150390664
P 2.263702955778184 8.541429475789181 1.4314239626619933 0.5099556863332378 0.15816423917997924 -0.21164061383156452
P 6.317321945059868 7.819059704373934 5.78906845067474 -0.998767648709325 -0.5456240862691248 -0.5528100624946028
P 4.799367536703378 0.9867980341930243 12.44659323742994 0.0431618800994547 -0.38504275300722074 1.0906038540860314
P 4.152249898281763 6.2545922161006695 8.14076506291529 -0.7127627610335725 0.06779536237741872 0.6396123049918274
P 4.903748067223244 0.929863199364006 3.791165517769209 -1.1571841131094265 0.6576876744362995 -0.21096158548666893
P 0.2567636098384046 5.485664092158257 3.79924939508081 -1.042251945145205 1.5893752416676756 -1.1603887360896532
Ni 1.1944001164067224 1.1251330225069147 2.6230760316179196 2.5690437076537047 0.63460662424712 -1.144164818031623
Ni 1.7435659349841386 6.645394443526761 4.839732596128913 0.8016499110842839 0.10702011220599633 0.4278349084720825
Ni 6.066701828451663 5.576806911399493 9.171124402827528 -0.2294215919640694 0.13650192371519718 0.5550700621733731
Ni 8.864349951193462 2.183588544428446 10.055284902000778 -0.24742625607160612 0.6853149492352649 0.2649696642720082
Ni 2.5037202270325762 5.093431250243777 7.110776958408269 -0.3613351249776358 0.5386414843037046 -0.5138318814591925
Ni 0.6875306868141652 -0.21535456401722938 9.186099676893004 -0.27365099409608995 0.5810898832759024 -0.7392129848053011
Ni 1.554924022002623 1.0088729590201786 11.38522397030358 0.00733689998104543 0.42076823143328823 -0.1125613537391997
Ni 4.04370428760583 6.829391386682055 1.6111634695360197 0.5759733879849435 0.5158386274765762 -0.11405465045527453
Ni 5.652910169468497 8.056387782571038 8.105872556633944 -1.070074623784428 -0.703978329972723 -0.5956958061145353
Ni 5.193112483804951 2.8986150984381074 4.819178831010931 1.6902303627135407 -1.1695868576491535 -0.12731331523739361
Ni 0.6281737673291732 7.459875868045636 7.051142065095469 1.2344298222664676 -0.8123223031964656 0.3559952008219611
Ni 4.98280309948981 4.502533139406987 7.154655172400225 1.0644246245875022 -0.07705107664773182 -0.2539673996242336
Ni 8.131440716078949 6.929851309141971 9.209463060211915 0.38920562613565873 1.253281664865648 0.06911433829915839
Ni 4.350552986320938 0.25996981610636827 10.342898174012522 0.26070163302427357 -0.41920088694616836 -0.3754170569919986
Ni 8.261019981543019 6.923051363061089 5.06661085039533 0.07473656958194225 0.6123596399234615 -0.8944685349789175
Ni 7.303286963221679 6.340447194448117 7.087625450905992 -0.35381953332688093 -1.2865124018943197 0.2755512964425964
Ni 2.3005910787256107 5.2818649092174885 2.6444782054546483 -2.3769411638550673 -1.1546451487376566 -1.1023193427507467
Ni 2.3987330435334564 5.416080089985704 11.542606956713813 -0.2980366220293061 -0.46783304613157495 -0.26050520074275135
Ni 0.789662979501964 3.4690499893776994 3.896136403128588 1.8657053252578257 -1.4221900299360088 -0.8649293878692201
Ni 3.6919361048597477 2.6872644440839495 2.532377789410732 -0.7035235018234915 -0.15051752126799886 0.390487835282192
Ni 1.0924733613701034 3.352934798244218 8.132906643203443 -0.09547688745308718 -0.6480136416816452 -0.1465017152403864
Ni 3.551663448821078 2.721508646584481 6.812456714038811 0.578055724435269 -0.45263654089679467 0.569398048760271
Ni 4.182111712096347 7.052087357200455 6.046677752875267 -0.5907240639315569 0.0024278927152022703 -0.4489529213976204
Ni 0.5719107780383725 7.4880444862315585 11.308003384210098 0.4766976956110564 -1.4805517577043534 1.0998945353593381
P 0.4114510650258966 5.451365562525254 8.0594898618351 0.3058026391279701 1.3776706073673952 -0.023097505249411832
P 8.683820889994198 1.460639283600179 7.967717753309414 -0.8059634508579732 0.35373108737813275 0.683201759547004
P 1.8700666629415519 3.229702752757109 10.35595117304075 0.1772677927786495 0.29794303387423526 0.280673191050194
P 3.6843393608359642 6.007756889721238 3.906817117372276 2.7683476542967873 2.745265575666343 0.5885311700452961
P 7.169633162822325 3.90218210752034 10.494887381620648 -1.1734103451603017 0.5336836260777971 -0.36935748106148003
P 6.405621644368486 7.866215655358273 10.20747330909463 -0.30568102594844127 -0.8265551589663958 0.9774061523144134
P 2.3503456775464535 8.575202843141637 5.792487438211546 0.4101896845864936 -1.270962369974863 -0.8653880726731935
P 6.976599806632783 3.869748809435489 1.7663471125334085 -0.9088176046117379 -0.11507640685156954 -0.6306640946596042
Ni 5.142035924760662 2.734547158377387 0.5320699754411773 0.8509598130630054 0.3541221521689643 -0.44009701366888726
Ni 1.504372625238881 1.0628469651295582 6.857832545982537 -1.0900924616672516 1.3293251261844719 0.6732701022555889
Ni 6.803921016075497 0.7109529245265864 9.25922490265042 0.44352429418288136 1.0794303539677153 -0.8083286086560401
Ni 2.694843079063575 1.6598659328913514 8.977018991223902 -0.14026884695679714 -0.025288342253143546 0.8555590023979136
Ni 6.498602531591639 1.785171463934415 2.397165705761684 -0.37934750239465637 1.1566611507264208 0.3472465080950536
Ni 4.309662764614855 6.77601497902985 10.437478995286927 0.3888914373293496 0.530590331864454 -0.076097711595527
Ni 8.062191731223297 7.126832436957699 0.35250431539105637 -0.02656515208303812 0.6434807868082983 0.08365984021350108
Ni 7.70624941379907 4.010736772718352 8.265919383439645 -0.06549396793775172 -0.5499183427691046 -0.5012105931507561
Ni 3.3230096027750853 8.360646887971724 12.726466703969063 -1.1814213883902365 0.36821076905154654 -0.48607785127437575
Ni 0.007737994568205962 5.005086278324768 10.182665729504212 1.1920009636782956 -1.159728476797835 0.8437057026037534
Ni 8.384568935302871 2.2321570008570166 5.890553345033933 1.8052072678727684 0.4285525033643974 -1.0841282736640168
Ni 3.859480981398576 2.4976808608062795 11.190602450941485 -0.5755959500408668 0.647073132145247 -0.04183287687538602
Ni 1.4565919122311315 3.502814302208076 12.591625855725228 -1.4462509275399544 -0.37410116639405255 0.052527123364438565
Ni 2.8984158989523823 8.401500891589492 7.959607617883785 1.094555896755244 -0.45538453595557704 0.1958329573753466
Ni 5.286663805919044 7.673825170236297 3.723486587041954 1.2816928690184894 -0.04033572350456924 -0.02488647882903456
Ni 3.102794571306168 8.3968015946308 3.457858600088789 -1.1954321008470314 0.36033316607568266 0.451601671874377
Ni 3.6062169443434757 4.410358104648811 9.433584212505457 -0.24816416267889518 -0.3550521201824014 -0.19438285519238135
Ni 7.315338532108038 6.085643888639688 11.536551292347774 -0.5378616687148865 0.0016074536964359413 -0.626734677698211
Ni 0.44317629948421633 9.14171712602128 0.29536032110202687 1.0051105602082175 0.062051003694473784 -0.3210202274086729
Ni 4.603581605802 0.49109645213197345 1.6532923498624283 -0.293395780823185 -1.2876763402954339 -0.8116818413989891
Ni 6.050856414814452 5.314089953294536 0.5024327137741381 -0.979708318085029 2.127454682820323 -0.33331370006404537
Ni 8.118375040719808 9.084583091706536 11.12192933369002 -0.8362137651020823 0.017400969085266806 0.4104115707893125
Ni 0.059566984397211045 4.695638931773155 6.023844059097942 0.12070660855415342 -0.15746798444390303 -0.1680061649710655
Ni 8.122748374883678 9.057872251575239 2.4509694868559895 -0.628998276921407 -1.8458785203398855 -1.3547358529480926
P 8.472868634611489 1.6949159878568618 3.543508040785057 -0.22428787028192984 1.967702273217618 1.5375978519850682
P 1.648022618012796 3.153237313804969 1.61099143361653 1.480222913610025 0.34772036240767856 -0.1460368597888259
P 4.609820171514022 1.14981564969265 8.129196100055712 0.8270045877989886 0.2735664048020837 2.044992205349033
P 8.439991664944797 1.8098903092084642 12.368008134859245 1.8356864102982322 -0.023314249245908237 0.18469288159812708
P 6.468595845423801 7.878185733545926 1.6075987041937512 -1.6841180791682158 0.003446049567071484 -0.05637040836992872
P 1.7458657835920535 3.1052392922673375 5.846025921808954 -0.772789792319482 0.43404566526848476 0.5943048393042797
P 6.9154998916476975 3.97239992623838 6.029635331419291 -0.5823476669424036 0.6387761822437773 0.5211613252410702
P 2.3580329667910203 8.224349167125474 10.423338548157082 1.4241306986021474 1.9188034906343858 0.5722128925012467
