# total energy = -340856.73871801625 ev
CRYSTAL
PRIMVEC
9.39580054478733 0.00000000000000 0.00000000000000

0.00000000000000 9.39580054478733 0.00000000000000

0.00000000000000 0.00000000000000 13.75170383936668

PRIMCOORD
 96 1
Ni 1.622457457186216 2.100299689884572 11.456888826259817 0.32844531622815043 -0.0025366503789246635 0.6796888612977391
Ni 3.6041069767006357 0.19636941445082934 6.733178246351439 0.28544952939291485 -0.5996941286406511 -1.2076705518947521
Ni 3.0397763991925513 7.584318456865543 3.1357873879419498 0.29195622016318107 -1.4799434346963931 0.07589947954179187
Ni 9.241624938592691 1.3000875375314862 2.032405634523888 0.2783260309742562 0.6409371944508382 -0.7545362454259328
Ni 2.06864523755823 0.2869308388341611 1.6906343261458978 0.11411121472482283 -0.8601515068646025 -0.6050492223049773
Ni 5.6836513429909985 8.541412292356927 10.355171069133531 -1.282371640253069 0.963363043957786 -0.4755730950883099
Ni 5.374294607210411 4.406404996793836 5.389898213318561 0.8560883925388223 0.27540628622429986 -0.2841128128593623
Ni 7.827679089012939 3.477244876578859 2.4493705957729017 0.36501000272606166 -0.6055493018698473 -1.1934986312697444
Ni 6.297591747831551 2.878506877159506 0.2123469734240986 0.7753984335869226 0.5671886998137781 -0.8491566984159956
Ni 2.1556879346051967 7.531016079885034 10.508584762258872 0.8548478352635019 -1.1239747162369935 0.8629139001010881
Ni 4.573584477423874 1.2672210269237263 0.4077871431925073 -1.0392710081400103 -0.12515256014064896 0.3204360727704288
Ni 8.191052282622005 5.996324796394383 5.127309075179518 -0.25920345121219235 0.1568583758843621 0.23388245594890042
Ni 3.843962975212613 4.203399328357226 11.037145526764172 1.2844748026390007 -0.5431820524865355 0.01911692333510901
Ni 7.990705625764009 0.4494763105929164 5.134267605126947 -5.874230245827819 -1.098025343361083 -0.8466200480370709
Ni 8.035063200543666 0.41187713520724656 13.689133744407616 -0.7718009460436515 0.8919151724294446 0.4958912378203718
Ni 0.1412574062687605 6.35726447763998 9.039476167173643 -1.486999570212226 -1.2317170513209947 0.9475245342636326
Ni 4.7820491060271815 3.848247460300417 1.9362809565868524 0.6760900882028873 0.5774430305519345 -0.9846206677849818
Ni 6.768575046069168 5.37526237467542 2.9765285672439705 -0.19159012293859262 -0.28996952875045545 0.4608072496330451
Ni 0.7679469729857191 4.404159400442992 5.049928079921561 -1.4298835419255245 1.3860089520297612 0.17107246260121506
Ni 1.0416842285736205 5.693855182476427 13.361650630049414 -0.011227493284703245 0.5605992195217184 -0.04584714024110168
Ni 0.5337425485533782 0.22371589218778914 5.34763872081984 5.564153147694211 -1.4073275110018795 -0.02677546832163131
Ni 2.1228308197980676 3.169100199079689 0.0010814566526452752 -0.3779927881389748 -1.405922660234553 -1.417631464031049
Ni 3.0654081433143263 3.6990703336796606 8.539147904404821 1.6233528841647007 0.19864394446158049 2.188018817556625
Ni 9.177536182487623 3.692089253810717 12.250636667778672 0.2579955469470202 0.2723109351284278 1.5833192652815828
P 2.923456387378924 4.091100719213731 5.723445377404105 -0.3012173337501329 -0.24352846367909667 -0.09241727469115696
P 5.189357063387501 1.0171142099231654 2.716319385404798 0.8958936974612184 -0.32640026077366363 -1.6033047072645743
P 5.680701061592818 8.801271950412621 5.419697934600313 0.044298821917375324 0.17638847549748976 -1.809335431108529
P 3.5263097474747203 2.0351492083081832 10.532636132714488 0.7202241024076241 3.133990148400525 -1.4855502393602091
P 6.728022770545128 2.4593696068045703 11.435737939459036 1.8816410226514755 1.0422231487897986 0.33347593667352243
P 2.2786037984618908 0.8144035696263734 13.258196288040022 0.02768049663440394 0.20665267369866988 -0.0762532633367848
P 4.959216322728131 5.435216978502782 9.191308547052762 -1.131080216933523 0.14673414296616663 -0.6534954907318229
P 6.2412075482440255 2.062321863733467 7.4363712405474045 1.5033224757419656 0.3125237599018876 -1.553861622142098
Ni 5.610298327463617 2.183659233084128 9.474167245893382 -3.63361025713571 2.3105807341519626 1.4537024987219933
Ni 7.204474424750074 6.770914600426325 10.422609428163605 1.1599488203387571 -0.5848791751150056 0.1282970193069016
Ni 0.3020383466689859 5.4269298823461085 2.545949090880421 0.09402807082170257 -0.11891609231263392 -0.15305828541198158
Ni 5.512488042893354 8.674146767873172 12.957694154774227 0.8536697557950007 -1.391852555294732 0.8493929827965178
Ni 1.7014667446935499 4.8057547110195715 10.77286514451152 -3.0406454767990927 -0.9585643370175619 2.2518940189440313
Ni 4.590966708591501 8.47268201074007 1.6641071622239745 0.7839242116697467 1.654266285914106 -0.016140100094972205
Ni 5.8927173028347 7.407592842794258 3.530928723064993 -0.04773073041705973 1.2379198376975973 0.5716184534503574
Ni 5.929135426081034 1.6517629593547707 4.78775235701029 1.325979863861323 -1.391066826168643 1.760760607523619
Ni 5.203854783761364 1.0642435458890098 11.641463692178364 1.7367781285660928 1.7297821568642338 1.2097207495555617
Ni 3.8379308712074147 7.959549150871118 8.831330995791793 0.035215371558868384 -0.6884516950920337 -0.6306347840835655
Ni 8.852582417659328 1.6989862533269267 7.005090837456772 0.3972709196422965 -2.5179044657757284 1.339730380678196
Ni 8.174966671941476 5.467510345272043 0.56998497032791 0.5937456243667 -2.165451987999703 0.25283945666737745
Ni 8.643121834189119 7.44807934771388 1.7178079211512445 0.047050159410267356 0.8426109268776778 -0.7785128108461882
Ni 3.399391272549156 5.959831506742999 12.680515217415136 -0.031005704352894986 -1.9524252924538892 0.11148020485987899
Ni 2.5058130493243413 4.87335749656069 1.3486431560331391 1.3267383392939023 0.14253784549663195 0.0009433377498757949
Ni 7.234700715380481 0.10641026088795426 2.38823118148595 -0.5577720344855683 -0.30159657146642255 0.34295096604349323
Ni 0.6633096996768628 8.70870452259454 13.635075945056364 1.9145837961260834 0.035232597950048995 2.345660608574231
Ni 3.311211683625821 0.5348982320310095 3.7030316032257535 0.38279535173394075 -0.44979804300673504 1.0050514248355078
Ni 0.860472119700961 8.93599833566267 11.44056550182332 -1.3968466660752137 2.14198064435064 -0.19428772437541378
Ni 8.862852027749174 1.9283753299358035 10.831969428381766 0.2711724506486104 1.3802900472681132 -0.7933475618661757
Ni 2.3503219446794525 4.522818966613776 3.5804624444123485 2.474921020235666 0.22807176280439428 -0.21065331021763076
Ni 1.5848554630603569 6.8853930353162465 6.56444470029701 0.7256653280278534 1.1829036293627178 1.484501743491037
Ni 4.328062811131314 2.687217772109939 6.791911396096753 -0.48785576911040496 -0.30388485327996695 -0.6606218173639591
Ni 7.778078657481103 0.12057818865966416 11.215064407515614 -0.9637607936168371 -1.5003104283885194 1.5507207625202712
P 0.6074234775227871 2.9112794297609543 8.691145650375049 -2.137475557391435 0.7687580454522697 1.2307534018561448
P 2.421701842074293 8.500803642029101 5.0236489651363 -0.05006760608035248 -1.354424492355261 1.3987515964074102
P 8.586925550614215 8.166463472370287 3.6695045678336236 -0.4272713226591287 -0.19370845483317609 1.7059598576336554
P 9.05005395952419 5.809198031024415 11.650745803621875 0.009964310301563485 -0.2919217673808198 -1.4298200356774406
P 1.2596668032162823 7.9421575239028614 8.492818151072687 1.9330484305891742 1.4307435759329745 -0.5817141471234626
P 6.8794924725198845 7.17386290629379 0.3113505246745179 -2.30309753840104 0.45203515986736986 1.4464157352525928
P 7.526177242559992 8.705134118354703 9.292961714081166 1.4572007416832387 -2.2244991718708462 -0.924975445318523
P 4.175277697068197 3.994173639902795 13.402548671036683 0.6780662380926515 -0.2236885461350341 0.6647515232616166
Ni 6.144421405942557 6.660485755608428 6.8161008848216476 0.14699331016482428 -1.6124128402134295 0.12076625814749525
Ni 6.580320784623463 4.2404563660464785 8.105377614146933 -0.3320217207254992 0.1915253311389282 -0.18197291156380274
Ni 2.0998298998530145 1.9036267910733564 7.789611063175776 1.4490169203208658 -2.479880164013155 -0.2190245650004615
Ni 6.558578901962983 8.808440946294187 7.2593045589132075 -0.34681893363933175 2.2738784936349226 1.7019916170145268
Ni 2.476733046370934 5.8256500779295575 9.125190298011365 1.9269225201970943 1.2235190888912348 -2.4115749518788534
Ni 6.310435807294332 4.523335735648488 10.655136702183286 -0.6509835229432467 -0.94705119417164 -0.03454379941314051
Ni 3.288342304889604 0.156346122502323 11.17225526067997 -2.030570116386432 -3.496716754409049 0.9102975315913743
Ni 7.4657434529004405 1.3478369963389867 9.04054916760572 3.1247370052333734 -0.5756355450295505 -1.3160024409336368
Ni 1.0754245486400773 6.770604539005497 4.4398061284575085 -1.1353865576183606 0.7012964122651857 -1.8619322313686386
Ni 2.9945638065554614 2.396070097952518 2.23624752921667 -2.659578677720484 0.12071535030490177 -2.318909308622316
Ni 8.504693503490397 4.249936728883308 10.063785681220143 0.7790787106519872 0.3267414461631663 -0.948894675138282
Ni 3.821544594906691 5.545805551931409 6.979305941784709 0.21456910033226914 -0.40417227474782 1.6775427399435432
Ni 3.1607003533154416 8.022172162077728 13.543420849479565 -0.6580527710852022 1.5753267339944095 0.10527047650474128
Ni 4.362554795248263 2.669769770337895 3.792307682082744 -0.46813283676018086 2.3462537620735398 2.5818264612406696
Ni 8.428568726776826 7.544376908382528 12.741641477581204 -0.6333547541178899 -0.31509563439412186 -1.6082715643515464
Ni 8.456305130239977 3.661985108588515 6.499949106024612 -0.6862678000668375 3.3381470522605348 0.12767841188629622
Ni 1.4824600277820927 2.3554802392259537 5.712925839017471 1.0172734208229965 -0.2185867061320945 -0.4554349295775382
Ni 4.865136171008435 6.157237278003444 1.396870861092765 0.5331334100012818 0.2121088117172347 -0.3178929946336009
Ni 8.93092460332185 2.42935941958868 4.279021429737031 1.6429742579400541 -1.1400592805036815 -0.1377936459434272
Ni 6.371762198013844 5.293302805769905 12.930892633473874 -1.5207918361713229 0.1291683661682614 -0.4416412182275555
Ni 8.768330273399812 8.33867910213862 7.022541657969005 1.1353536474978965 -1.0893008190038918 1.0333893525482525
Ni 0.6591642724383997 0.504448321345581 9.105016574476224 -1.100348077956989 0.003747897078206449 0.39186980323138315
Ni 1.3718056837490482 4.731415136425919 7.360421225725573 -0.9859213888742762 -1.1835199227904778 -0.10926879903085698
Ni 4.327414500887765 7.129805997134331 5.451244335219397 -1.260572027879474 0.6020371749515309 -1.144443011393674
P 4.442174809796621 7.299080741305115 11.482123128014894 -0.8004283799723569 0.6758985410173715 0.10857691517015494
P 7.305535656338715 3.4588197115411754 4.67944320481478 -2.9307611556714237 2.433404646159435 -0.3974485828707413
P 8.623409444464967 3.0074830324232913 0.44980986151532215 -0.3970942848551161 -0.9788984205892238 0.928554163808717
P 1.9272948128632212 6.8661786230255455 1.3948629784978885 -1.1955115479347154 1.3346308546681014 -0.5308309871203504
P 4.136435457259026 0.7046061226108898 8.759340371355929 -0.5060458097558704 -0.2592430462008761 -0.25215348634394635
P 8.058515118919013 5.872037145645541 7.530584812636064 0.09712933545484563 -0.5528409157325382 -1.052149663874891
P 1.4146129514245642 1.5793119406879788 3.6584616833518337 0.27636016549713693 0.1647238946753679 -1.5534106506476086
P 4.486006219740933 5.564578361592445 3.7587120573460067 0.35858121638158247 0.5098088763427284 -1.5330374863078953
