# total energy = -340887.074258959 ev
CRYSTAL
PRIMVEC
9.16469155933901 0.00000000000000 0.00000000000000

0.00000000000000 9.16469155933901 0.00000000000000

0.00000000000000 0.00000000000000 13.41345247831756

PRIMCOORD
 96 1
Ni 6.671473822660776 2.4342703631441265 11.44085625299673 -0.15070341202655982 0.05467373739379617 0.24341970601537435
Ni 5.031837199104076 0.635992930044161 6.084569729598509 -0.9045161490229068 -0.005108524871158944 -0.47525479251694286
Ni 2.42009258542238 1.5716896009135017 4.583752520849074 1.6214644088927366 0.5297377540561715 1.100426496603408
Ni 3.608707247104285 4.541187111263649 4.830211237105537 0.7710239586683109 0.32397751026478394 -1.1671183415040027
Ni 3.876856955158958 2.898535304209564 2.7721853686319107 0.38396108990726774 0.12218165043778315 0.20052419220342885
Ni 5.353013812070207 4.840799205174015 2.216036147242971 0.09866994046908814 0.5353142197026846 0.8344127073376016
Ni 5.688624814119564 3.126791110245645 0.3882465746345583 0.19436562880120076 -1.3048376825660688 -1.2003925301761005
Ni 6.0081517826190405 8.231432618478069 12.388892264476645 -0.3102223654622206 -0.4439822076559064 0.8284315500535022
Ni 2.092968087684812 7.019475487593004 0.0514624920755804 0.09557921735890636 -0.9159279904042742 -0.2526273406565714
Ni 0.5059899484420163 0.6837134785878805 0.5218851893473797 2.1345936078579495 -0.9556970427720961 -0.589508703467217
Ni 8.058256608245282 9.06222106595967 7.197403390358903 -0.7990376702724175 -0.06530216364191979 -0.8471730923270635
Ni 9.003163794053442 2.640017686901856 1.6606925022352472 0.00602975113384768 0.5414529856105706 -0.08144200662657587
Ni 6.999652259918706 1.1110997011321107 4.627708214132228 -0.3551868459880528 -0.8959860000647086 -0.8495616471638981
Ni 0.6319485516934132 7.600791868259052 2.099513510340837 0.8814754651533593 0.08269979029307693 -0.28796586805686536
Ni 8.08917827730357 4.191838236683654 3.385528680148907 0.24582702990528627 -0.10445543680261365 1.0183252591262784
Ni 8.295264694646113 4.257145828180205 12.709728867388815 -0.5189193232844289 0.5266938250235252 -0.9693627131846467
Ni 8.269191147381491 7.38880338960248 8.91665918762953 0.3508892470539634 0.15860852580624943 0.24927539346520294
Ni 7.40857162912789 0.9983831606022078 0.21657907261961223 -2.085862975421466 0.430057370044698 -0.44697779994912057
Ni 2.276967598557148 6.602738636550177 9.083254949378663 0.5958369596780899 0.14146672391964024 0.4068436509323961
Ni 0.5929472906251106 5.000127366578385 1.1027772447978392 -0.19925072480764391 1.1697197836825919 0.7753423835380067
Ni 6.963030152758979 2.135565573690421 6.614441947571941 -1.3685843287954107 0.629622283658651 1.8952123335780071
Ni 3.8506642669050786 4.45430583601985 0.35299642178959817 -0.797535374695278 0.7144272932201889 -0.8274758710084523
Ni 6.231137891053309 5.536958334793654 4.645816728030352 -0.9872007698073321 0.43126578853050246 -2.0333345665054465
Ni 5.659077848783487 3.1003784693962118 8.975062100563985 -0.10190027448092774 0.18583290873984123 -0.038019930887199044
P 0.5978494840985187 6.12415844739077 12.101938442440407 -0.9847201694773233 -0.5019325589184452 1.9821750129124958
P 4.292933948415124 6.294585050179133 12.542517238372131 -0.6964493685855295 -0.3051313240925584 1.6272172522161137
P 2.504059488775089 8.661036696360801 1.4091638786512655 0.3422068887886171 0.8542809070164384 -0.8809401614751796
P 6.564567696530089 8.278181709724757 5.755671864059288 -0.6981339553768041 0.1722932223821936 0.5011630277422724
P 5.117517899763809 1.0564231517539986 12.774207054306299 -0.05389186492244912 1.9794267607433973 0.1178007477612681
P 4.427361643064495 6.327431304448519 8.133796577780831 -0.39974946308977605 0.1405138730880677 0.6200978891079836
P 4.7769029761656014 1.216841911444658 3.8304662033491916 0.2975645674888939 -0.010277727776924235 0.06472623653379175
P 0.5134756684440348 6.277804500076666 3.784176263145721 0.21541370772075158 -1.0013163832731078 -0.4956883777809464
Ni 0.3450387201762869 0.3841279622828111 5.225867464802819 0.05192908476912347 -0.024275327607596903 -0.3085850869691137
Ni 2.4378812515878034 6.645345287247267 4.902147649950596 -0.6243440659788473 -0.2985881236574019 -0.7634425467766272
Ni 6.405679440316826 5.797941254109862 8.888196405295705 -0.41109059913420815 -0.25646831166921635 0.6146186111609673
Ni 8.94711254095312 2.673138881915684 10.15317860815393 0.3372243479723611 -0.27708161704419376 0.23359912038052671
Ni 2.975775324014916 5.2506350435313385 6.983016511941645 -1.2956326190280332 0.11545872989165276 0.105151948649006
Ni 1.2429521174752045 8.947341658240154 8.881985493878751 -1.3425362255581073 0.6727651375947123 0.45986699720696284
Ni 1.5401630622174398 1.2517685506803244 11.501901346485274 0.12743415708597408 0.6959839989133368 -0.09554219347338384
Ni 4.231035622149658 7.26073599084121 1.4227377032043866 2.0912412090142434 1.1834510172257555 -1.332816170056866
Ni 5.833930997557372 8.101807222164958 7.967818516237546 0.23872281476033724 0.010273356901550049 0.7034021457542788
Ni 5.411218767668664 3.1583268136331886 4.826857876492489 0.9746712698817537 -1.0255312899564146 -0.015530491535431318
Ni 0.6373419726302251 7.701447674799415 6.827648413726393 1.3167516603948355 -1.3335419924792968 -0.6849413679459301
Ni 5.484151382477751 4.703310503569851 6.818942873288198 -0.7406666865326921 0.10366790790431178 0.8601970153905574
Ni 0.794372545880206 8.046654108829813 11.17239952777743 0.15272301355974988 -0.7182569513789242 -0.27053224596145026
Ni 4.891360808076972 0.5124437241832276 10.620851897981305 0.10954313573816618 -0.08378865248188151 -1.0466629297287071
Ni 8.026849210538478 7.536794827644344 4.491105738194317 2.0115858619744453 0.09909622937322933 -0.8437362987313727
Ni 7.418460331236334 6.322143277463743 6.417370837239665 0.4768185374596369 0.7617160510038237 2.7572528299352066
Ni 2.9061969862880255 5.7031050266601975 2.2804749259870842 -2.4500893059039677 -1.2933584782818757 0.9557618345717603
Ni 2.5081561058672808 5.315823494038631 11.310250234695108 0.33420972951575345 -0.3322675181877181 0.2355619005338524
Ni 1.3837217786297138 4.073696198796754 3.7401664981828264 0.01942751259699235 -0.05234123260587759 -0.7868254444769417
Ni 1.378030505219756 0.6002588814889822 2.8315533235793584 -1.4234298158803806 0.928962454990729 -0.344767964647574
Ni 1.2746252912349691 3.6928666089781035 8.319734420901487 0.51361488035238 0.21131742616419089 -0.10218540982151432
Ni 3.9660935561134796 2.8322562554159827 6.8515783396535115 0.5246156023382578 0.3013160641115262 0.5135439179051284
Ni 4.4830554731970444 7.201862012764612 6.0445044478492145 0.5497144542884146 0.009937313718369983 -0.57436310607503
Ni 8.50509030611307 7.81637290597634 13.318673126994733 0.27616579009814374 -0.870203748894282 -0.7031509489754213
P 0.525738942115314 5.882824626610713 7.985135200791677 -0.2148660627473977 -0.8529264498710729 0.050902957497454264
P 9.064218968702619 1.4500374861892207 8.232680849457838 1.5121187338773572 1.5249307980403608 -0.49408478073925227
P 2.016809501474267 3.236382490980386 10.470031319679132 -0.31921916964419217 1.053781028830727 -0.14504621374078247
P 4.4546266002217 6.412791240906403 3.5517211954728567 0.24433090497573406 0.6398617019984723 1.1543654127137086
P 7.29827456714908 4.15802968980872 10.197966455423598 -1.2289011791387545 0.8542719081553739 0.4325210010938422
P 6.826760355121843 8.182410683743988 10.383796155184772 -0.18998986833100828 0.6969713025272706 -1.019437775464167
P 2.420559984687932 8.606314323525282 5.778971259212485 -0.09641508299664041 1.4203321507916635 -0.19491070267139338
P 7.255163858420511 4.395138587815846 1.2680083839853888 1.25775641280755 -0.4336977950107628 0.8640510990293249
Ni 2.9617258519739087 1.8187513538694426 0.4528686472083001 0.6121714351720554 -1.1898967728510992 0.8768467081320963
Ni 2.0533216323362176 1.5803044109060302 7.11287194201094 -1.5123984699013049 -1.503168723772921 -1.3376819827895994
Ni 7.125969202607027 1.1638699946820887 9.006904821116155 -0.793710087411917 -0.6873368647613002 1.8675981714051644
Ni 2.893283935990714 1.7456904333796155 9.181548098455117 1.583214107162286 -0.7514012993413769 1.15444768801487
Ni 6.441100972892489 2.6051918592724856 2.550057991789451 0.47577621223805155 -0.9163149414300478 0.5195775256937181
Ni 4.3852040622499935 7.008670316336417 10.606902321077445 0.5170115647387548 1.1380147392698272 -1.9325671200773815
Ni 7.316383997516352 6.272754755070406 11.254490418783893 0.7004824010043226 -0.31129502970110906 -0.2595112122605982
Ni 8.087501138762471 4.087589871082576 8.070551958336745 -0.3873112373264233 0.3448957484746899 -0.1397217162040755
Ni 3.209181686663551 8.91671325930927 12.411736174463215 1.054172350731875 0.09461608211468865 1.4863868763288917
Ni 0.18035654600847406 5.243834842452129 10.226671185612533 0.024850483384776557 -0.4663544047035194 -1.0702869969055502
Ni 0.047850687162755395 2.6075380202917273 6.275711284542311 -0.14776901198858422 0.7008667809269349 -0.6160468589670617
Ni 3.720708941698637 2.7683691910990498 11.726174177603534 0.8504620474909806 -0.308445733177772 -0.1654846841007924
Ni 1.6525313444710488 3.5247861672089824 12.997984075615413 -0.700569047180858 0.018206238595381546 -1.4279487867966567
Ni 3.2729037865338184 8.692792352343899 7.842872611394846 1.5281575325077748 -0.36984624777244046 -0.35260134464906373
Ni 6.139775081675099 8.240212392917263 3.408626452089513 -2.1837448727716198 -0.44094033550578904 -0.5538942966977171
Ni 3.390120190581095 8.633249351789155 3.4638226394746208 1.0197722759854502 -0.6390842004024994 0.9530629475833585
Ni 3.552271076961741 4.235562979741476 9.147304228734816 0.22270124252110032 0.5512082652251217 0.37603797840544917
Ni 5.086605395397002 4.755393445258723 11.15792664698998 1.0648205744743404 -0.8183003751567713 0.008688528912933424
Ni 8.021469536638888 0.183325906048452 2.4008064086688936 0.3663994268744206 0.15551420315164186 0.30034598688877306
Ni 5.015817318394565 0.7154251440518669 1.602492128982532 0.2191703465497064 -0.46611374944762307 -0.18635021469589197
Ni 6.335917808760307 5.859683780620145 13.343018213445959 -0.659358120160187 0.6906114217475138 0.9944852192838874
Ni 8.29265275757391 0.5136534634587742 11.285006092009555 -0.45139392673894524 -0.3529224754339083 -0.16146039343274776
Ni 0.3243036056995892 5.207341040973142 5.733673855096451 0.198475022983884 -0.4640836063914717 0.545332523170635
Ni 7.872414994385182 6.3557685305090486 2.2523063302498123 -1.3879375365110418 -0.27991394428666627 -0.10608268799339149
P 8.768960103245924 1.8764889102023468 3.7209188131335615 0.4891536619862221 0.6465645679399445 -0.29757973699754553
P 2.2294303438430565 3.599606708463241 1.6897592377376978 -0.9335266773226438 0.21444388760831457 -0.3143489860360844
P 5.051018898374674 1.037543887302287 8.271902063121694 -0.8799369170216459 1.2782005395945149 -0.08709226293381775
P 8.995327982836834 2.2534693295988037 12.591623488267842 -0.5292554151031144 -1.1243495830779087 -0.15109961902371397
P 6.739219222091384 7.978239686921062 1.1327677812016164 -0.6802961558644348 -0.025797677789394277 0.5942716720734991
P 1.9878765704674446 3.538826474558508 5.801854577372426 0.3115850501377021 -0.7913834961612694 0.9706994297181993
P 7.357304344980863 4.174260358422303 5.941891063208422 0.7651924395881983 -0.8636944870208546 -1.000073254894626
P 2.7807965127478464 8.604197279793075 10.404533102599768 -0.36281608039853647 0.29144199953092387 -1.7247350813586297
