# total energy = -381174.7264767835 ev
CRYSTAL
PRIMVEC
9.14299233924027 0.00000000000000 0.00000000000000
0.00000000000000 9.14299233924027 0.00000000000000
0.00000000000000 0.00000000000000 13.38169347630735
PRIMCOORD
 96 1
Ni 4.596712392452351 4.470968822915124 8.560844023081325 -2.0624211994587576 -0.4033191827189053 -3.0407197816804534
Ni 3.064191495548302 0.5020736934328884 10.34063622542981 -0.08580234047780061 -0.1371362148650864 -2.4224437762725572
Ni 4.704224835860207 0.5260895906264778 2.986472406004621 -0.40385191529392384 -0.4420073433177226 -1.3734318866956992
Ni 3.555042166251099 2.541111777901658 6.23295139106732 -0.2600220904587458 1.4222537932944086 -0.14571881432777486
Ni 6.455089525690782 2.007435332479718 2.8478381319890596 1.659779245312535 0.1342817761354268 -1.8330746837069978
Ni 8.57516652011325 7.022878474416975 0.6481531058672797 -0.9359957076884269 0.24171994971544827 0.4297560367541954
Ni 3.7118810517191125 2.510034747954953 11.378841257647595 1.413540324680811 -0.09652178377783377 0.466307610625984
Ni 8.446506336115004 7.196412463351503 4.637545909205801 -0.014222314246969054 -0.7769436665868555 -0.6439302156408909
Ni 7.150331783465833 8.723758426760455 2.0169422156037498 -1.6060681289423242 -0.1773294992545204 -1.5973505465636684
Ni 1.0304974899273844 5.069359366001899 0.657881249398699 -0.7511326190610225 -2.3131040147944484 -2.026919149897406
Ni 2.7826787706118354 1.8734813560898458 4.13654926023532 -1.504546577957054 -0.6633466724942898 -0.9605677406008359
Ni 3.8734102921040607 9.050830681036265 8.17423351893498 -0.4697132938734233 -1.078314495195717 -0.42602330918464054
Ni 3.0643103544448325 7.420360910399045 6.492248473943032 -0.5593661184455656 -0.4456639662337034 0.5024256965047799
Ni 1.2581397057594124 9.073953307907468 4.609217262666563 -1.3142790304846268 -1.7188328569415816 -2.306888115791724
Ni 3.015587349859368 4.509515677359168 10.132698071744928 -0.17617250283194177 -0.3545407277636216 1.3268224143672762
Ni 1.407225333976821 7.844833458885579 8.67199263442381 -0.8127568196307229 -0.21630510918676946 0.3461579030165651
Ni 3.4706066347542404 6.0850543518152165 1.2368913922565752 0.30293663043408475 -1.238143780782945 0.43741329618913705
Ni 5.101487840033298 1.3036443771465116 9.526226952292484 2.748245484230273 0.20067897261373827 1.4292317672741386
Ni 6.433649209355088 1.6480151723635301 11.741057344729862 -1.0204564465366683 0.2308272140623444 0.3525254971058058
Ni 4.532665733206493 5.950039788348611 4.431642071249998 0.026945161130276177 0.8478865734543204 0.6587197152452396
Ni 5.56964560449081 3.477820455474438 0.7093023509354052 0.3077811030105796 -0.21092199049798516 -0.4513473897717259
Ni 5.809219424936091 5.805991948745686 9.809450331039786 0.8688639470369359 1.2308184507661253 -0.04613767489832699
Ni 8.214612628984002 0.06539707917028456 8.46693178033417 0.8954761503078256 0.617193313866679 -0.055434526819220654
Ni 6.995559214199042 6.300353528392154 2.477339408417025 2.2305741744203327 1.2439611587956705 0.32832858814462806
P 4.997495448561152 7.187296900286818 2.486184338917302 -0.5531785015776151 -0.0661989644245763 -0.36459322690361723
Ni 4.52006669017426 6.410563154452049 11.770109201939528 -0.4734758462396491 1.7319866207147203 -0.5550908881089796
P 8.115557453213892 1.9629272472250665 7.36035911083204 0.16895078827252194 0.22005480603718874 -0.3470642168809184
Ni 5.154864627567532 1.1678526593564371 5.32743951663698 0.3738034326479756 -2.5591277340915735 0.806266841031005
P 2.1687542840477274 3.8986358071446485 7.815363766939647 1.1899268547580863 0.6401424664636847 -0.10331978053627369
P 4.52109070528283 7.62035471829967 9.917025861092725 -0.3109114211094452 0.6583114240632275 -0.18167492070740968
P 3.8376246212563396 2.5957960132977282 2.1920286845868073 0.10440067230527826 0.07973325146558526 -0.9241722326909373
Ni 8.837213814994836 4.8023565694341945 6.075783357885838 -1.5764562196131624 -0.9224333956229597 -0.8660231351540311
Ni 1.2676118455136889 0.896847060873267 8.265805155719688 -0.3391521611226933 1.4252383298440294 0.10518151633536078
Ni 7.818154208110502 6.735057084972351 7.127304243711856 -0.6484185904295477 -0.8775815294155919 0.8985185366785752
Ni 1.7825085852838098 6.439281292452225 4.608708912309093 0.5518222446600367 0.5865069405264157 1.3473575582061506
Ni 5.461804013369484 4.787316347527066 2.5745842717630545 -1.862187541912554 -1.4249807053072685 0.13249691632086213
Ni 3.3967952600088007 2.2289700296284862 8.442162500596417 0.23618796415362547 0.19418308047674945 -0.24364133510787714
Ni 1.0376655956873775 5.562413497786531 9.707762887861128 -0.89647270989314 0.7997262116990098 0.22913439974095376
Ni 6.995668930103532 4.530407414172413 7.95391758262525 1.0887611444503378 0.5872906127699756 -0.6108061793934125
Ni 4.865818077189441 2.810473466415891 4.158614957226605 -0.2131033144200201 4.687519841124501 -1.4715886349737946
Ni 4.583007047383179 1.3844044258429653 0.22056371139403452 0.6526002326110631 0.6450087934170504 0.42964393665636336
Ni 2.6742428850078572 7.992821928058091 2.7136601522941874 0.323041885824392 -0.945103583526966 -0.15190565986477708
Ni 6.89376114081669 6.345547338049866 11.833712426071408 1.7139575311271515 1.642470064610126 -0.8317295040784836
Ni 8.995506436197338 2.303768847514333 0.74526813872633 2.6578244140335388 0.3662377044855757 2.2996139507278137
Ni 6.7687855826108905 8.44736577736684 13.131562889161659 -0.7057354218731459 0.017915446827840114 -0.3427123676701259
Ni 2.4820114773498774 0.8038966608888046 1.5110604659858649 -0.5771015880521158 1.0756603454023217 0.29458028804958947
Ni 0.3573821871902918 8.573667069418557 2.350079930799432 0.3839886007110935 -0.8056716306491672 -0.8801714016299551
Ni 1.74515031980507 4.016525546518822 5.2891011224114655 -0.5843906655143613 -0.7128023560222563 -0.8909373818972075
Ni 0.17199979487008085 0.14930231712877595 13.151153578207497 -0.0054813348295453986 -0.6382542483020364 -0.5113322549657904
Ni 5.793667195474678 6.0289712386369025 0.345440525285793 -0.7231129939196449 0.16040341292314308 1.7043889136021098
Ni 6.062206014705238 4.275674512923473 11.654263835585681 -2.2954022266393115 -1.0748350212875488 0.04577746334543084
Ni 5.805086792533647 2.6095196443509803 7.427414728758527 0.027931179192629316 -1.6495930488081525 0.13172121449710217
Ni 1.1351390338344274 6.079157121948895 2.4213367535686703 0.6228255724517918 2.786234818989853 1.1282160080118506
Ni 7.342544905139731 8.774611748491427 10.894839602282568 0.39225881113968575 -0.318668953567677 -0.8652093810034841
Ni 1.1841271851890744 5.898765888983761 7.24566484717613 1.0064647602432666 0.13034798829865937 0.40207271190631394
Ni 0.25302956183173825 8.101660105311863 6.550258015544344 1.9548472716318201 1.2110376685947724 -0.12280668561629174
P 8.332493225366134 7.126660577072182 9.563829335658713 0.23630006425145753 -0.35396531487612587 -0.2214167193817219
Ni 4.873287901686781 8.909086875427624 11.655240307135639 0.8458448604339432 -0.25003566866999516 -0.210463819914644
P 0.905915994678544 1.895095389274315 11.933351839032925 -0.0352128004557071 -0.8548164678049341 -0.013272291628873917
Ni 1.1104163833560838 3.4726912369395446 2.7109172546819447 -0.4050487638155024 -1.3616282091925516 -0.556697313364151
P 0.5086100184428618 1.3998835113680526 3.185953292051757 0.1441653537977259 0.767077315315737 -0.11764776712317157
P 5.357985338746114 4.097623885920785 5.916983300625071 0.48603517096189836 0.7578025748820304 0.13571645169942434
P 0.16200741886868222 5.039827501710091 3.836343688071423 -2.2144333029944123 -0.6567723617108817 2.457466315094329
Ni 3.008830678741212 4.594828936091944 3.2789832360669746 0.8212334896431663 -0.44328723847141077 -0.5611134401539756
Ni 2.217587004537681 0.6135788814649658 6.323987248518438 1.7193123676811615 0.5104693927448628 1.4385507306822194
Ni 7.826867479525392 0.30707013058813565 3.864244442583151 1.29139107014286 1.696313078572511 2.501709601183421
Ni 1.870802459421889 2.4055486349126034 9.986289511597068 -3.065458164967398 1.2050212871973633 1.2857786090520889
Ni 8.0287173148103 4.51995697426977 10.339605810226812 0.11760457259006199 0.8031820314580941 -0.5408073816067719
Ni 6.0801262791052215 7.883416885297787 4.252849033293597 -0.3076494625287218 0.03070617083460518 0.6527763531776112
Ni 3.60815380701615 8.576537968919371 4.689587819902078 0.4126466307674183 -0.07122212867078057 -0.29327185365081104
Ni 8.221223012229505 2.1502122961889696 9.893648144743583 -0.49344251916956305 -0.4339019406017689 0.22410686461937532
Ni 7.848847232391493 3.2922268600380846 12.556203543025676 -0.4846683725213588 -0.7784256504490208 -0.9504795031268986
Ni 0.29947961859585726 2.1310211558953145 5.362833867425354 0.5931175038643979 -0.306142281855576 0.3452821852798311
Ni 2.3045825738059653 7.659313007385552 11.106296893603957 0.06828567175027596 -1.81865439451661 -0.18092030192957229
Ni 7.133837825824216 2.3042442831004553 5.304770382171002 0.02982479667091638 1.165706805868457 -0.003732470459238733
Ni 0.20647253206074184 3.644113194712647 8.347767507869507 -1.107220122486474 -0.3130590635800673 -0.26691624647541773
Ni 0.7408941313340076 4.056873570394906 12.011019727821177 0.31713271942880866 0.719544045621464 -2.6479326088411237
Ni 3.423108791102245 4.991214213029117 6.370622908020985 0.7401249550966092 1.1649498730977743 0.5957451712952321
Ni 6.920339818679318 4.8251043336317245 4.564375458202422 0.10664884490950664 0.1395121712964307 -0.1839259215251155
Ni 7.140621925918495 0.03301534425935627 6.153102898677336 0.6528838252897531 -0.5606840659260408 0.7807208742411006
Ni 5.450137555525413 6.4134706259210255 7.289048344409761 -0.8766410198791934 -0.10215018570820472 -1.5406278970606435
Ni 3.202314676308782 6.421013594354692 8.603037102751244 0.8609482917342849 -0.04865169956943234 0.8396089068265604
Ni 6.399554992034917 7.969452440401787 8.6735588289604 -1.6550167909268851 0.12684383180014283 0.5178965384468693
Ni 1.7014833898181732 7.293593325753247 0.3564697165846191 0.7296543945825885 2.2994080053645947 -0.5100269058908055
Ni 0.6011855557536511 0.19387440332771302 10.494030945796052 -0.2008365812375251 0.02209914589188452 0.8999244158871664
Ni 3.7508119118288716 4.5610272945170784 12.56278649729506 0.5509904927873608 -2.342019669387534 1.3806042360744224
Ni 4.209881542197821 8.286293686583933 0.6844571843637145 0.6119698606842106 -0.6281752667994794 0.0018290827889387855
Ni 2.797152127012434 0.34627070896309825 12.49433931597996 -2.1807348823007024 0.5120796746547762 1.7852169407937706
P 5.057665479181707 8.62011346898586 6.436152560575861 0.13357960786207962 -2.5838450343325956 0.9135839156521298
Ni 9.131106151154556 7.031143739221865 11.628129507136235 0.7373075402524721 -0.08831250849416403 0.0016581044287132735
P 7.2888298268999865 1.2747068073373555 0.4168326643372351 -2.177213242300689 -0.5360613822813542 0.2113778470884811
Ni 7.800736808272763 3.9669339576894815 2.167459636374749 0.28971113288274625 0.5596522822274167 0.0003026188420833498
P 5.946684310269634 3.43731700073366 9.596226613656112 2.058894931473054 -2.066244686969906 2.1311141339497817
P 2.1391858477877554 5.76934683664613 12.243472986065077 -0.7844739135256296 0.9559958049594375 -0.8847122269231023
P 7.79515044013583 5.115732621632876 0.14030744155902944 -0.02125171028992469 0.29223492774586446 0.7824378569322074
Ni 2.1708388862330317 2.861875367669311 0.008099776648951458 1.2913460758375375 -0.6784917556658444 1.1626641623873912
