# total energy = -340859.27666746185 ev
CRYSTAL
PRIMVEC
9.34521744294742 0.00000000000000 0.00000000000000

0.00000000000000 9.34521744294742 0.00000000000000

0.00000000000000 0.00000000000000 13.67767035680554

PRIMCOORD
 96 1
Ni 7.257832447181065 5.512379422440719 5.311983378930482 -2.147423412632766 -0.06414336744712823 -1.314379303507917
Ni 9.187937627273275 0.37755239979293176 7.5841179175218585 1.228941802568703 -0.7261700355784139 -0.40327933061990545
Ni 0.33376725158350357 0.3733947124648258 0.24912107376425244 0.08625742573734824 0.4868108727856584 0.14909672966107224
Ni 3.588610299908535 5.30728927610983 11.74096697960544 0.5029309182759725 -0.3477440165567624 -0.8710349865463256
Ni 3.3536061119115037 2.2995777047134625 9.352846141316782 1.5768208020414327 0.3300100896121091 -1.1826992266613954
Ni 6.305620186172535 4.15337918277379 2.11837019658376 1.0206369379785907 -0.2963998577568315 -2.257775417425473
Ni 4.696859659854768 3.0943137032677046 11.496137229781548 2.2225160800025465 1.1603697099262598 -1.1067210713628683
Ni 6.210541941901576 7.502284650212295 4.180634510021308 -0.9100162529055296 0.7956330154662427 1.1545500179206891
Ni 2.2795976293988067 0.5986387551584769 7.513718523995028 -0.3067166663018073 -1.0292640175259693 2.012882983519314
Ni 3.724994406148988 6.4517700448469535 5.295214320396984 0.7417267523660903 0.4903296845721942 -1.4080008829198203
Ni 8.134133505298598 7.995534582477428 6.027448568852091 4.038941585188638 -0.9800901269044798 -3.352808768037768
Ni 0.9888455141579454 8.463412248849535 9.528631554171664 -0.014009426905214582 0.650064610673403 1.2115760575967456
Ni 6.882995767634363 6.232531239008867 0.2230787557664266 -2.427876003031722 0.39654895387460737 -0.4269571338528195
Ni 6.16132068059087 2.2987927064316893 0.5658688149815019 -0.008602911177662605 1.1694796426473277 1.1595893801168093
Ni 5.639857536270102 1.4160434481424478 5.261772459071682 -1.1922506177952563 3.933587547831154 -0.7438823652565124
Ni 5.603373806602929 1.0229835941974392 12.532904085476455 0.2517886468053599 -0.5300696834742936 -0.9833166042615776
Ni 2.0503500954681124 2.5117328355803097 1.4427754432021174 -2.2013512729994735 -0.5949668983683107 0.9581367625618402
Ni 1.115931128846442 2.1288499236454324 9.689016048355569 -0.4542478512479725 0.23012658845089398 -0.0015717153624940675
Ni 2.938622377382687 6.6108723751706275 9.57462964991828 -1.2561425313532106 1.0311872026906113 2.3797745195388047
Ni 4.185872504508616 6.38026043946447 0.14153892829076367 1.6899567973371799 -1.7447326075264789 0.06813037711933427
Ni 2.858412374377218 7.111878838077091 1.8783681861927728 -0.46537430017843723 0.7290704970546604 0.5451571739350354
Ni 0.7903867342645127 -0.05261544435761262 2.4503132616839047 0.003250902837129885 -0.6676933794987598 1.2765336934150533
Ni 5.134477511508045 3.7771781014516255 5.920981307843072 1.228649725249581 0.974690038934831 -0.5582525736664128
Ni 6.531138978264807 8.165477365263685 7.2493161503455905 -3.0934651917032854 -0.3597173868685547 2.7063408735766874
P 8.28774084764986 8.036803063576361 8.804699597068073 0.1099336863083655 -1.1470074296867405 -1.1605792548339045
P 1.8023840906041835 1.8885189615935116 3.616280554819276 -0.5705249632758627 -0.03494412017535272 -0.7651261051266371
P 8.459431186134827 8.463524391461217 3.682603564411471 0.02867577066813771 -1.3075653659098772 1.5320869494691678
P 4.325303151699761 4.928667783418865 9.554304736072703 1.3792541498044313 -0.11509620434591146 1.787193347793851
P 5.105460610735357 4.403345064212713 13.706804533866556 0.2577734036338851 -0.5856924150449203 -0.19645644989195843
P 5.405909357866409 5.807295800728798 6.597123690978429 0.9026466999143358 0.9261442688156437 0.7525174152236911
P 2.8846350550754987 0.10512622227765549 9.844817647808739 0.49260151132550645 -0.5188879558258612 -1.0942165111379543
P 8.383267662367548 3.6412332204402595 10.240854888093903 0.8040232964124668 0.7630175434240666 -0.4747883944034855
Ni 4.929163079953793 5.275188453515891 3.3180111124419094 -0.06675200871456892 1.5575771233204723 1.8110439291592035
Ni 1.0144233748390554 0.8059222240695099 5.36099063475723 -0.5566464055215574 -1.6795212038261529 -0.53317403343123
Ni 4.395280141389257 7.774034233970424 11.492101964804528 0.33552150634864153 0.12424701760724409 -0.6961449499712333
Ni 6.881397735417896 3.0104590653825745 4.064689329281643 -0.20951636839971016 0.25476315605265154 0.3591975098093427
Ni 3.33491567663119 4.513001848002316 1.688535976702969 0.3424740264070747 -0.3756412571876628 -0.5718884192822925
Ni 3.5549675164039694 1.1074363260115392 11.618907222963818 -0.7327500027887768 -2.445214751420486 -0.5888939527013536
Ni 6.6491503866247115 8.694276505431976 9.913055492495403 -0.4185719951129178 0.7145561054885693 1.7566201029926842
Ni 0.8705406659641404 4.670337932192002 11.623872337096035 -2.089944601690007 0.7300549724551169 -3.0594790645658274
Ni 0.28176204993779325 2.5003690509298786 12.162184908822006 -0.694784579288597 -0.9352230911884603 -0.08532797194454336
Ni 1.1863940698532267 6.881986484129226 3.8009289720840846 -1.73771606699933 0.5852602126035081 -0.03975131175600896
Ni 3.9061981761916345 2.6285854369528345 3.900269570120719 -0.9428011606460344 1.0305120310004574 0.026353036072232033
Ni 9.407363337464165 5.126898540001878 4.9531905690284015 0.9459085959267645 0.8208905044814508 0.2787628614013586
Ni 2.789977345598347 8.439712776914096 4.120781194601394 0.027203042777353147 -0.4643692559526905 0.3724137513893006
Ni 6.0723261730036535 3.9033478848113865 8.63516520029269 0.3065616287811817 -1.0843457889914614 -0.2511242737484836
Ni 8.789635106232138 2.765932100610223 8.030269821924128 -0.9269189421981391 1.3404240643111107 0.1196668544357294
Ni 2.5833078574862727 3.0893794283537015 11.621656585993554 -2.7842165030082433 0.7615761829918497 -0.23325304989501763
Ni 9.254980218623762 2.791052045626966 4.95820988542293 0.0635080478559745 0.8168746984538383 -0.19503925782945764
Ni 7.516956641907341 8.585759838194472 0.5493894581948489 0.09393139734283823 -1.391780564406216 1.2525370733901395
Ni 6.929142452341459 3.1674961026077746 11.752415805736396 0.509550223364703 -1.266671970129625 0.1610641864355936
Ni 7.824115255304026 5.604364399672786 7.489919992752603 1.6098664196424919 0.0037188436124839176 0.17711249814770788
Ni 6.376961577637495 6.233680700778606 9.09446115330584 -2.162631230721456 0.8885922787037986 -0.1340660605801949
Ni 8.774374365825762 5.127711573936572 1.110269796000035 1.2227945520203842 0.544229005693811 0.995308229405815
Ni 4.567194765097588 8.136460464490996 8.884290012143998 0.40490143960436076 0.8689138264382648 1.7545470225137396
Ni 2.690628336865837 4.869606007933072 8.21869370711556 -0.45305923025651007 -1.9098257126158076 -1.9839295337097573
P 3.608235256952865 2.6099697634136407 6.68913296577636 -0.274466805129166 -1.1415062973628534 1.1928332297716036
P 6.280182503756028 8.377417556124808 12.454695828089507 0.3243289800669317 -1.774442732996402 -0.5447470829808102
P 2.254393577423303 0.7704188077327889 13.283890447648302 0.7773118485595516 0.4612415089569863 0.7271707089287863
P 5.331184997615712 8.926514509007522 5.6053690105691025 -1.2737826130324772 -4.15511225354565 0.7170523895478619
P 8.912066802535838 0.9821543383275928 10.471898572855036 -0.44991014310456706 -1.081793197772937 -0.005643314328706409
P 5.2730297082410145 1.6230773997424885 2.7475565991643824 1.4259181295198733 0.09343517443271006 -0.5952324933248716
P 8.226838064288957 2.2731027031388975 0.1097904204018579 0.5003328185314931 0.11520573334058223 0.551818645115611
P 5.538461924874397 1.6679531348505232 9.552252526278926 0.03767308907074157 0.11140589997851781 0.8885025472034697
Ni 4.7169518777811055 0.6710062515203254 7.664337265744968 -0.1519532252732609 1.082941195334451 -0.7926862741330929
Ni 7.113196513764354 1.1147629766414224 8.088426980342353 -1.3049909203144816 0.12625530628652448 0.34938309482208213
Ni 6.223307509198032 5.849339934891864 11.421935267196936 -0.6881832719219954 0.15167657457310652 0.8862919127053962
Ni 0.5298196379345957 4.926509038143989 9.150594137583207 0.6049371222071452 -1.6288643009012336 -0.4680708731739939
Ni 7.798303764181912 1.0081901146730707 5.283929970096494 1.417465627877146 -1.2954554700202205 0.17004710666049425
Ni 3.7219852460688574 2.4319059864980876 13.685603973128094 1.2872569933698281 0.34440158244709074 -0.23802861690679006
Ni 8.002964030501353 0.4834860488746968 12.433850385621373 -0.39188548696066705 0.9488285977870369 -2.80817507070637
Ni 3.567910642835587 6.937085887335592 7.41406299212392 -0.9022268387680976 -0.28708655077570555 -0.698941538879764
Ni 8.398836794956049 6.150480228128288 10.279645017474666 -0.9611704071818413 -0.1347510024623615 -1.6345829485525658
Ni 8.518455580750059 7.082983425133725 12.211506163961463 0.17468871919756365 1.840886723552249 2.5476091919290127
Ni 8.066866628724748 4.815422436055441 12.714804074233292 1.2144261254510311 -1.2462887784875827 -1.3964026365592597
Ni 1.8855939084721423 4.499628841559251 13.395199465916683 1.3445440000167554 -0.24151606123475822 3.463401942307003
Ni 3.1260313719383976 0.40110608633318373 2.241209344376569 0.5279567508963487 0.7047506893623734 -0.4070382834417055
Ni 0.8493615992262522 6.903639353401471 7.8092245855161995 -0.185384508348513 -0.9667360741950771 -0.15825268512872745
Ni 2.7189630367507935 4.2632882874396785 5.542807451077071 -0.5924086507228313 1.1477900734890363 -0.8197391644858268
Ni 5.260011820068276 0.11577696682214254 1.2109906826821204 1.5957875729519226 0.12745626857316114 1.1610333116521876
Ni 2.175660118804979 6.9792982354161825 12.795994390569213 -1.1056972580840443 0.3633187310665678 1.148605884522112
Ni 1.0942502239212775 4.35736659342314 2.8984622390958754 0.5270463232669375 -0.9543608404591758 -0.3097058308371182
Ni 3.823530380946804 8.531688408928522 -0.0635998131718533 -1.6354234421759897 1.8111413739690163 -0.8582380918919734
Ni 3.3417470307261445 0.7610390127873633 5.504756528411643 0.883689956306175 0.5467967664209873 -0.40758387153253034
Ni 8.722788764452096 1.933469458442667 2.8108433475452905 2.5659465567856197 2.9821839902280898 -0.6362405603061172
Ni 7.3111188781652405 0.4573642965269296 2.5923147782478564 -2.82675000549508 -1.2889384948373093 -0.2584079518940905
Ni 7.259037980256646 6.586817784964864 2.465482418957408 1.270091537334135 -0.5285540181607155 0.05983831231387113
Ni 1.4670216103695048 2.7160660192823447 6.743652030967272 0.41923996771421984 -1.7579956431839723 1.3637174876214124
P 6.978223535387564 2.746251072260052 6.612237711467856 0.8325414584568178 0.2366646466797279 -0.4968381751146734
P 5.233807829805276 7.342313214648086 1.9709792930067298 -0.07757866701642768 -0.21288965574731725 -0.012420999372172154
P 0.6442565005471399 7.510723381741357 0.8441460332612806 0.004237435120115283 -0.15981822984363442 -0.10224428808390777
P 2.820283886405377 5.556872003625507 3.5652762259828266 -0.2404955903900439 -0.5769771466591096 -0.1390257185783154
P 0.706419953767701 4.578726763665542 6.909972607396205 -1.012534106365798 1.643251679971157 0.9160642588718223
P 8.272629630725726 4.451743946371087 3.1159647034964206 -0.1874017958888579 0.01818412710819449 0.7350346850578955
P 1.110996853932439 6.666018504465195 11.047577997315175 -0.03217349940875104 1.0729380613751522 -1.7399873795320098
P 1.2224385742913129 8.025084160655604 6.111606926310526 0.9537584309884863 0.9958489324006333 -1.434445450264594
