# total energy = -340894.4151671834 ev
CRYSTAL
PRIMVEC
9.08688954356981 0.00000000000000 0.00000000000000

0.00000000000000 9.08688954356981 0.00000000000000

0.00000000000000 0.00000000000000 13.29958136388954

PRIMCOORD
 96 1
Ni 6.495317866989077 1.8778239368006295 11.498006870275129 -0.6699104417547366 -0.07413030345651105 0.2826591111319713
Ni 4.5413730549074005 0.10428750738187767 6.016850414242159 0.9854310795014191 0.6444745181801352 -0.6984224331515004
Ni 2.9662606757333094 1.8155242208012436 4.81434231375366 -0.1489964566377821 -1.0506044308749583 0.002935428479240106
Ni 3.5881855827388485 4.474193679122182 5.027959643629443 0.08215625908478108 -0.6191776912865595 -0.5047175778627502
Ni 5.177110034304869 4.655249957022964 2.7383305858413904 0.3869839358939916 0.49904521006832114 -0.2340367221385776
Ni 7.379972016802412 6.035493985904344 2.5121842524037707 -0.19297569043220958 -0.5304216674970735 -1.143814633781056
Ni 4.921986518202366 4.845256821309307 11.512051567044185 -0.8929968355293976 -0.2356292634366781 0.42723429877360614
Ni 5.42718123971664 7.993209857224607 12.56368912863108 0.4193998903308519 -0.14168372502645274 -0.02183483648690433
Ni 1.6034180406878147 6.746461325389169 0.41034940125243186 0.3232815126390239 -0.7901912756253809 -0.446492889892902
Ni 2.744431523607141 1.7475542856093813 0.3048542462252335 -0.15434306566167613 -0.3231820109466821 0.7153904284644066
Ni 0.526434417572758 -0.11529173084676338 4.7799357144741865 1.3095998798414026 0.18387449946188977 0.1451979088272983
Ni 8.68110558368107 2.295148434610986 1.3996081908992748 0.5088915067347817 0.26578984618045837 -0.1899585008724406
Ni 7.092053915658809 0.32345601819465347 4.761170378489599 -1.639746495031376 1.8823886994507775 -0.872973084109303
Ni 0.8762460507447479 7.462271977100901 2.6996158921401965 0.7070999063208403 -0.3774310020982339 -0.390299887641102
Ni 7.808146260952218 3.897385179633701 3.98274560439377 -0.7056364344014363 -0.34303581244781567 -0.21544044719362895
Ni 7.411112787912373 3.682443889924034 12.765789734461118 0.8375728502331381 0.6043434544872044 -0.3352271150366743
Ni 8.075955075119941 8.821779723614924 6.791245152742054 1.5400931076030961 -0.08333768098739194 1.809942725675225
Ni 6.964964675873596 0.6630249092612601 0.42570533620974843 -0.6501193751707385 -0.1969958673351962 0.10399109557168541
Ni 1.8886191618016899 6.49005655783452 9.150936856427139 -0.17246342941147072 0.14455667569887362 0.2443432462709082
Ni 9.229281293625494 4.804956465349961 1.2340895857504395 -0.0041034806454122875 0.10216329833432729 0.4828259199959814
Ni 6.548557953926125 1.7300438490967185 6.843034063388975 -0.8055762427218837 0.4469688010880561 1.42965008575848
Ni 2.875055563497919 4.5018269107957725 0.30832452941370575 0.8144025827642618 0.00839593737317909 -0.44744085562846814
Ni 6.136385722593548 5.698506680210466 4.67036054595753 -0.3902896032284569 -0.22246135859615235 1.390967067365985
Ni 5.399866049183654 2.7687571274184535 9.501061078605895 -0.9697936300744782 -0.4090404014733987 -0.9787816925057014
P 0.09235732985334881 5.613816867912584 12.431677520678296 0.48595392410200183 -0.41228281967009645 -0.13019732165340803
P 3.7681241732026534 6.316778657543929 12.71844340420394 -0.45621757337983365 0.6752850758030886 -0.4861781242976659
P 2.4218015036890836 8.542194300355135 1.37955251657281 -0.10068902778164594 1.226110760877811 1.0580511169609907
P 6.594537615967679 7.65119750150919 5.908844551582138 -2.2337165767040563 -0.18949364542088012 -1.140717740023287
P 4.798931857457955 1.1787876835333067 12.917870647074963 0.5220421851841268 0.10824010065602649 -0.922911877921275
P 4.12366690772832 6.273470541083445 8.151952368700638 -0.15151973728026805 -0.05778760043242951 1.3092970038890033
P 4.915798346295193 0.9296978622125409 3.8028024704851 0.5629823750419143 0.9211499009248459 0.5331164407204173
P 0.21735022417749617 5.478785686502014 3.593147933221239 0.7860152898708205 0.28036285889862683 0.10140045202637374
Ni 1.6225368566829588 1.1964798578406002 2.660807603474768 0.19145334025041222 -0.6803714891870605 -0.4428820326131921
Ni 1.783220327805646 6.544296202642037 4.83804183086247 0.3595438374051679 -0.28676979086623516 -0.5909356657217306
Ni 6.122619084650276 5.730247186042709 9.401141639117965 -0.7254249298822733 -0.16808381228653632 -0.546983942731129
Ni 8.639396759813337 2.29653872873991 10.193278529818677 0.862515893331721 0.786276256841691 0.5207239805933355
Ni 2.5056098876830073 5.171676074245413 7.1656286444370805 -0.9043652252673392 -0.47536457862192966 -0.6403640955561875
Ni 0.4971410111452171 9.194296768159093 9.177961266488717 0.25995447044560394 -0.4425405901133733 0.23026954178666148
Ni 1.6094426485798206 1.1608955976519193 11.443172942879169 -0.6836537594827581 0.15355707942527103 -0.47230599430126396
Ni 3.9735605762531367 7.039413563444041 1.6863340921101013 -0.2849630766747996 0.15799634614354724 0.22236134268317834
Ni 5.836718273027073 7.739540243479149 7.983193378673539 -0.6228875360379789 1.07718860912139 -0.14298496033637956
Ni 5.398575710841777 2.789384367109032 4.959866126737232 0.33587708991584736 0.32692116627414014 -0.6752699062944371
Ni 0.9638918282722974 7.228184610726895 6.996019121531109 -0.557793374641807 0.8079979647894988 0.04287134544222939
Ni 5.121779962729568 4.74802710118191 7.084700804488052 0.4497409645165545 -1.205268627321479 -0.170772414862293
Ni 8.13910895875409 7.226685273921192 8.91207614687716 0.4494995379297097 0.4164189533256571 0.6326171046209169
Ni 4.637957605863859 0.4043011674471239 10.835727994660829 -0.31789813683992346 -0.2224474746390814 -1.3250743213279177
Ni 8.05995306230271 7.263205483752221 4.364217778768365 0.9292843571065221 -1.0608477058695214 1.0918840063500357
Ni 7.366532506889476 5.994466678766476 6.92313681375038 0.1980266225925557 -0.9017691824053888 0.3943522033336047
Ni 2.4706435359960706 5.159626858461402 2.591729067735659 -0.7256990094792662 0.4037650120070724 0.9099820572334845
Ni 2.185315198425954 5.314840021965706 11.392129157190233 -0.5256702688550172 -0.04575355208603089 0.0013400589676622083
Ni 1.0953246013491815 3.205291310121269 3.8837966447291676 -0.07161859277825085 0.7703503296400539 0.1945690030612585
Ni 3.970898117561798 2.783614192129509 2.7399934866622604 -1.56061565303648 -1.140069564916327 0.10188227675879873
Ni 1.0866466216555681 3.383503391536082 8.370144947556248 -0.49139129306748924 0.20438496071041573 -0.8604826649517762
Ni 3.9479355472102156 2.4688079842703012 6.943312435021301 -0.5649688093443238 1.2791832152227582 0.1306575491192782
Ni 4.031534932740313 6.801091706455142 5.933874389347644 0.46599213626809427 0.47392964594761605 0.20580652364829072
Ni 0.746084533541305 7.426760412030072 11.223730007996501 0.3950636275783325 -0.2898096061338235 0.05425799001261623
P 0.1240942009296988 5.465582435722096 8.031870029587411 0.8700001175239082 0.01020213734398243 0.48837024685297825
P 8.495396818237744 1.614858434859814 8.013796205911392 0.0915083897236424 0.6067029558583165 -0.003940729815302891
P 1.8837667626850516 3.369527755128985 10.378821005179915 -0.36212445364815055 -0.8694565863156123 1.2872958170275637
P 3.97470552435931 6.245046750003212 3.8310372542589173 0.2887659953606575 0.17479721975096993 -0.6342176163388175
P 6.675292805011807 4.022448043008781 10.681426246196596 1.4298112939266923 -0.1410430061186603 -0.39666825306129105
P 6.397333935013964 7.750617162061886 10.243630803199043 -0.38923930758707154 0.4882401490330172 0.9970879470140569
P 2.3972578145242154 8.585138941226358 5.873254839259619 -0.1525371228011889 0.09797779949806998 -0.329182194394175
P 6.974669474106873 4.015096749215972 1.5023609226054968 -0.4756525421759937 0.6592136241625227 0.8664183137099208
Ni 4.91922410372398 3.223128874664267 0.568679367934652 1.1600197827860086 -0.20626160890783832 -0.4260567335257372
Ni 1.4353378413236602 1.201632124318379 7.059803635312628 0.6528894817167079 0.00012778382711590896 -0.2680367332331061
Ni 7.041558069420683 0.6804135814515205 9.399452386316874 -1.4920173351417916 -0.612626520431603 -1.072351849854379
Ni 2.832401703098106 1.653623106454531 9.310731629734084 0.5367555801349014 -0.5599137634189195 -0.511691438077422
Ni 6.556608938228264 2.1862511480683016 2.5863696201720012 -0.45047964245479194 -0.8882888885307669 0.5910760479543369
Ni 4.042766328448487 6.97026233258708 10.457833328773535 0.24728278851520638 0.45008266412668935 -0.2834250427637183
Ni 8.085905219375968 7.324905465029326 0.038044081239006614 0.6841001029915573 0.766509615737725 1.8105361362848496
Ni 7.534749009599603 3.887734902738814 8.513474276669653 -0.24142195885905518 -0.8102965310156883 -1.5053572467838074
Ni 2.9098856118388827 8.42190205408911 12.437383178740724 0.36376918834042515 -0.0947775473932174 -0.10382731630031151
Ni -0.29377551026454923 5.029929681323239 10.184380647393558 1.0539558638456945 -0.2975511977524553 0.8125627013420458
Ni 8.58302169591891 1.9767983397564801 5.716479639410464 0.8110092408119969 1.6298955703792253 -0.3787425218208058
Ni 3.8352853752084086 2.6808596430453404 11.570888269366884 -0.7034168010422982 0.2892650464842631 -0.4839839448598245
Ni 0.9581125664030428 3.3285640562192373 12.648979584340214 -0.3890127933985623 -0.05326991506773406 -0.6643100648488236
Ni 3.304492885320408 8.328815955679293 7.929742475894718 -0.4885191137260167 0.3344634973977724 1.023514516636702
Ni 5.6673386484313095 7.876443324174415 3.588133787467379 -0.2547022209077291 -0.2677590540916872 -0.6436219403718527
Ni 3.280149107729633 8.481711962302056 3.714705983226867 -0.9489185863976819 -0.3313246946584746 0.22082716542683906
Ni 3.4844223888944805 4.484743558100491 9.38177747710007 0.7357939318214232 -0.38549372450171027 -0.10353086810581524
Ni 7.173445186984145 6.109970134143984 11.676088100477807 -1.00733122200862 -0.38131336787177555 -1.1758534073841556
Ni 0.6495090694745789 0.08336948721989013 0.3676673714944511 -0.8050926182172456 0.20781609787915176 -0.5083140369647567
Ni 4.510241370687171 0.48756979019099406 1.6729409253347958 0.1594472196574609 -0.5756376019120796 -0.0900811703588126
Ni 5.560785779439361 5.829157980770439 0.5173448017743062 1.5890134874528827 -1.7169739493559721 -0.39068246779150134
Ni 8.074210392291485 8.849194869934957 11.427838816457209 -0.7278587361347464 0.046933688437061104 -0.21750427170119316
Ni 0.2011628388097444 4.698439943916938 5.892552666982474 0.007790442578696259 -0.32777245853084197 0.03050022547138618
Ni 8.072974575287997 8.737453386906303 2.486356585719836 -0.8859350435866096 0.42916571146836413 -1.1090625750118512
P 8.636134566399717 1.4269142945425297 3.5467857131219875 -0.0008127257092824712 1.2628885918277928 -0.2955223402478846
P 1.848336979621807 3.2472363931220225 1.7168433243837213 -0.1588782345278683 -1.0592500223650985 -0.02490319099958292
P 4.781385073386366 1.0132972477426387 8.163282811506887 0.9814463838220582 -0.7747296896546721 0.953239582370539
P 8.485028677054064 1.6242724526216814 12.37721615576133 1.1665974360035263 0.42900090375572564 1.0052848810025525
P 6.311553695948298 7.673932899617484 1.3236808663695099 0.28342350010182155 1.055508553044795 0.8844687434537283
P 1.9702376053703137 3.2981411493980666 6.057454272318538 -0.32366434989973936 -0.5594517361808365 0.38117581385264676
P 6.992652428885576 3.928589558971783 6.133221667589029 -0.030134100381219067 -0.47850312425091135 -0.6693483986036795
P 2.387425799834697 8.517541568513487 10.026714023661741 0.38155402312767195 0.5777669895502566 1.1947828972988068
