# total energy = -340868.5298920146 ev
CRYSTAL
PRIMVEC
9.29821161405665 0.00000000000000 0.00000000000000

0.00000000000000 9.29821161405665 0.00000000000000

0.00000000000000 0.00000000000000 13.60887257480474

PRIMCOORD
 96 1
Ni 5.387076819801883 9.046267022962184 6.544057908173086 -1.4964193208642294 -1.7707454866504728 0.46821742605418715
Ni 0.6235575799057176 1.8768904536521915 3.414751384414311 -1.2344015401316932 -2.8432981396617483 -1.960705015964178
Ni 5.415008646721064 4.2162925366698545 10.759391799251938 -0.7798253590100247 -0.6405463867703227 0.020598650086958072
Ni 5.5668577364071945 8.045091413209907 12.959701938566532 0.24162404756753225 1.4986507812979093 -0.7833282299569606
Ni 0.9252984857871378 4.646334811973483 13.333319877886916 1.290745723249377 -0.5624272738693926 1.429102697895442
Ni 1.7069470446635555 8.247122949594711 1.60146441573481 -0.7771344424414229 0.02195182168074284 -0.46749546028649813
Ni 2.051185425556332 1.1609560737267113 0.558165119067764 -0.047298785085963704 0.4354021792963792 -0.3036341707217416
Ni 1.6121331834468833 1.1597566044615402 5.919396630579183 -0.27102409799620425 -0.7714954989880907 -1.8493577371377374
Ni 4.334788942215139 9.147571035706681 9.470549986150719 0.4821990850452598 -0.06098836675791432 -0.20643361570932833
Ni 8.56038898845427 7.560031621301487 12.822606320842008 -1.4702825145678615 0.26780739083111943 0.26452897719016377
Ni 2.4204266967905457 3.7465004078111344 2.3275394249672336 -0.2686309151736793 -0.8192704523795244 0.6197528470637391
Ni 3.6550803937401017 7.708942476198517 2.804516281742216 0.04799092605698187 0.25896202462534756 2.065527349187907
Ni 6.595416578608536 5.9787592013515285 12.98636177017195 0.19794948949771715 -1.184919374241166 -0.9259498934166505
Ni 8.594308863487948 3.157867839586886 0.1255630461773015 0.010689361393046106 -1.4614420334580958 1.093056172281266
Ni 8.231083535002305 0.37426974393657464 9.73299758065472 1.2635275109633723 0.4853196329521125 0.6604595807544819
Ni 2.0441745741924633 8.078574272309762 9.454804395037224 0.11319333089624377 0.22595960155739794 -1.272814335581937
Ni 0.1027257092611233 7.114238175957549 5.000022035248174 -0.13484356217616777 0.5433473744198063 -1.8690392747270652
Ni 6.408215689339608 1.4614835630259237 5.613509652253268 1.210442972433567 0.1924650693443782 1.4965656166341064
Ni 6.010447505659307 9.054031029446044 2.054571834132885 -1.8265456243392286 -2.6313883313291972 -4.583048720592604
Ni 6.3278698449958535 5.9567503350673405 8.696069418410119 0.9163326820418606 -0.49564286925499157 0.2776027796549864
Ni 3.766101037353622 7.093912285929144 7.364359131664361 -1.7470630554318687 1.239199475740969 0.003285869840123373
Ni 9.222207778276676 0.9724813295017483 12.527402057545201 -0.05289581955776697 1.010522475252408 -0.1012659833310385
Ni 0.06441893810877981 5.56719247201608 11.47074123115683 -0.9765332627911568 -0.007606865812980449 -1.1181419116053002
Ni 5.156583458450497 1.262380963218862 13.529750171749715 -0.04631225280297831 -0.50049839757508 1.0420513990986247
P 5.5661882651894246 -0.14550770954003192 3.929425979497693 -1.9752160650961597 0.03628623602554396 4.301117745875909
P 2.6900190369019703 1.9358597100840964 3.9809083161442036 0.3356755154280025 -1.0575662069047722 -0.8007335699176016
P 6.492252923592455 2.828023089876164 1.4264004817513698 -0.228023168954646 -0.004513057379005131 0.06688930562338156
P 5.741766390260958 6.8203403113565315 6.92315993255237 1.2389001993329953 1.0730614743268938 -0.7551697652448737
P 2.8607620920673873 9.32526915296782 7.406955167716111 0.22405647099741413 -1.0772953099025833 0.8173693787020697
P 5.017175375561258 3.5597737273214594 6.102326851371421 1.8828723239554155 0.9248366057478138 0.3245542087038604
P 7.25872308224821 7.282703169340276 1.0824810295081695 -0.7559477810614788 0.9406352633429672 0.06263104456765987
P 0.7442409247623846 1.644807098158601 10.24337082316393 -0.9783422909754378 -0.9573620891793447 0.15989022073215045
Ni 1.3377801591202054 3.7768218750492992 9.943621594155376 -0.2903701066229838 0.6187051225255151 -0.3622085287215246
Ni 1.6639986064013403 2.635531518344581 12.116958552141789 0.42473518650083625 0.027832963051868193 0.9902683529890622
Ni 3.2799719511390424 3.7277459155022172 4.799467984648142 -1.756373019978885 3.551534473579877 0.5952726025341878
Ni 5.752226878038614 4.60930933434626 3.278404272704098 -0.7532743479943738 0.001576343348184382 0.6073459887589541
Ni 3.3130270925164353 -0.11356091495650315 12.1662093180624 0.6529072223285207 0.32209520564040656 0.1884415500072819
Ni 9.04530930719232 6.352956419239511 1.6957334017659085 1.1466737004964058 0.4039455034489946 -0.008250927154882565
Ni 8.74302445594646 3.2021459220732833 11.306550625535337 -0.9634826002547858 0.29245835661058023 0.38234566579103185
Ni 5.874414673492992 6.60427777403263 10.839997063692579 -2.1684262401366787 1.8336878918109647 0.4729755095644628
Ni 2.1790730245731127 5.997690359676246 5.9016779590155375 -0.1042363788132721 -0.5705933546199528 -0.1591219751075582
Ni 7.376113000641903 8.481465770448276 5.022612969563368 -1.04822873155393 -2.480167356236271 0.9377281169985011
Ni 8.851283530786679 2.434690153013589 6.483716235744752 -1.8841601895289033 3.4711329924026737 -2.5236675935117505
Ni 1.3284633513395732 5.582432240431705 3.656581125053269 1.0369408173449368 0.933608952623805 -1.278898594102804
Ni 7.031604971619747 4.99440405594572 1.2990094072211018 1.207887553001565 -0.6973209725572055 0.9881731610229305
Ni 7.418559335490791 3.225131100550053 4.559652236589308 0.7469712885944814 1.366717193679685 -0.4532255806310453
Ni 4.9521343871126335 6.574616479800878 1.2324184069391129 2.2780475374109477 -1.420394885708799 0.2194631951997769
Ni 1.2038301262980633 2.340201729194444 7.831892724984243 2.33205407353439 0.1977078058005563 2.5754305850166546
Ni 1.3577713135397251 5.793678304272205 8.480096143915254 0.20716869410313998 0.19888022884210266 -0.7590680718580153
Ni 8.412296376156736 6.48718539840239 6.995898910184213 -0.3980443074732113 -0.4311652583968961 0.8919683942648833
Ni 8.396619591807289 2.5232928090431734 8.907619533762022 -1.0971439691973943 -0.5820381061217847 -0.3512980524566079
Ni 1.035030397306451 8.580882246287116 11.569487305956766 0.587827201999736 -0.9601530216609205 -0.5252532359222566
Ni 2.236461585074172 6.0350691693350695 11.034972187477862 -0.9562398026494435 -1.2232642925679513 -0.2707803574165143
Ni 8.604657772729308 8.70152653865608 2.5734101682623423 0.6467645997658926 0.3145287061470583 0.5232994546299955
Ni 7.061322055119647 1.4086511260902432 2.904976946716551 1.521373933927038 2.088801746334816 1.3109080571298648
Ni 9.211710097653588 4.099079284291962 2.2704093547419246 -0.31601377533301706 -0.6831541941385202 0.4654835720627919
P 3.7166903421976545 7.362212174661819 10.865622934194997 1.670318197170646 1.755793750436647 -0.05477992395435727
P 6.1506087436685375 1.3191279471362252 8.157225982544105 1.0168869840178552 -1.401142208126774 -0.36605052817543415
P 8.379092463397617 0.8604044090779686 4.911387765299973 2.3099670118273634 3.0056478776779847 -0.5255913359879657
P 7.393668023685649 5.126736199991585 11.010203612062645 -0.30492357895712646 -1.025062834960428 -0.2505689154656459
P 9.208920634246214 1.1236237551246775 1.226629340547674 1.0054422325160233 0.6158319147427781 0.01317870347380311
P 3.6542807475633206 5.391660838001337 3.0911327170288496 0.6987739029536483 0.687530468829345 0.3857616334511163
P 1.6192184205016154 8.386726294922466 3.8286249999876585 -0.3995306622107506 -0.9598059227341469 -0.23028805372942274
P 1.1383800165496905 6.724568734369994 12.913063970037495 2.026091254679472 1.0166779533308425 1.0075968169651808
Ni 6.7071252898625415 5.482011557766209 5.55908815099652 -0.13631294763284266 -0.17767042753370693 -1.6584828950986148
Ni 4.884220251354413 2.3193737357527113 4.264407990983664 0.9147370554199665 -1.1129277143942122 -1.469971925305978
Ni 6.521746850019765 6.996011418541643 3.328321720379072 0.9154266252878235 -0.6636526337704829 -0.6289833645230716
Ni 8.033450052589796 7.453790258325936 10.385746895118615 0.977075251337556 -1.758916355226029 -0.1201093412897867
Ni 6.6000005968079885 2.173791640521816 10.761977631830575 0.5699984013484313 -1.5103688410657858 -0.853486179029285
Ni 1.1169848322151252 7.989990212702894 6.823896877200934 1.1310961577731231 0.7385293284747152 0.9418675930881716
Ni 2.897192484167703 1.8131326183709595 10.220371697370124 0.6820352500427286 -0.7873890302898955 -0.21601945962555058
Ni 3.9464770394858397 5.232447564919736 12.553395207396258 0.26143953963156263 -0.08950575747131682 0.3851602524216915
Ni 3.3225112681015094 8.701052329876825 5.178720640051424 -0.37660002155650624 0.5801496308498202 -0.03861154172461092
Ni 2.675485932549547 5.950130008580504 1.0613071426039227 -1.015605031981638 -0.19060539042782013 -0.2656546061541748
Ni 7.193477533149712 4.258673784039237 7.4000419475715 -0.5765035494568006 -1.702241528241804 -0.8350043181750135
Ni 5.083127588722958 3.0874338885506702 8.427062865614243 0.04247950932044942 0.8421139326366014 0.2761133395936535
Ni 4.003484373321224 1.6626038746976528 2.0899552476343 -0.09321843043621365 0.07012915271691793 -0.014088873992898316
Ni 4.829407295399497 4.21122501147979 1.0345310833565309 -1.9510687784259944 -1.19569718158296 -0.033452366121174644
Ni 3.9153652242822523 1.7484728565880094 6.6414566721472585 -0.2908125934770411 -0.031288525700636435 -0.02569046278756866
Ni 6.461122511966151 3.254011345027741 12.945847603643237 -0.9398045399115558 0.7537042364429407 -1.2516407868281154
Ni 4.006524888435263 5.727986441028526 9.211396747930827 0.04350306548895733 1.189472283719171 0.19574708252975964
Ni 4.670965773860603 6.739650433192533 4.901017470172488 -0.3857678040987033 -0.5889080937687405 -0.030470657785031396
Ni 0.6705414418972686 3.591815363660839 4.686636979283236 0.06019286743981246 1.5164081052813303 0.23937716051488456
Ni 7.5892094085426285 0.13956987176686658 0.31033152335499914 -1.217433287708471 -0.0469560570345643 -0.03203208873488032
Ni 6.675511371245627 8.486003297590939 8.437827404903302 0.10405588737134984 -0.8313695496359036 0.26231757136114175
Ni 8.553843047658296 4.750186534630049 9.10822751398793 0.10104795378296147 1.8572415107611886 0.9373270249053405
Ni 3.082282679458385 4.080324791983045 7.261734772907039 -0.025471404798227102 0.4792487441676843 1.085108635299415
Ni 8.659098800229907 0.5089896686591521 7.199583668548455 -0.7631155024545115 -3.474357927097874 1.189846379229138
P 0.901977641880348 4.250305393817112 6.651376933845019 0.552118692854533 0.957442564708293 1.7811021472944486
P 6.628787859172098 8.910513137136606 11.061168968157654 -0.7869295741549738 0.5271059728602793 0.32461617229004736
P 8.432231741308108 5.355444304762252 4.108777318738269 -0.5304219246073897 -0.7613645812016758 -0.6624789251773558
P 2.7572915960764948 3.4455730954235317 0.24243226473495125 0.5383825742153632 0.25525397964614105 -0.6175157302031042
P 3.3998537901766577 3.868939254972176 9.744373942251132 0.4714693573325816 -0.6414313604784373 -0.26009793800200365
P 3.9166297810269284 8.2834045703133 0.7532304355032181 -1.9056211876161566 2.5014797445608017 -1.2086087474383056
P 9.162271507863547 7.743141297572933 8.568282240076003 0.2685787217795052 0.6736467688687172 0.39724160906625783
P 4.6524530350469915 1.9867581190573302 11.609919648225528 -0.10479456530958725 0.04488991853415495 -0.4060980310156232
