# total energy = -340860.22269979387 ev
CRYSTAL
PRIMVEC
9.41046738874951 0.00000000000000 0.00000000000000

0.00000000000000 9.41046738874951 0.00000000000000

0.00000000000000 0.00000000000000 13.77317024805652

PRIMCOORD
 96 1
Ni 6.211162505010204 8.376379285729444 6.918208555628492 -1.0472398852780995 1.1530400090340658 -0.8682319698798918
Ni 4.744192987977529 6.997736414837042 8.038462579401658 0.6976009656914696 -0.881423014648869 0.7632769677330403
Ni 4.489799825276698 5.102458888809227 9.634938947508532 0.3217794741722007 -0.22921821770401168 -0.7288457826383641
Ni 9.20280652459997 3.8584515736731513 2.5774564167882636 1.104233271944008 0.7515324256026024 -0.7853277768854927
Ni 4.765893525586677 9.314508771529974 0.05870155401218913 0.29525777373258827 0.44621752474432824 0.32316092790075956
Ni 9.061950649953943 5.887545944801613 0.7815270762102776 -0.2378974906455645 -0.968883459555383 1.2868165633983
Ni 2.8531595827050165 6.332472839060306 1.9371277562339746 0.5651883815542976 0.9304765776424104 0.06302005247596243
Ni 6.442208298323221 7.943111960463698 1.8057999797359374 0.44699014124429465 -0.11509311902211793 -0.82466411259127
Ni 6.735843109692806 1.8725418370149334 3.638637173090628 -1.0642677872946638 -1.2046014260511255 -0.945903453720442
Ni 2.157199062573969 1.3026345264565427 8.813423972572082 1.0180635208244597 -0.035803897072486726 1.6695761767982988
Ni 0.9360845912547948 7.428312346453084 8.001482266026693 -2.474267445812068 0.7560434260990786 0.301469558970255
Ni 9.147049505808033 9.519158204047821 4.662700223195349 1.206281641967026 -1.5796898960591117 -0.5219737938400365
Ni 7.019116996557763 8.2675942836645 4.162362615341604 -1.5313225604993177 0.5277922002940265 -0.4461481049589736
Ni 0.09834785277513063 5.373188622754412 4.838969568409783 -1.288733835025671 0.18087942138930782 0.5278243390835426
Ni 1.3996658548554721 6.759228120949846 13.306507109892074 0.9646408822289451 -0.9370907405248183 -1.5703593626868053
Ni 8.320368184320227 7.2731149196317135 12.939232568707713 0.408015045532678 0.05243070699589035 -0.44726833460634585
Ni 6.378000679889907 5.054888976574081 7.719600187276389 0.557501297322685 -0.2619848706120714 0.8307735679231175
Ni 2.1381805081472174 1.3544956117835236 5.599689160358314 -2.2277241065660474 -0.8508104319693346 0.18861484236035259
Ni 3.1770772778674203 8.11870186993859 12.073891165430704 -0.5696333046995287 0.4242399920319726 -1.1999083914508302
Ni 2.781621210239818 8.185817322769662 9.145756507600098 0.4106077459605187 0.527431474520498 0.10286212417356479
Ni 1.9778449661764135 0.9401028607947369 12.440106087996334 -0.3532168667458756 -1.4165451729454055 -0.4183434240418795
Ni 4.494467417060799 6.875221540971688 13.739935354148763 0.9993644017530596 -0.4630618499951767 -0.38152805498574294
Ni 1.5402394154822987 3.572213389606597 4.757473039440681 0.39355978933929636 -0.6820146812174382 0.01208495618899209
Ni 8.145888709987519 5.0029526075086475 11.595026361877286 0.37817790756658737 -0.539372191822142 1.4232308124956974
P 7.931650011284191 3.728907080729725 6.711486938209719 0.9635844159399727 -0.5508945906394448 0.6726311831200094
P 1.481395763413779 5.158291191339616 3.215966034012176 -0.04758289198528579 0.2817114025067213 -0.7011696568793343
P 9.09223353374676 -0.29223829802127776 11.96483514190733 -1.0243303276697777 1.1880936582040893 1.421366505593449
P 4.970044203337272 1.2718058355599378 7.982489119861668 0.09688970864021378 1.268519564861325 0.04533626204295418
P 3.229738252915467 8.172012167230797 3.094004495624454 1.5326592770328702 -1.661350446454397 0.8144997704637585
P 2.8340751550071177 8.143140853533977 0.4959429196215363 -0.8359643680954378 1.2052501153787178 0.2604401518327708
P 0.02543461103642969 1.8378548545225994 3.5474591553564387 1.0971467974108715 0.6867424257104109 -0.41502952917729813
P 3.445492036855168 2.230675991304339 3.0751082772726885 -1.990632656761546 -7.579747102386785 1.7256282825968603
Ni 0.886328627464313 4.330998189476879 12.489552447412427 0.09099005532632716 0.11316273476862447 -0.504861302529466
Ni 2.8904250332393735 3.5876183245875928 10.077676967071698 -1.8775198013942505 -0.008294635908624424 -1.4225317295461435
Ni 5.377075145752061 2.942869567539367 13.244004668134725 -0.49500729255352166 -0.30782866841906337 -1.3913990126970812
Ni 0.36051876670491195 0.6490116987381406 7.569004478967974 -0.30759829757581214 -0.8659884252613537 -0.26296446091652126
Ni 7.33497933170567 5.656923622517395 2.5985838569384367 1.3660559059466022 1.0324272457452994 0.49021269937835577
Ni 0.5616101015341122 8.407800836066368 0.8961606837063071 -0.0006263207300892439 0.6876430831478093 0.6614728525103446
Ni 2.093687818721348 0.42969228873594784 2.9782002259954767 -1.163271714064403 1.771099784666098 0.37231193570411364
Ni 1.189276037280565 7.349160905936801 4.33579376361635 -0.35600677078618687 1.4199860803061546 -1.0014531659612882
Ni 2.8010538252280623 7.183301419656989 6.953384882420771 1.1998703391240433 -1.0378029082349158 -2.2761719176547897
Ni 9.083274768870824 6.187796314687778 9.586236956056396 0.17186384815425884 1.1426072437365162 0.9675290024100175
Ni 1.5272341496644999 4.983331783174269 8.691669464465106 0.7603515665561292 0.3617333888573189 -0.7094015578708235
Ni 3.8169137709815715 9.162812038546681 5.485826270134699 0.445998980975619 -0.8725563082868586 -0.16304959229673854
Ni 8.146867398587412 3.317152083726994 4.415967180882137 0.4773594975647715 0.7751984017609747 2.6978485198349604
Ni 3.8193981343505286 2.803048844297073 5.450154011715359 0.3282720238750798 0.6917879585541182 -0.5758255495531696
Ni 8.830020272714101 1.3474471717708383 10.13669471278539 0.9113455132399143 0.22822757165596824 0.5363375187608763
Ni 4.9467250653513775 0.33290939667391406 2.7628294480751565 -0.728671461844029 0.19839737566841315 -0.014440858015678355
Ni 2.845555925121238 2.9760696961972495 12.10931592855988 1.321289400364189 0.21889883805587462 2.5307000748785
Ni 3.905381574131444 3.4185122270869854 7.9436756474553665 -0.02554211013516246 -0.18873568420893302 -1.4171928338317334
Ni 7.308573560443193 9.370096401910391 13.510694488465163 -0.031059440408965865 0.29125739432394354 -0.3129449065997062
Ni 5.179681183527646 9.070674153147213 9.420463105029075 -0.31842572720861934 0.6236478112427711 -1.2342549872515003
Ni 3.128415751424703 1.5029927858825542 0.6468407039304951 -0.14098207097373783 -0.20194781202383286 -0.08336724867374674
Ni 5.210811009378063 5.291044653634612 1.6404674796252992 -0.12770695113138653 -1.3947429894686496 -2.198411730755175
Ni 1.2912949133520222 2.875810577512137 7.486351403566885 -0.2933325316854174 1.416728235490489 -1.0379335202755091
Ni 6.959209961683592 5.32768901332673 5.0174974257778135 0.9581748148886272 0.3285268201983632 0.42653881536847826
P 6.592051169247103 3.738675145794034 10.399253337968206 0.17456453491487356 -1.0350412863293788 -0.03451911682279216
P 5.866466498034703 0.4903850976302253 5.2491069060825 -0.08134096227233732 1.644973290647954 -1.1686507189881292
P 1.4180256765707577 8.673768873554385 6.120700623838051 -0.08476952833791207 0.9631468141819218 0.02750617584006876
P 5.813692597378976 4.248731884282093 3.54683900556093 0.10780455578050467 -1.0899765049146777 -0.24498010852395877
P 9.192944354862593 3.7105190276125195 0.4497864595758503 -0.22245441661761686 -0.7235580518768635 -0.8921013202983217
P 6.399569470956762 6.378687644003293 12.799737447634229 0.752205026189595 0.3497075680410364 -1.1651555613506772
P 8.61901877476426 7.790408307478592 2.801737966201256 0.4776382051474548 -0.04093659031336175 -1.015126806793639
P 4.208219822526939 7.136117336581417 10.28176835887826 1.525381255314218 -0.2214303462284767 0.3786656458362833
Ni 7.604146928077951 9.284282350540996 8.748180261688306 0.16173370169879242 0.2195207879105897 -0.4585066265243265
Ni 5.606906988782519 8.682821743103387 11.590452874766251 0.3850705209213626 -1.3757520501884435 1.2906238529595322
Ni 9.128586168952372 1.6422865229556758 13.109496153687038 0.7339872176299875 -0.12562692867390624 0.11873071577470522
Ni 8.122522519665093 7.262998667277059 5.79495071069104 1.8392206487037355 0.08315436133199228 -1.092208736679306
Ni 8.477617093014448 3.993237696906384 9.06410941115409 1.49482138024949 0.014844521212000241 1.0344707585378894
Ni 5.167767531917419 6.542523879812173 3.4057610438864665 -0.37268346011091946 1.475696229384265 1.3202460467013393
Ni 6.596314110937018 5.79933222426902 10.23588950761812 -1.0015362125933978 2.1174474350959662 -0.6257859406316963
Ni 7.176469420392357 2.2641866653833405 8.692784604840945 -2.2008162264316096 -1.1347226987821168 -1.3197351685031915
Ni 0.9092657004775561 8.826011413641465 10.354586554897164 0.49763213177087845 -0.6590004797104522 -0.9500120765721768
Ni 7.731668170550445 7.889688737563811 10.583786014524614 0.2268044660561965 0.6725195972428095 0.5188540172641323
Ni 3.100833671748894 5.941496153870672 4.6621628855121395 -0.7282384880716684 0.26007171274975854 -0.16964807144986266
Ni 7.758582107047481 0.9202194844225036 6.242992469628237 -0.8074279512186417 0.576778143274426 0.8267001691846922
Ni 8.623385231594549 0.6893157891658174 1.9055594026070664 -2.3089671098079396 -1.0231355360307284 0.42184989453324123
Ni 1.9654702016681607 4.313005375986553 1.112618370600546 -0.48178462321566057 -0.5201172002472719 -0.6645337508238555
Ni 3.489900032075277 4.0606919265604935 3.056762571258363 0.1829419603452914 6.588438481058666 1.2389637055810792
Ni 8.874127132980396 5.490866516424145 7.276627847077289 0.6013946562715256 0.6172624765417176 -0.3558622747885226
Ni 3.2149073564401776 5.580407112846975 11.728777333706788 0.08979809190075502 -0.5061342557046187 0.10666427152847437
Ni 6.252728539103703 2.930325414619595 5.920493872935676 -1.7483295808491177 -0.8992435877700578 -0.22393768603136271
Ni 7.383556163942628 2.358366622188353 11.93398386588919 -1.1505977181411604 0.4812071534456358 -0.846052091348743
Ni 4.910005421920806 5.150122905717439 5.958741776256849 -1.8750122044810482 -0.4412668656072723 0.8097679122057281
Ni 0.9967566971209978 1.9021565776289797 1.2924458135036263 0.22604264818950745 1.1237510302619615 0.3951903829641839
Ni 4.766872214186569 2.775607921630865 1.6449016918201953 1.672485380025294 0.2997304647919612 0.0803379749291197
Ni 4.791847594418434 2.4120156963035986 9.97844170722955 1.574308320032224 -0.34039888904560084 -0.3739543564035431
Ni 7.035086559577159 3.6258624637218424 1.2954242264061828 0.8029969120304816 -0.4319504733023529 -0.21796449916706334
P 7.864355759574294 7.398725837240957 7.78192383015491 0.896386577937237 -1.0993273500019582 2.7658986785356623
P 1.4891688094090767 6.607832522920365 10.970784895183726 -1.156899234879156 0.34628208729925525 -0.27401403386246354
P 0.8507297706899641 3.002287258113593 10.440255685070037 -0.17887318959255646 0.28319210081730584 0.09826627727276625
P 4.40888862737407 1.0608137480774047 11.52118807120234 -0.9375154867670628 -0.29827393485109277 1.8724696405648527
P 2.51016687031202 4.753885769303384 6.4452930495063425 0.40106689634961895 -0.9550360121493295 1.1014325692704192
P 5.007817819106188 7.254858613056802 5.399468293754979 -0.20049411029644182 -0.20887282127844028 1.0342897528753348
P 3.846255608043725 4.748183026115551 -0.03784795846063955 -0.5399871996983217 -1.1991375747230768 -0.03838399909483712
P 6.351952506385084 1.4488073151308296 0.9697524201378178 0.32289173339977295 -0.6350329131512612 0.43554693240435954
