# total energy = -381170.4510223818 ev
CRYSTAL
PRIMVEC
9.28995855294532 0.00000000000000 0.00000000000000

0.00000000000000 9.28995855294532 0.00000000000000

0.00000000000000 0.00000000000000 13.59679338563367

PRIMCOORD
 96 1
Ni 6.585205528084029 1.596079867396202 0.9424792765088679 1.8883464596961093 -0.1358205813774564 -1.3989158898994165
Ni 9.182993730191448 7.304146111750146 4.31480660477714 -0.3412555806189413 1.005211604562456 0.2660901510296966
Ni 6.122147556113366 2.2529077898004912 8.101581269162255 -0.6968910841086385 0.5570241005759504 -0.5909528921129112
Ni 6.9753744871530605 0.7892785740157753 5.073126392724259 -0.08698041994630182 -0.5198824585286466 -1.5127923629056141
Ni 0.27741023208762283 9.00080835777061 11.074655917125806 0.5657457967196644 -0.9346003700027968 2.3260196944148523
Ni 2.0604941732801505 7.404858549790751 10.701750487584572 -0.4094461215522497 0.26056716432893834 -0.9862926561707659
Ni 2.822735252629993 7.7574496274951255 5.222596247959984 0.20049308185517728 -0.7030213653760925 -0.04941017500201168
Ni 5.554670452736337 1.0723584676600977 2.6699070774651386 -2.421481155248972 -0.06304396373536239 3.1364483801330305
Ni 4.596160424167432 5.497871647627929 1.9898635492437227 0.07858833922786465 -0.2727724481458786 0.12549580241268063
Ni 2.4380938187555157 2.7965747300285413 0.3744057578083269 -0.7526541979118715 -1.9228612056435272 0.534183448532351
Ni 2.526218363285834 4.895148442422098 8.001046269325375 -1.1851086074338364 0.8616283485204452 1.4324024516926364
Ni 0.7735636805382836 0.004330049568372475 5.4947771625148105 0.13867579143806438 -0.9500601562012927 -0.009976651596737655
Ni 2.8217040672575635 2.587513508216367 8.549350756741864 1.183914072905103 -0.9276889875949442 -0.3817445418719232
Ni 7.889004727125511 2.3806911663569457 3.2347857795028108 -0.2401844869075283 -2.9459756586283325 -0.5807358423705934
Ni 4.54553015137698 8.726262219830016 9.196326678358211 -0.3938626652916959 -0.8811219384686825 -0.1910879864911935
Ni 9.059595213957397 4.2056663165575445 2.847671358726164 0.9171338377869173 1.2473809831104967 -0.14798781286760965
Ni 0.2292594491701558 4.204458621977222 6.888040518074938 1.9122533482206938 -0.947759018871942 0.558720771552083
Ni 6.576993204937835 7.216346715760684 8.91375866141678 0.08960037406765214 0.471736237840723 -0.458003718745979
Ni 1.4421173883216754 8.369667170093955 1.9664630732562234 -0.28119229677845764 0.31194269058743695 0.4682760472062645
Ni 8.467499721058406 8.674833010624887 7.554840281729368 -0.419999985808696 -0.100837123323736 -0.42095463641248143
Ni 7.329275448979169 7.851445425677474 5.774517316146625 0.3669889808293034 -0.357132656860514 -0.7813402529926544
Ni 1.011044742812944 3.008265010042494 9.82270397541341 0.6188010246734311 0.27679622459329106 1.6830004206240048
Ni 5.462188917758548 6.628255194893378 5.107009657668958 -1.7499684020041217 0.7253632234064024 0.015101374417812704
Ni 3.1341903949369136 0.4559074910593215 1.0727328529799978 0.135163921630064 0.6801660580444737 0.3039136496353734
P 8.984086432812296 1.8525570364235082 11.29549494808362 -1.292831145023496 -1.1040262981395244 -0.5232128084534603
Ni 2.8915645537500785 0.3517298985690212 3.813886478717529 -0.7423708137079924 1.7436159774235325 -0.25467471010390336
P 2.0858743393835484 6.4206432065775925 13.44808512307169 -1.8673444035231452 -0.6415964253013918 -1.363973826606593
Ni 0.5023730755393228 5.688455142361165 11.483171614861602 1.186509344436105 -0.0969187621059363 -0.03498525782593329
P 4.466017398200194 3.8399578177192035 7.789357847303084 0.15489919527546225 0.4570806927110773 -0.3465263420995774
P 4.804218330482107 8.776223615622134 4.204645350139256 2.6184309998375808 1.9729434670118988 3.7703330386124616
P 6.6803625710551495 6.0479579490483095 1.8403398122497971 0.5371782694946168 -0.17272156816886383 0.6135055806024466
Ni 3.918365065857079 6.312526671763778 11.34755680344967 -0.06836768994112095 0.5330187388002885 2.3420219833803793
Ni 6.759819584482074 3.1277152939947217 12.94886505938284 -1.4482265632090863 0.5068909313649851 -1.863250950180062
Ni 2.477752650781652 0.6014523389089991 9.973954715657197 -0.46207068972650095 -1.2259937756839725 -1.8755799040590602
Ni 3.4212779765962456 5.441797459267714 5.974485526764799 0.1629295217791065 -0.44524513352872996 0.2708214950670949
Ni 2.509589337910621 2.106590946415238 11.588696251306878 0.3486788696662059 0.7384881908241346 1.005943597632474
Ni 7.9960900765668965 5.103810196026934 13.162783071399573 1.2870019399362287 1.0601704772968386 2.2455361950468036
Ni 7.2370261629591335 7.466692512303275 0.3940828185051082 -1.4667091953943063 0.5426840298041944 0.31548335675084377
Ni 7.973896366163888 7.126234120151989 11.674206601568713 -1.2918584966975817 0.366062355249976 -0.19339915112287337
Ni 4.474582739762174 5.8318735187536435 9.242447605384907 0.033973528731967295 0.8701294440129209 -1.2670013284445856
Ni 4.025441125340153 7.126466369109743 7.388021429349391 -0.8731957416430703 -0.05339204246789514 0.2904775787351256
Ni 2.325165085537031 3.3095755178747037 6.256999661948032 1.0616923132580036 -0.6920471257527759 -0.9450940704452692
Ni 4.9387647966883685 3.809291665337317 10.096203135052448 -0.8883932753191152 -0.6251534492540202 0.04197043089451481
Ni 7.2882695729980576 9.167943997728965 10.398882053743748 -0.9770271717084399 0.06080890375725656 -0.7867508824852644
Ni 2.6559433411291145 4.398256442285779 10.829505994266096 -0.1826300855318274 0.271653504050087 -0.04867612504946456
Ni 3.689209664219997 7.6360391623394515 0.12940075829825584 1.4477413960425518 -0.5463311396384785 0.7727969914083336
Ni 9.001235695852879 6.6021597020000975 2.098719564739027 -1.2101421533636965 -0.3817008331181813 -0.46434020248696806
Ni 0.487770190071559 3.3952382234528256 12.42223404470399 0.9313234990237379 0.5320851712424255 -1.4274353374953481
Ni 0.9550913239107611 1.49020221253514 2.4102899025289934 0.8163244823773232 1.048080121791208 -0.5459125640438212
Ni 3.499713094609051 4.705874831810596 13.479616170572253 -0.3750527316740444 1.499525470593379 -0.5724196091954141
Ni 6.7579801727366595 8.241094147081137 3.1043649837820975 0.21941460135002858 -0.647085473440421 -0.21861858781129448
Ni 2.244658306821056 3.957800938883771 2.990519331678398 -0.18729149556323874 -0.2961412047788061 0.11806222895277087
Ni 8.01486508231176 2.102921412882719 6.54311644296395 -1.1630588267226485 0.5737025896728959 -0.32008486007859716
Ni 3.1550928011348067 0.23971622624408853 7.042200873261471 -1.4583741931660494 0.7435568635962936 0.2717406644472546
Ni 8.641091882042334 3.1052243049257884 0.6715320684176337 -0.24296282098361383 -1.9549786550033619 2.2213287445626646
Ni 6.678225880643809 2.514698814981217 10.398528106332131 3.374210630752312 -0.8940440458469894 0.8789580980481443
P 5.966707973667521 6.511814857433648 10.973917467201934 0.993940916744643 -0.38139281495945926 -0.5047180920833824
Ni 2.062900272482486 6.127052654101138 2.032516534833228 1.130170303524744 0.861794184674348 1.3478167572307562
P 8.518343662889993 4.146071233997773 5.064791442128369 0.723238977974548 0.2727955880743302 -0.6451054668959147
Ni 0.7822182057000423 0.8218212979763175 13.15318375747767 -0.6498440100221647 1.1525134471066345 0.6390332925599059
P 1.4547610215818232 8.814823392400912 8.201123172455778 -0.37994914053439727 -0.22209703327819816 -0.02451315465001585
P 0.34101857663738966 5.065609887455496 8.93374600672112 -0.24122218414342328 0.582224511100978 0.6789591822205662
P 5.385398122366643 8.916297607022951 0.9861606604833097 0.6906281339180621 -0.086832838624844 -0.5094486647898323
Ni 6.1099498408521065 4.6378816269384275 6.525903079211028 -1.5233230872336088 0.8447374863023774 1.1544155492253538
Ni 1.116643698924701 5.3824624955406275 4.661864583311974 0.681506117012136 -0.3154501895200632 0.4772430265915652
Ni 2.5926322752452737 9.115827331608886 12.215127430120276 0.9783613171388311 -0.815302211760396 -0.05071860940079007
Ni 9.074431277378746 7.2966584053521455 9.499195112199038 0.4453307512640008 -1.0428741521102363 -0.833061849736662
Ni 5.664942257878113 5.582001510084872 13.153455953256158 0.32675018791391475 0.11617169679827734 0.03081544271895983
Ni 8.5145162000662 2.9223514755899975 8.644392604229937 -2.5281842504351815 1.491433951834496 -0.43890299336078603
Ni 4.8499156354098565 1.2258471588608058 10.595586702007559 -1.0191575252195866 -0.004054886795663984 0.23384594628401015
Ni 8.084065981764251 5.895881331510748 6.866992259531575 -0.7219642250271824 1.3138630259931308 0.2349587197322147
Ni 4.903881003233662 1.7828637691805767 5.705404671298079 -0.6883845892995242 0.5109756429573199 0.21436726873410825
Ni 7.204706397998035 5.61646725541562 4.0949597413668535 0.8037900973557383 0.4985322749876446 -1.029127234837789
Ni 5.342952302847454 8.391192003498631 12.138292042928482 0.6210540823736659 -1.305661721129261 -0.9559466968890568
Ni 6.699416275549317 3.8846518071494547 1.9354494764335357 0.3914607407184226 1.0140963086465955 0.19680817680442234
Ni 1.0853829892109628 4.632976528950655 0.7451410530883037 -1.0227084757956386 0.28254006905560375 -0.5959901974265026
Ni 7.470640744585099 0.1848255785725897 12.685726061251307 0.7676586417405037 0.9772925095546844 0.3192294540568373
Ni 5.247479401293788 8.836933493179128 6.566136030660733 1.3824199491269225 -0.14142944292380158 -0.6122573100176424
Ni 9.196473459699511 0.7978950103484624 9.198842399068607 0.40800758933351017 0.8240385631921293 -0.1698049087427011
Ni 4.372225979100668 3.9596960903790466 4.352034254713504 0.3659785372869181 -0.7648391700138376 -0.6240776996913382
Ni 3.9262243705874864 7.6444837344434005 2.8748379838126086 -1.125503494176694 -1.0669008540421367 -2.9077078733963857
Ni 6.610399895021223 3.3901008765072986 4.862403197370394 -0.6921144886556015 -2.261125307734312 -1.1145773341824934
Ni 0.1896935167271213 7.582408233014812 13.493389462762918 1.67190585337274 0.37047951048106514 -0.7999370421582352
Ni 7.633568033428945 4.6842385189061995 11.03772740384703 -0.6076185256940503 0.09312947026683316 -1.1605897963568657
Ni 1.1117943406867898 7.042243607069698 6.8326064078422935 0.13700097483880275 0.06673761053686571 0.5202526973838717
Ni 6.703169418706628 4.868597741571618 8.872111778312266 0.7259049548424853 -0.9609765460034805 -0.41798938313657047
Ni 4.645360043378117 3.1667888586473167 1.3050189705676085 -0.18109205162074618 -0.9763298885310991 -0.368085813437908
Ni 4.809104848553259 1.1042694744555481 12.960286134129369 -0.4203848799519405 1.847313195903883 0.4306448671170519
P 3.203316974722924 2.1514707350116926 2.5248016446435324 0.23259073372067038 -0.6227538386735919 0.10357920484524742
Ni 0.790383150058855 1.7034439155868923 7.1336391459210295 1.9816798184436322 -0.6090048645186157 1.1283923856887148
P 8.948533762359258 0.1729465088813692 3.5624686209859444 -0.42805139535826287 -0.19292735369277744 0.3983525827422495
Ni 0.5028552243756208 2.2466091980661926 4.781801661079655 0.2072957065993075 0.8581038803069544 -0.356318902709967
P 3.396390178283287 5.816452187958753 3.9031629780783086 -0.9255490584338061 -0.054802806772492725 -0.47935981582425186
P 6.403270984537565 0.1502260578421747 8.380043124530589 0.7978940435862775 -0.05894485396532429 -0.18319958488205224
P 4.327076781713219 3.2450939172437803 12.079241351925686 0.2984827084277892 -0.45039453894015336 0.5796235831430211
Ni 8.59682523069435 0.1285014903338309 1.3163722286184731 -0.7070803659368144 -0.12303705645954292 0.6465992778326219
