# total energy = -340877.4749709108 ev
CRYSTAL
PRIMVEC
9.16192376012011 0.00000000000000 0.00000000000000

0.00000000000000 9.16192376012011 0.00000000000000

0.00000000000000 0.00000000000000 13.40940152438275

PRIMCOORD
 96 1
Ni 4.0755718969837735 5.287410407277738 4.055365273856258 -0.02453989412289322 1.0237315177435145 0.09389591611921248
Ni 1.5272102542501362 3.8439676231046245 0.34687410304102717 -0.2482670068053466 0.7763523128597597 0.21192677761341566
Ni 8.649543291366644 2.1252639977421777 3.765225468278312 0.0692277239485711 2.4922787947878238 0.16189773808048247
Ni 4.863066740637971 3.481164599197808 5.465631815450796 1.102019809232457 -0.3653367899378612 -0.376833477723551
Ni 0.1200541858144236 1.7377054554991351 1.1025587469678468 -0.5009645385782211 0.7725445090778953 0.7781590270511952
Ni 3.6129588742779752 3.9074139460055735 1.3987344280009757 -0.5696973251682447 -0.9551257436496582 1.012339730966805
Ni 2.0079272385519307 1.9273206322150995 9.305012063266394 -0.3555259744950264 -0.4234342083012256 0.1666733050922549
Ni 5.924045012247888 6.7743173583594585 9.573253038375336 1.6634975747043865 -0.733802098202375 0.577665945196018
Ni 8.727575397091899 2.7364009685414477 8.20140427601376 1.6165749420109192 0.5334784520455264 1.2641574312378874
Ni 4.271499639256236 8.297340613394326 10.174745251901275 0.008762576683978457 -0.33777045028381825 1.003862289623413
Ni 1.269531144995377 1.9803956572786667 12.370481851971512 0.41044550935104146 -0.9349220150082738 -1.1778904924188425
Ni 1.7196106558270232 2.751563952570483 2.7589438822595396 0.10563017383700518 -0.418540370544034 0.2169247450486393
Ni 5.540142077634806 0.1734434648672328 3.171390790735135 0.84860185435379 -0.5490765635940995 0.9189492937291012
Ni 3.2946461527548427 6.342250189884963 11.4258829185059 -0.5580288876913809 0.2707780434236691 0.6725411945093643
Ni 8.21163997737765 4.0082134325840935 0.24950300838013006 -0.3061949894703824 -0.08870588727784078 -0.3268730866450241
Ni 6.6948010209648965 2.277883325812072 2.1773788531826375 1.1942949019187947 0.36783898753442457 1.1038704892879507
Ni 0.6091030236968856 6.635230191867139 11.003473333998176 0.48847283386911355 0.18453270187117896 -0.738796980313805
Ni 7.132887573431583 6.807978266711529 0.073314631117067 -1.0921318606947836 0.6004616029342948 0.7064267915132156
Ni 7.700789425419361 5.813561372123331 2.119021062807202 0.20538846227426563 -1.293768569236101 0.41337116763826875
Ni 3.2420750335049298 9.030743458433765 12.841902232107588 0.06092331784793378 -0.07405651279578213 0.4273237731636189
Ni 0.28382632382905826 6.494374774065088 0.3744157624305643 0.35334130813888176 -1.9609022195766488 -0.4510283158694103
Ni 2.8467929894271577 8.930548658831631 8.342592271652821 -0.32753514570905523 -0.3879619835365447 -0.9723655045667123
Ni 0.09165130557973279 4.884707204853429 4.585733472265939 0.7434198237977971 -0.683481495570952 -1.79812490710469
Ni 6.73680844197585 1.1504627821909377 10.121067372246099 0.733242369044163 0.2240688122925883 -0.5140992761879662
P 2.7004220934465697 7.409110416628801 6.642561563359606 0.3712636969452574 0.5564168060092547 -0.665348533415667
P 8.045836640837797 3.1646018051366362 5.820645371670914 -0.04270550928832645 -0.21542450635402896 0.693972882020579
P 2.671223042026306 1.6847128877505297 1.0481286733617454 -0.6242692468768539 -0.13745143211266006 0.47387693833280964
P 2.098016436109337 3.996513655783442 8.57635875956874 -0.8626303074223982 1.4552017089753388 -0.44950776545982585
P 2.289125006418493 4.5721939811492565 4.688530258251304 -1.9418230914580108 -1.2129199732191498 1.0382099138653476
P 0.5165135371113684 4.777686771957257 12.062735577264505 0.96891354146237 -0.13089871859580682 1.6517879995769424
P 3.8918386754017305 7.337665734176584 2.666620091466676 -0.6406991102981031 0.5070601099529977 0.30919006754296424
P 1.5539813958409776 7.691856549631863 12.58562214863001 1.3687470796255201 0.6255149463584968 0.1343455394938267
Ni 9.16070534873701 5.368502595580453 8.561634631693776 0.6073881548507991 -1.8283605660607802 0.20526504932252393
Ni 6.901979605767665 4.396679005291713 4.408287162853518 -0.8402570819335207 0.04794953129608516 -1.1056787461412827
Ni 5.868615372745975 3.201139557588476 0.23071923203189515 0.2685890061921503 0.5239183191609171 -1.6585926812036016
Ni 9.103186790589406 3.6178330177845894 10.483162179436635 0.2156278806140867 -1.9089379106942155 -0.5321147389287804
Ni 7.72962199988424 5.667117180751666 11.60162694246056 0.42636989389078184 0.00013164048185783782 0.3019040754045123
Ni 8.409757419458536 0.936999117603324 6.790052046438894 -0.056210999973929004 -0.467617330576343 -1.2998422862340064
Ni 1.636759378138462 5.191182720717641 2.580331259936608 -0.09446361569722442 0.6388687419575836 -0.3778554912301621
Ni 1.6478636298866136 6.909070934854356 4.429983514804672 1.3857235595788586 0.05153030666880803 -0.3968389743112004
Ni 2.878419950676844 6.611711533255336 0.7408065957305955 0.15734251460963225 -0.3189867419184119 -0.05988047840571623
Ni 5.455513386712629 5.229278000229864 11.662076400058853 0.42706820550938707 -0.7348634495873537 -0.49877652978796677
Ni 2.0599761281404207 6.693289303523935 9.077038659822719 0.8683795512013497 -0.15772560898066385 -0.14159219375391097
Ni 6.048638015154749 5.004407740405906 7.692289908631605 -0.7846880864189647 0.8861430458323578 -0.2899944684511199
Ni 3.8841701451103092 5.124291514436076 9.419850365813307 0.939155593473647 -0.0538278444537331 -0.9319271940460079
Ni 5.837794660798134 6.662376972337248 3.463554465299192 0.32679878176366295 -0.3084984407925784 0.5104195133435339
Ni 2.279477500567995 3.91509163822088 10.804169422774233 0.763210376161163 0.26655937735663127 1.0264897972149418
Ni 6.484003476227706 1.7641650916778995 4.763944802322725 0.4044851780025486 0.47387436722964843 0.798428833043825
Ni 0.5623332346507097 8.599207681544577 8.633173681962004 -1.5108465520331529 0.7526241160048844 0.20945903279921343
Ni 9.052035769541607 8.79503464265431 13.50366982667801 -0.6701248717583879 0.13588228785332726 -0.1127269327827865
Ni 0.9594183453489737 3.6959109331292677 6.382351930727917 1.1810814885523144 -0.8852164202530303 0.8297916636258225
Ni 5.253905251631705 5.466580990765243 0.9222612468425345 1.1388806868145482 1.5243433009680072 -0.27108529025144285
Ni 4.089140706256886 8.040705963462413 4.914881084975016 -0.8194069779573887 -0.651952057504103 0.005756442867802989
Ni 0.8832644340200649 8.474687974028793 6.157986492910001 -0.09357221423120658 0.14401622981437132 -0.50496928886224
Ni 7.435954853610719 8.081494848596714 2.6121652806660864 0.5459709280855822 1.7315685593406953 -2.15751653520271
Ni 2.082386193962186 1.8002997194788157 4.993714859040174 0.04783048921971763 0.2221739092627206 0.05185812232187198
P 5.561910808784648 7.361862375155848 11.880448107271453 -0.005042190409597768 1.1065441794653716 0.444697488555376
P 4.948620785872493 3.2977612068756113 8.145581589977198 -1.832486929524328 0.3118948680686371 1.421696378129042
P 4.3541768403909895 1.3379890402612102 5.078341717577573 -0.8147399114990227 -0.9367122741394772 -0.5967116489735594
P 6.8276489172917945 3.218657156055857 11.385721625157696 -0.15833958841557894 0.8911865217935362 0.480963669976262
P 3.5089435524159565 1.0133912389532327 11.006973188922098 0.11755237919588787 1.3751139023838124 -0.893305625019068
P -0.1254276541727495 1.3769913502380107 10.118010038245803 0.1358871729493337 -0.9086399413832932 0.025742141961110503
P 1.5718563093398585 1.1731660295770103 7.142612039442712 -1.7182389321113247 -0.15401242179513475 -0.241679583395816
P 8.930924297710899 3.9781256745470217 2.2967358165894414 0.4847138810473136 -1.2901944787315973 0.4117562577426651
Ni 5.68410338763374 0.6858405495772443 12.313236319155667 0.046565249354048835 -0.6678368470551594 -0.07562745682732781
Ni 1.1540267705820524 6.065514278950207 6.7939000544704315 0.03757564426092883 -0.09524600238920371 -1.1840917361335477
Ni 4.508940058649884 7.159338047686463 7.61663440596202 0.7063591715000739 -1.353731065832662 0.18366726854709015
Ni 4.582629412453832 1.1741555173565486 8.959438037224594 -0.1591191468940808 2.5861549134126944 1.7119523277716646
Ni 4.827866629073285 0.21898555611287043 6.953137040162183 -0.5731734566423032 0.841213275199203 -1.2203931416677434
Ni 3.4228031440528186 2.2300489212105044 6.943133135472572 -0.11881504795839537 0.09475260769255293 0.9051298713475056
Ni 3.5083297035156873 4.637765870391436 6.8665119660255485 -1.3920477020246735 1.5225011055529456 0.8349986617480588
Ni 6.647415550633674 2.4202138133595454 7.475244847997495 -0.2738145162571478 -0.7697150100489002 -0.9471805206606526
Ni 4.886796123499121 1.0374962606936513 1.1755114820914716 -1.0889092399924278 1.5480964375235469 -0.8431243761789866
Ni 8.437637153839416 7.069331307444019 4.483728276504205 -0.5616477153908908 0.8571610567777109 0.36262633298523356
Ni 7.884715047402981 7.587593855824959 7.255371501460206 -0.5381681442117119 1.2577918940311759 0.8363747161599789
Ni 6.2825327700050515 8.565775821289622 5.549145500236215 2.0860339537816914 -1.7381495549923227 -0.8423412181560589
Ni 4.841691972215168 3.1245641977608747 10.53402368368968 -0.3352083459835969 -0.578465558279178 -0.4425063944413282
Ni 0.7583535123544075 9.437239697346303 3.678534428289709 1.018492123721446 -1.6826504934837538 -0.5327081495384051
Ni 1.7779263013525892 8.812845422685998 10.671845588493534 0.08910877914321427 0.6180924286421807 0.407175323240202
Ni 5.033551820282862 8.003655143273035 0.8823830569423651 0.6287329390751624 -1.4298555169010665 -0.17047570955748062
Ni 7.27868126820744 4.596885366018291 9.651698346867787 -2.2278482908487374 -0.41720082579700407 -0.8958150217044831
Ni 1.6583173850389576 8.783444808940274 1.5830741689441796 0.4928714771574415 -0.2489730317334357 -1.2135547785896714
Ni 7.6506278921511015 8.322352665599322 11.75177163488922 -0.6384769058358036 -0.25011717264020794 -1.9815846876266645
Ni 3.205628900291936 0.3469327393538887 3.120663050570806 -0.25038765269277524 0.43688544871012497 0.43430046159176816
Ni 7.91841260345059 5.579364273784837 6.341306511724848 0.5238486422652462 -2.033011121727757 0.03515237953141688
Ni 3.804516378857478 2.373488001548016 12.698234103672961 -0.6112702635140247 0.2920282110516971 -0.05595954608475524
Ni 8.010618205425342 1.587880514214048 12.202596010132686 0.13148184479278646 0.40707505021691187 0.4699660333141777
Ni 4.440298924906358 2.4713648344073436 3.1358287831770073 -0.5340860037225382 -0.22110355901667725 0.8918452384234575
P 3.8457175505665857 4.606670300727058 12.848754434980892 -1.5196428101685442 0.35255043680647025 -0.8953128852570839
P 8.292292393333904 7.073628249745902 9.343858620537157 -0.7278029431961466 0.4646739316773029 1.0462392119277273
P 5.984925996461145 8.753787661325779 8.630666063394788 0.9179483632684126 -0.4902378961893364 0.0405295846829302
P 7.188610394497804 0.6092065534367818 0.8695417044256906 -0.5868882351252345 -0.021081246150331436 -0.3023416771625632
P 5.394238439772334 4.308358059044037 2.678004698085697 1.628298143985118 -0.061353720517133045 -0.17933984481632986
P 5.95079782999096 6.08275701970105 5.752781169072804 -0.9691205152668534 1.0673957914006842 -0.6273640837520937
P 7.95288892302839 0.12877816973735273 4.362789048842527 -0.7351724961873403 0.0016431920303778154 1.0598179790534263
P 0.3647618432333469 7.221107738516529 2.366652290137705 0.2728899475603494 -0.25474335855830965 1.9763049272849642
