# total energy = -340885.7262883643 ev
CRYSTAL
PRIMVEC
9.13754032071971 0.00000000000000 0.00000000000000

0.00000000000000 9.13754032071971 0.00000000000000

0.00000000000000 0.00000000000000 13.37371389610657

PRIMCOORD
 96 1
Ni 6.034130179104513 2.225447978352801 11.363845536854836 0.07834048488311669 -0.1481950437824093 1.6820038610386903
Ni 4.676273392082616 1.0744102820393309 6.095979449197211 0.13909410992240562 -1.1571445181207425 0.8721588157381237
Ni 2.7061100190232685 1.940192240359708 4.932506474075528 0.09379821419908362 -0.279115616755087 1.1827467920698793
Ni 3.2235415224935378 4.72716949242926 4.888814410625345 -0.22782108024616896 -0.08165900773338838 2.0978070351572193
Ni 3.8190350340897274 3.231198781396677 3.0175649130152653 -2.8188526050248743 -1.106538780148733 -1.3290826711563626
Ni 5.204633393939705 4.841598911574866 3.0594239858497314 2.2452965682321717 1.81031296453045 -0.7756701991910706
Ni 5.60501300415315 2.932373795824632 0.43259035407914653 -0.14116333374660853 1.9160963761158678 -0.4665078995622482
Ni 5.8104797388739104 8.544358743346631 12.69760571593703 -0.6853072359257811 0.20128009653284692 -0.13772088372396282
Ni 2.45817199625741 5.281763372938991 11.827672572986943 -0.2678431291650613 1.2423665606150411 0.34002016554994346
Ni 0.9270765797073229 7.848535037530307 11.593713159612522 -0.9378643854660494 -0.6630486816378969 0.1428576907298959
Ni 0.5573086437795669 0.19471459086476428 5.044070360533752 -0.15193059956544158 1.2710860400369208 0.08317133061285677
Ni 9.032568392434753 2.606556515741997 1.6090450329283839 -0.4772455976947264 0.4206707866234755 0.9827062243710881
Ni 1.790080725728709 1.3780964391346104 2.877274426867673 -0.5858284264021523 -0.14295770664286991 -0.6155532071600947
Ni 2.3141186709495387 6.688451176164203 0.6727971038641624 -2.201856494770666 1.0340544969360772 0.3075797856330509
Ni 7.916509200991472 3.9751499128011116 3.7006536286963803 -0.5306270986396604 1.3569652564992436 0.6586662362994851
Ni 7.948728168643584 3.8770310033716213 12.712397566429159 -0.7696237358866745 0.5473752646322767 0.8369922951393197
Ni 7.942030351488451 0.575021765955863 7.278416475783782 0.821024973176786 -2.18051788119389 -0.8073970979807062
Ni 7.032936451400912 1.142558058769182 0.7646129378862712 0.9985961561284673 -0.8978101977576408 -0.712194033014296
Ni 2.3777707777744443 6.7436876082280195 9.851345015135164 -1.3692960101504548 -1.2770381438552973 0.5711754523756679
Ni 0.41219993254888876 5.339823305004085 1.4852441522898672 -0.40877223541367663 -2.205187101805796 -1.1079942816483368
Ni 6.5562675159102435 2.4567648150270003 7.217873873976464 -0.8936378115475061 0.45609133221461445 -0.4254733502184414
Ni 3.823594666777874 4.71601255553101 0.9207826418403986 0.12262593706405334 -0.5485500016666681 -0.3470680735356603
Ni 6.081727627346105 6.3592530061124 4.965406188491702 0.9391635638934471 -1.0965649567654727 -0.019256534236766838
Ni 5.728908915212422 3.309562328357686 9.316477256964452 -0.10948271481387598 -0.5720570836496728 -1.5886681882983222
P 0.34005722313114695 5.906698039888302 12.748706497189916 0.14282632327132821 0.8945248421381498 -0.2654607449758138
P 3.9665514872308796 6.4484810886770285 12.956641281588167 2.7059323252843592 0.34618901336481667 -0.740238340746022
P 2.588062133856609 8.64615094403992 2.0511265502804314 -0.6954759489286667 0.18762291076072848 -0.7457718689697413
P 6.670240058032989 8.38169224812743 5.922228203649372 0.12035693852421853 -0.32768144147893247 1.4090303526255992
P 4.493029155753784 1.2240192319451835 12.684004486966478 0.31733043726191157 0.036638477158640124 0.27414618856495365
P 4.194670184745056 6.070442764881454 8.926673436076179 0.45674490663821343 -0.37950382546686257 -2.3629332796117497
P 4.807899662368685 1.6618901706545501 3.939241206312379 0.7056073809357138 -1.8526814021943316 0.7586497533736741
P 0.33929606601106155 5.784081384493039 3.6159979713765393 0.5078355546664415 -0.2937004565477974 2.3472978870673384
Ni 0.695497495622002 7.480794721830005 2.4104109860416334 0.9239801712847894 2.1413576660546605 -0.03271728772736301
Ni 1.7517761561320968 7.254220268653097 5.069921376241237 0.21877851042792643 -2.0315093403712496 -1.1029888580139453
Ni 6.392486240755263 5.647493429738707 9.321705757614067 -1.0313682083531657 1.7596969421457953 0.3374138382753479
Ni 8.726067872878653 2.6879902762966266 10.530007506218809 -0.2770916443465228 0.7936596937899557 0.12789515588279263
Ni 2.6923762957160866 5.730297821361918 7.264200290340459 -1.035613613893081 -0.5442421183199336 0.841213275199203
Ni 0.4126239144261032 0.6064686114393414 9.499228979862641 -0.06088166597672095 -0.9238418459347123 -0.8683733805537626
Ni 1.4228338372130966 1.436430497413421 11.502036216205363 0.8253829930351656 -0.7392548937868301 0.8324555836112308
Ni 4.305855777028353 7.294928011389955 2.0292202107883233 0.8397482606179021 0.23264061312199935 -1.239781059276052
Ni 5.645053706436633 8.264019002119516 8.13908232520217 0.38765962180477753 0.3428982584286869 -0.018404470649116694
Ni 6.933410360741012 1.421134254688056 4.938484253042632 -0.14713472083869497 -0.27580994942062176 0.29225318257830957
Ni 0.8748939136643042 8.090487971296696 7.2396733042452235 -0.5576612199393169 -0.8359959926643216 0.45650553693389767
Ni 5.189218363188396 5.089911573499469 6.88916090732294 -0.3108327453527098 0.17483912873249888 1.4750740224192338
Ni 7.970987217197341 7.692191720307493 8.936637010190717 0.7576488229129855 0.5896819958202877 1.5542393171964908
Ni 4.554862892027705 0.27531226646755996 10.432245874621193 -0.45339167389526436 0.0419999985808696 0.021351726202898713
Ni 8.448323193141384 7.2367401537584595 4.899607673413398 -0.2491386107770225 0.5920510102730966 0.5688118372394978
Ni 7.29405994504652 6.456366786091598 7.193547000017241 0.25063730680973606 -0.06319900125598793 -1.6727787428959966
Ni 2.5296641127945985 5.607068950756022 2.8874253205615843 -0.9390216389989441 0.04372700857430534 -0.8109711884852098
Ni 3.808508587483025 4.160824734891561 10.03376230405262 -1.3688694641359973 1.0152772163285742 -0.4756862236274066
Ni 1.131620422841905 3.7817173188624937 3.936859963269231 0.378311090710342 -0.878253872892268 0.3209497791820537
Ni 1.1547566752795533 -0.06045579517297393 0.39553305875494293 -2.0296766580378853 -0.6202259300454157 0.5272594677190081
Ni 1.2325171445703862 3.634356203909114 8.594256110521302 0.3905487704271145 1.2041000609346748 -0.14491277348671172
Ni 5.175091725641555 3.4603134708206893 5.073171599381865 0.9468120815776404 -0.31020102530598187 0.5815071733189792
Ni 4.128578354618077 7.224303961196202 6.1557069823957455 0.9796283567767129 0.3298062011314191 -0.8597321599389968
Ni 8.084301856407167 7.906942196132776 0.2876525148550182 0.679030915998766 -0.13133323503006414 0.22824839759157464
P 0.49053241187234276 5.9472869945992155 8.415195953967826 -0.2708618613867271 1.0853858002202017 -0.5809536148083543
P 8.645575278991116 2.2998001450530956 8.301465556667196 -0.16821828098187158 -1.3155944068619407 0.4213564998365904
P 1.7444478486854167 3.4678610792383426 10.755822629783722 1.2223230117006048 0.01960260472227592 -0.8375638513720737
P 4.180653197683701 6.489892422029091 3.985460713453024 -0.2991964466653621 0.46456234580010314 1.5423497648477564
P 7.100554250784244 4.153624353011281 10.681291367290468 0.861418032281852 0.7197890717527345 0.7500363006730502
P 6.332845514191071 8.28442312996046 10.570061914812975 2.3855738998294016 -0.8458597728322786 -1.0694611585701452
P 2.6823158636727014 8.88750080013613 6.013236279095063 -0.7398321064465387 1.7300264116645558 1.5632713454917722
P 6.821968917324913 4.611771493995191 1.5494783204418963 0.6434692168440724 -0.8931487877262295 0.258763021240664
Ni 2.5993561338617175 1.6420434327814961 0.3688806807493611 0.9745691970862507 0.8119446081420727 1.2745449451197983
Ni 1.501891837248853 1.431889139806189 7.558742510700211 0.4678502725227556 -0.1083617138355553 -2.0760279916089153
Ni 7.00196018925098 1.106610974610529 9.516467863689208 -1.093574249568265 -0.3303692727237407 -1.3675520308761544
Ni 3.018586490038381 1.883055199880792 9.373837253430525 -0.6550237544508913 -0.38417372013870615 0.9182826066793798
Ni 6.4345189268584155 2.5351009493666368 2.7275558264763338 0.30212930404144095 0.06865051128886242 -0.2690453770032786
Ni 4.741012866221929 6.678472981984932 10.903414924510669 -0.3745472527925356 2.884725810678916 -0.16705768501486712
Ni 7.543606174932847 6.567479278051237 11.51527559857381 -0.5481239698728432 0.2598333714867073 0.1823243813659505
Ni 7.868445738186562 4.279749823942112 8.185809879592234 1.0246717701695967 0.3574771846841263 -0.0445135090313427
Ni 3.043084236004154 8.65770079517783 12.45174374236305 1.342375788720843 -0.5235807333158402 -0.7145779598654404
Ni 0.2542694245486576 5.328392241892119 10.574862778569193 -0.08815978496638366 -0.9964572554085935 -0.5903422551121059
Ni 8.847240796881678 2.7105874138473 6.075116616825315 -0.35914531641516856 0.35417588822503515 -0.6146656623488189
Ni 3.698117961219505 3.166596370364223 12.220257861190392 -0.4770383667799267 -0.2953295075107881 -0.3841120136628352
Ni 1.2465249940912848 3.5058001472166667 12.867425077826136 -0.7245872644723264 0.4351664091364893 1.4578250055307989
Ni 3.2047090516112338 8.051589461570364 8.183522753215795 0.01953421337818571 1.7458710920062965 -0.3573509435189071
Ni 6.108034606322405 8.498716728762883 3.8488215884721315 -1.3883766809309896 -0.28620594794296517 -0.17073410542518982
Ni 3.6476056375720645 8.659619678673844 4.0487317848408635 -0.4001886075097237 1.1808215500227084 -0.533533730763494
Ni 3.7106089790245074 3.2868098526192404 7.537692358748942 -0.2998911587395416 -0.24193823637384143 -0.7844399749639006
Ni 5.336506377818118 4.826777820953276 11.820691492077637 1.3054403491470743 -1.7944649417545997 1.4337821056489823
Ni 8.0545500246785 0.08442265003818257 2.9023231665230145 1.2861822722484106 0.044451545445155706 -0.7563429596173684
Ni 4.789496655887869 1.2169924633335911 1.7635252056519737 -1.3937212330723545 -2.463341285817867 -0.03884834032576535
Ni 6.2087485772417415 6.32781072939915 0.3543227512929387 -1.0016673388546233 -0.22948818353594672 0.5158908208707502
Ni 8.167736738321926 0.3903337982347921 11.366078751742576 -0.4304906009273747 -0.8813577086285724 2.217846699551335
Ni 0.3609392443380024 5.18943766415937 6.228085440357283 -0.24619186944387278 0.22029366152087224 -0.11769096165628119
Ni 7.705103064973526 6.501159009412828 2.6831016921520208 -2.6331590500763746 -0.14985289110080646 -0.6693501983758924
P 8.763513513672288 1.8955370801453368 3.8497837714822754 0.5614137450032138 0.4645296927899548 -0.23628180941901245
P 1.9421933617198364 3.412396208663095 1.8134755705612966 1.059511760666917 0.535097475706188 -0.7893937194247501
P 4.925984097697174 1.3891437255473738 8.403172778234232 0.1270019546445619 -0.1590813516776099 -0.3595996303437678
P 8.91924461568447 1.7701974376938265 13.049762870141612 -0.31245613988874577 -1.2000868260102235 -1.2109379097921145
P 6.290438188929173 8.341797746491263 1.6656027533423134 1.100800077892743 -0.08512305502258888 -1.1353215087083801
P 1.7739986545240247 3.45638432842409 6.284121407211106 1.532851081328702 0.5216449497457081 0.17839984950056373
P 6.986892385037045 4.331806391926821 5.970426902053047 1.1835489762562004 0.545768582266789 -0.09128316108671376
P 2.319034667715517 8.8993156399473 10.149004050544871 0.26435671327835764 0.31480638528847715 0.21345786954596138
