# total energy = -340869.7373744521 ev
CRYSTAL
PRIMVEC
9.22325299692739 0.00000000000000 0.00000000000000

0.00000000000000 9.22325299692739 0.00000000000000

0.00000000000000 0.00000000000000 13.49916306170613

PRIMCOORD
 96 1
Ni 2.5360256111082564 8.656354862333062 5.829438001056846 1.3760438703972493 -0.5084091677817244 0.7678818134949033
Ni 1.1942175592838449 1.8402510838127464 1.8188503701618353 0.11983757568563876 -2.416292411959181 0.5789903204343964
Ni 6.850820102350006 6.808264013574717 1.5123386189210908 -0.2860807352190105 1.6391443426710028 -1.0069316725773563
Ni 6.6572701407224715 8.597639634516963 10.785858224277494 -0.40809834927510363 -0.8853061517533591 -1.0065192676302859
Ni 8.556586935960652 3.7007195379322617 5.745648437968855 -0.9883508242513752 1.2780082210780506 -1.297112031787037
Ni 8.842922821532573 5.753492814540893 10.619507635384752 1.1920991798190568 1.0809874140421898 0.07963220711134672
Ni 0.6960576811588398 8.654353416458715 0.5288013688335585 2.15646392556848 2.8769492520572904 -1.2004287827306745
Ni 7.8395712572890055 0.16555462216944236 8.517256218716511 2.2842752634882144 -0.9330322541847285 0.8243959465315479
Ni 7.094120289997026 7.466435338889982 6.349830530242283 -1.6319262276560091 -0.5893132996269592 1.1487766057720217
Ni 2.319694214874098 1.7101939949916904 6.230484404987491 -0.5983196168906276 1.271894909091461 0.9725089721231122
Ni 5.788089236083179 5.433003223564788 5.0256029207270565 -0.1207235778350179 0.6981588950774685 0.4262271976653305
Ni 7.112465339969728 4.44584769137354 9.898976975041613 -0.5345775986469761 -0.6835460302603001 0.7755796963597934
Ni 5.901360004667776 1.4867053545248436 4.209146741160139 0.15253300903613085 -1.1435138147111854 1.5699289600176058
Ni 4.786038150495292 6.747648795665917 6.93126623627002 0.20515037812153056 0.07104060878759379 0.6071364438513092
Ni 5.859329641306485 8.27576655560928 12.963475607181001 1.0439169915524535 -0.0909175502171789 0.5654182381769165
Ni 9.387980173562156 8.002610698398842 6.461320288696297 -0.4721103333506902 0.13205160125332743 1.597376000484965
Ni 4.627619559076921 0.7877322031315286 12.323116227822139 0.6369668969491803 2.2561314540641466 -1.1940226220940147
Ni 2.3249514690140884 3.649825628556006 3.0580737141851473 -0.4025182840841649 -1.9116154575263784 -3.079933732875754
Ni 4.984199738561414 3.5546232123577974 9.302462172884981 -0.7182186419418211 -0.7102065702706221 0.5211986062369088
Ni 3.829374692315987 8.671259638982578 3.1987615242724354 -0.8339221408544283 -1.938812843876777 -1.740071454605384
Ni 1.3641283237871773 6.75864291309551 12.696583260999454 -0.467611159928756 -3.347766320517854 1.2630233176334442
Ni 2.1363820639402293 6.048129627702274 6.6649143727070745 -0.10603255148174642 1.6446657867098642 1.7202891297721339
Ni 0.7877368147579672 4.390139243995399 12.227056049106352 2.566479546470954 0.3118125927674759 1.047152724880932
Ni 2.39823021312325 6.631952311574624 10.527956705000616 1.3780691283573943 0.38311545407752085 1.3631099359444008
P 1.5799247713544595 9.034563569814534 2.6509657884636217 1.4273489484291288 -0.18237940297360203 -0.5324626091865023
P 2.8323871725576693 4.824766589326553 13.481357566933271 0.31830334269814214 2.0155512743800967 0.1918660023077986
P 6.072396006022124 3.3293360375799015 5.690099552865488 0.6344934957080234 -0.5980272824611894 -0.6542683643421054
P 1.0847744406432769 2.611416480126292 4.632251476671838 -0.21185350117331903 -0.29507316852560794 0.30545245487740297
P 6.607363119404074 5.58139613910567 3.117239959066942 0.38121540884133054 -1.7608598521056447 -0.1990013278009992
P 8.191668935875192 2.5121835024207573 1.1180842184091973 -0.05552734364334307 0.9447752536532696 0.6973765083854893
P 4.221104688515397 7.497868184695396 5.059944780489932 0.17541839827473663 -0.20267594843910902 -0.47600195509561244
P 8.493324644476104 5.601834867481491 12.917943174702248 -0.6915359904443122 0.8481922776201973 1.08104783496648
Ni 9.406980074489137 6.800193667307188 1.4622425209187104 -0.8617203940136191 -3.0621617536043138 1.333494169960497
Ni 5.993491077657883 8.105025698347003 3.9019469352547573 0.5630332828845077 -0.41029612825737083 0.666024219326453
Ni 8.65391070032061 0.9914074517676262 10.81108843252301 0.3602789157989795 -0.7683037315236704 -0.03204417291973836
Ni 3.268038298958191 0.8760798977914201 0.7097154740193617 -0.16520777629032193 -1.624064051299113 2.7803238528220566
Ni 3.380423635266578 1.313483442238605 4.236604364975491 -1.577317282061877 1.3003025136998767 0.37037949456809116
Ni 4.931765545954669 6.111926867853698 13.502537844840418 -1.0962566814964345 -0.3126937098208486 0.7123853230894956
Ni 0.6864258381792051 2.0606314880599848 12.987571355322622 -1.4400391423022878 -1.2228102357496682 -1.2724057872896086
Ni 8.160964727047073 6.734127506947978 8.396101413572506 -0.8980274559747695 -0.27660442029745913 -0.2111644455260944
Ni 3.7917253740713552 5.638294386104967 8.723482619098435 -0.29395628131234536 -0.4952782868267212 0.3794493180798433
Ni -0.1489343204847716 4.263439419221634 8.145151459989156 0.2970868565215271 0.2205669697869169 0.34246708442853924
Ni 7.658869286919377 3.5686978962483673 12.418325100297363 0.9584411811761364 -1.1094315283154956 -1.972699726432209
Ni 6.857626862973362 4.534409365500182 0.6936190530981146 -0.06328101944683294 0.5330220812343982 2.010101049898803
Ni 4.614015261083086 4.453761242342157 1.756983556837603 -0.3582253757040605 0.06594391099097675 0.5025748204881344
Ni 2.041650033638757 3.2276773443676694 8.581728600978545 1.3326071393698535 -1.5366599135518308 -1.3028471344986015
Ni 5.052101326243183 2.5708987302368587 0.5194370001873618 1.2649706711678022 -0.592809742815992 -0.2819155480977274
Ni 8.669442658165774 4.604044924722859 2.9786845650448566 0.1301934649986661 0.42936882861810566 -0.001899531015558019
Ni 8.672873708236084 2.0533266717812615 3.414815300594991 -0.7630437686763117 -0.02066112789377732 0.2767070073135944
Ni 4.108046054746977 4.98359100387152 11.480916104824448 -0.3276804130376679 -2.952574652002089 -0.118922262960221
Ni 3.6873273747546023 5.86564756952735 3.3598742278562304 0.5614533399918975 1.9180074770956517 1.3045281217454503
Ni 6.400734585196704 1.554782184011278 10.281583329494921 -1.1183265168122802 1.6063956874850722 -0.6431840815034858
Ni 6.45741147412695 0.3468616379278133 2.1010228793850008 -1.8241251878231939 0.9916230672447438 -0.9039214528617013
Ni 4.106524218022242 8.823581660249138 10.219419527428045 0.11157507856653043 0.12082590774083707 0.8551342561556692
Ni 1.2059126439321037 7.11452212536134 8.685482817244472 -0.06146916304907478 0.6902175287432049 -0.5795798743892793
Ni 6.59865636868802 6.237270874454518 11.714870370331026 -0.062294230053531435 -1.7980531733264906 -0.37285315291956433
P 4.35248070249789 2.210887500682056 2.673037032598703 1.0844293498442032 0.5482823498275783 -2.5417195659174547
P 6.116981210430391 6.156788769848282 8.810931046602803 -1.1163650222105355 -0.4163827007710829 -0.47804829610168
P 1.5833189284132603 4.977282298903533 9.480164741418953 -0.4184920338046018 0.9723513634993256 1.028193924390242
P 7.807981616184679 8.92079474557457 5.026979952381619 -0.008626822437062562 2.2134161745838075 -0.8972036745218935
P 5.66933985528954 3.0636233454413437 11.802291128076762 -1.258374763117839 -0.13859865834322582 -0.5212238030478894
P 4.767222714625854 7.992944729383562 1.2678818353632724 -1.142481259681613 -0.04778138114933707 0.9919503686771757
P 4.613332740370176 6.943725928581798 11.328997139708623 -0.36452740666268835 2.3600207339506456 -0.23615916779821908
P 1.5947096457165721 5.722751712701266 3.082547615694733 -1.8447410643013327 0.6035543829270057 -2.336183265211415
Ni 4.846395117323531 0.4600208051525954 5.873593401881037 -0.4308808943872579 -1.8002717782443638 1.1820235407506092
Ni 1.8536985865076685 0.854718844127881 9.720072616657747 0.148746288300189 -0.3431790228938993 -0.714317250004886
Ni 4.363345694387203 2.5800758668496484 6.879740534071678 1.189868233606009 0.25506320379157366 0.7866760633832709
Ni 8.673417880155839 9.031381547571907 2.5319701468181623 0.0844944202996545 -0.7425279081111471 2.177915410574036
Ni 2.9375968181276133 2.6976354480221314 10.823196718900165 0.5080327582789121 0.3226222817884702 -1.0269289416348895
Ni 2.639326043332626 6.785049086082865 1.3334490177418274 0.47999384986382504 -0.41263968878888296 0.49958899838693316
Ni 1.1191126111050023 8.550269007739786 11.504634621923392 1.151009094646966 1.4503055572253023 -0.4501307437558054
Ni 8.267539414042838 7.716616073183374 12.29048804844384 0.6140156874696457 0.2757292167813574 0.6077923322677533
Ni 9.165856574521131 1.670976723757939 6.472510861412174 -0.5350185428391366 -1.3070624581315298 1.3940714173229216
Ni 8.076987009600389 6.964136987198988 4.24865915648596 0.9278957042891117 -1.9883893692533239 -0.7022479775451776
Ni 2.8542278353708217 2.7576972707582996 13.102759638180384 0.43622981740399713 2.1109114337496613 0.6734860749211369
Ni 0.03309303132330676 3.1764052816234494 10.593400295790618 0.9202317599859506 -0.065916400187151 -1.9134540533970144
Ni 3.247525784559352 8.02080817632551 12.952271199585807 0.8526467138471251 0.9196224085367259 -1.5428871254084653
Ni 6.618311120569281 2.957417588560664 2.8552211797056937 0.10341953933893157 2.7390242227423216 -2.789951091499176
Ni 0.9589047086284588 3.834779518502012 1.0659543931473996 -0.37606188966484916 2.6392520503479897 -0.5600060660224098
Ni 7.565862004905937 1.1860642037404212 12.935248764075691 -1.048346230968401 0.12982811123944737 0.002156127111054351
Ni 6.726094053691957 1.5718083088225445 7.201250216815999 -0.5495468183622987 2.057130383373464 -1.170187981568262
Ni 1.8471869699763825 4.626743350053588 4.910711626611941 -1.371458307909096 0.571963495494602 1.4641584039479945
Ni 5.62982743996372 8.881448348800538 8.060484765552545 -0.46140040313235375 -0.6462784041580935 0.7539919428866885
Ni 6.732624116728998 4.2159950064214415 7.619048814947458 -0.4110839142659887 0.18033357618816687 -1.4652734913890442
Ni 0.7373132912784471 0.2912629472589099 4.664703491920181 -0.5127381341743815 0.7174097728872806 -1.0809208224703126
Ni 4.198166458609862 3.760781360668431 4.176222495364485 2.047535540596177 -0.6567361091563078 2.6125801974837586
Ni 3.2984381404413625 8.305779020471611 8.166399989967593 -1.0339755640690258 -0.14931835875357508 -0.5121940887454534
Ni 1.2726244319927162 7.110408554578119 4.7217105733034295 0.35410081201272564 -1.3633109962116134 -2.1443694562977904
P 7.779094388173364 8.703006075385819 0.6719610106919304 0.08981891783636144 -0.5401211541730246 -0.4064510434796677
P 1.305883481867812 0.24631250203670593 7.595762868408453 0.655911042151851 0.046254145871533245 0.7489363827406521
P 8.780075576427498 8.022025645705297 10.15806644928907 -0.6814698644575619 0.18333791023212942 -1.1160991701436584
P 3.016566309261993 4.15473416081124 6.580383260087759 0.5923687986238314 -0.4567986426942843 1.215143977453662
P 4.39072030892666 1.431209041962877 8.74811884985866 0.11187744029829766 -0.43741998105735636 0.9246556000852593
P 8.117283401420769 2.408163656471969 8.9726368053466 -1.1168072519542767 -0.5459488165983952 -0.9588538432335229
P 2.442750854761378 0.9272873977655002 12.074609513925951 -0.1126649691965995 -0.9043613686125974 -0.6943477488614945
P 8.949276150459289 5.752727284552088 6.413411946276383 0.25255714954026826 0.7180265805356731 -0.3619089952032348
