# total energy = -340864.1774616421 ev
CRYSTAL
PRIMVEC
9.33029475986058 0.00000000000000 0.00000000000000
0.00000000000000 9.33029475986058 0.00000000000000
0.00000000000000 0.00000000000000 13.65582950170391
PRIMCOORD
 96 1
Ni 7.489828873059265 3.7301399146459295 4.247017722292913 -1.3494380948842633 -0.17031373005831957 1.553751836037111
Ni 1.3836547343148056 0.627001411618546 5.003865115121904 1.4888739044168036 -0.6557953425095931 0.48251327385156895
Ni 5.372663679376483 0.4970248062803002 11.809219826389443 0.0009173696079468071 1.0273917402039208 1.363950172457509
Ni 7.429443204836136 6.904950010538392 1.107683273452055 1.9102023792289362 -1.0253310010201504 -0.49799748553009715
Ni 1.5760267533853374 1.881108734157878 12.465355083654886 1.6176545482283429 -0.013816079947485883 1.8667512500238366
Ni 4.914835441731129 0.433476168105434 4.514153393939455 0.1146899700464283 -0.6268403500381398 0.7947673250318377
Ni 1.2118653456676702 0.4261229627397591 10.674461903362314 -0.08661198086328954 -1.5531990488574348 -0.03825235861297928
Ni 3.3996515410162225 1.8022584124406862 10.468258655216694 -0.8703942676385332 0.019596948295321086 0.8761481394031749
Ni 4.508986276655468 1.8268717302362079 8.041699951514476 -0.5771455539161738 0.7960086536381065 -1.451140908642404
Ni 1.6945681493641473 3.422688038983297 0.8669252783558237 0.6882989715642533 -1.1675983664642149 0.6872193653468293
Ni 1.1470477873941722 8.832542273603506 7.030567502126043 -1.1368268896093132 -0.8877397008955162 -0.0422185423495789
Ni 6.750682915606189 7.565198994800062 8.918417374307904 -0.5408338639693331 -1.963857959770863 -0.8172094560854378
Ni 8.301536533505432 6.355479616946256 3.2560685667086027 -2.0664012671524286 -0.07159133908474122 -0.015527406211637772
Ni 6.8794316541431115 8.087966084551873 5.042305929874576 0.3407385317732067 1.25612067697634 -0.8898901715796157
Ni 7.8840711513503825 6.063646654850606 12.53169534604674 -1.5228026959537644 1.247205376764581 -0.19666728035118386
Ni 2.2988260342736853 4.0220661796900075 3.4480151243342987 -2.159783476860016 -0.42229443826982754 -0.304334796333192
Ni 1.2480109078889934 2.8595954149205522 10.39778040706202 -0.329202248998833 -1.2567279715430357 1.7366094641987124
Ni 4.240637666679351 4.135307968198061 12.681786201007272 -0.9598504028188373 0.1271096838670198 0.04504701293730951
Ni 2.6480962914221133 6.1281469830994455 9.072674205915781 -0.25829919423036807 -0.14242883072259344 -1.2949919001202408
Ni 5.398433953732523 1.2352190736594029 1.6190347474635998 0.627366654855255 -0.15738956579748378 -1.5051834402101048
Ni 5.480465905991138 8.216481565717723 0.4201581052467049 0.47969148813205775 0.8665743796718108 -0.7860728825816332
Ni 9.271663270088885 3.3619011680819235 8.701617710309224 -1.2830406412956357 -0.7280862787645203 -1.5035392197384623
Ni 3.6064761867983774 6.927473342289108 0.13068570774630472 -1.1573548343593358 -0.19207220478133372 -0.5804517354712713
Ni 8.687409537322484 1.5846666064098456 11.863638771060549 -0.12335278792774884 0.6458585430118555 0.5189288363661256
P 5.62158661548972 6.363858221715162 12.61332982774505 -1.0154029432731608 1.749735460057709 1.5087811848636916
P 2.837351992015123 8.135112064392953 10.148398420442515 0.41386173412144206 0.6254846073411937 -0.07416167091507872
P 2.8282176333639417 8.427308907987475 1.6960264744480897 1.767998520032955 -0.7418010572474515 -2.158669160749915
P -0.003974705603067541 8.198380793722533 1.529302502871155 -0.6582679724198018 -0.8497207984495818 -0.8959739158798504
P 8.07921426798925 3.9037953622616413 6.542002474179784 0.6913896946744351 0.07700273990829964 0.47294902720190163
P 6.295224572850926 5.457448068613749 10.864004044006998 1.1017791539765607 -1.5687863617727305 -2.541907770668861
P 9.220850484374552 4.4178572869250425 2.4551000756265924 -0.08709277715445 -0.23013353042942947 -0.4893878894842153
P 2.8682259376502177 4.2390235256715325 10.607329498938297 0.973782182408581 1.18148489463832 1.0802582491856494
Ni 3.425823018050505 2.2147507474444796 5.4608704207621175 0.07517417133999311 0.6335694412318572 0.24239743539844705
Ni 5.700828809590314 9.188315746257423 7.14567255051422 0.25157473102234096 0.39963299211656983 -1.4558581116124152
Ni 9.279622011589861 0.23645019796727285 3.101430126041652 -0.2118797264255641 0.9370665721551023 1.0278517105594749
Ni 6.496404390253137 5.763593702998378 5.335782889921542 -0.5256306738663336 -1.559470226578127 -2.078217800171382
Ni 4.293167226644774 5.676168840320577 6.728868686263532 0.16004731513530498 3.1260580380376424 -0.5282753105780321
Ni 2.364082116404799 3.6383578042765037 8.657741065781089 1.091375185034417 -0.20770579755353263 -1.9886421086940784
Ni 7.061559009476159 8.196859955663143 11.348936788170926 -2.6921450416922794 -1.0049550084669596 -2.313225113753345
Ni 7.9472465777315335 5.220374606950971 8.54711549194698 -0.3180945691214457 0.9894070334300314 -0.07916760877010236
Ni 5.369211470284617 9.137092427570003 9.575672266954495 -1.4026365332841133 1.8509585059659543 -0.07447560261107174
Ni 6.464392148647211 2.90472605107557 11.4210123828027 0.705881717643023 2.006105298475848 -1.769752012388952
Ni 6.8401511128545796 4.158419108523878 13.273657186483401 -0.20752376344971354 -0.26415899544525473 1.1146457255265836
Ni 1.7300139394722545 6.502030558043395 6.502946792996966 1.6258278280677547 -0.5784635013966488 -1.2169321797023365
Ni 8.56487477515092 2.5686954823091916 0.5456403075591345 0.455366538233448 -0.41426951108282206 0.9950850576514153
Ni 7.15646676861795 8.804196837870832 2.1921154521556487 -0.2695583120839551 1.256071311795643 0.7996696474294616
Ni 1.7112787074277482 3.994644443146779 6.302560983685884 0.989142209804419 1.855219081014521 -0.7464848358763659
Ni 1.1584214168076448 6.303547195850776 2.432785742480357 0.7136266516957646 0.5192024017424864 -0.7649255590800568
Ni 2.6776173443049904 0.43822248909200784 8.526372380452285 -0.17959875490467134 0.029132398589582085 0.8674729802266802
Ni 5.938480749533349 3.642612418724858 6.168146890120363 -0.9950755445697185 -0.03837757133693391 0.8279602668440386
Ni 0.8877775543001796 6.937764657500806 12.963369834218016 -0.26891013697699495 0.6759185956220295 2.2212757798375424
Ni 1.2380554832916388 1.983993895390333 6.929213442277305 1.0447402587846975 -1.6949627351922036 2.238621470204841
Ni -0.007660172066005754 2.3716116643430043 5.185146212712703 -1.8629383040356498 1.342237720481082 -0.992001276519769
Ni 2.5326059018569254 8.450858572170908 3.691198063060195 0.3674646349141414 -1.2980103752315904 1.1258264247337515
Ni 9.286087905915979 5.984535084877813 10.840366675052044 1.0072162936973104 0.15706354991663274 -2.3421407683464306
Ni 4.355941450347681 4.42749548149774 4.294867206365147 1.8052877434017167 0.26384069287388756 0.44622575227444444
P 8.868473239043443 3.900595071130533 11.057520890254754 -0.8841452986760386 -0.8576138280444134 -0.21269579456895626
P 5.360674250503381 2.0200648152529133 9.979256969471788 0.1585532470882818 -1.5576347160312851 0.04970070965923698
P 6.155932601141547 7.109824624698385 6.859131731653454 -0.6080887804622496 0.04114613522100656 1.2589694592790448
P 0.5023421413112584 0.9996664500560152 8.722538097405932 -1.2865527682139521 0.29160629302293 0.06658385856782081
P 3.537161426410611 1.9435284066567557 0.11299173660626416 -0.39757842358038625 0.0960301888533959 0.6572953240938872
P 9.046392631402352 8.048993442993156 11.641444330583715 1.98998885252996 1.3607144391290307 -1.2873580377240668
P 1.473010968025082 1.9386393321590858 3.317738083502112 -0.8478276951919269 0.4502045344165343 -0.4517117150896801
P 3.954794753872832 3.8076186830212184 7.138653369703921 -1.4243543845771793 -3.134080394121486 -0.1740127761764616
Ni 0.4009013097204816 7.566020060746236 4.5367532341078824 0.6293854850574967 0.09204549317403503 0.8212314327606373
Ni 4.788643203981156 7.0946069138096455 10.601034349007804 -0.47093276810282114 -0.32335633174101736 0.41252244648472824
Ni 3.6053285605327035 6.143047463963528 2.3980042693650634 0.1782350417879253 -0.8165731080530194 0.12909611816942929
Ni 7.251383858054584 1.8220852889818095 3.0035861231128065 0.2589838790022185 -0.8358664090649928 -0.7290211318739639
Ni 8.455868940501535 6.268838499035257 6.260173454214673 0.5525061581009388 -0.06987512772458288 0.329308178449078
Ni 4.900886650941021 4.7032056941048905 8.92605142154835 0.18663766402932375 0.0017789462772937106 1.0666278028864085
Ni 2.9512002496879632 8.860439855183722 12.406006944218285 0.11996664506433533 0.4765971654774501 -0.6334254594548252
Ni 0.046371565369121306 4.761333430976042 4.576778332924876 2.383418286938979 0.7949203056699342 1.2663354127258126
Ni 4.851034885595505 8.123439865544508 2.786089486089363 0.20481844870340854 1.8299669913159518 -1.8112167072916419
Ni 1.5649143722274654 0.7544261813172637 1.2352022791286859 -0.35006469427013903 0.5777335652091599 -0.41658144704545025
Ni 5.59833552074126 5.713228771436503 0.93161407856049 -1.7714543397920395 -1.4643347816248586 1.2528787730002744
Ni 2.4279293240146376 6.357336345619989 11.38095929310118 1.0701538137617954 -0.9170734168626271 0.971048842637818
Ni 4.155946580390515 3.593553728440987 1.8697976177198528 0.40580466814492044 -0.0077544471344382585 -0.63047974656294
Ni 6.6459410257 2.713259070604798 8.541939977397634 1.6586204491177434 1.5247001700867935 -1.1148979507467056
Ni 6.8342170453345075 1.697357907522169 5.401208783418795 0.9646676217018224 -1.789654407739834 0.5332907615147525
Ni 9.242562080473936 4.837935151636099 0.28685618282645614 0.3277164084819259 0.3558576468028323 0.4515613055547449
Ni 3.4583204349882615 1.4092384027739868 2.8495756112887816 -0.20762017981826178 -0.19575325317734674 0.011055229372897088
Ni 7.81570808103659 8.783063720051706 13.301324309780997 0.9934781181756115 1.7017273076095465 2.364590612709515
Ni 4.041174623528229 7.8909662392392725 8.038790765582466 -0.7768775892356103 -1.6076161901557344 -0.3334165441904967
Ni 7.684813374685803 0.564217857620796 7.73863611351645 2.146045044228001 0.22172910841581814 -0.8022088689115474
Ni 7.442123075527611 0.9592196219121236 10.022819183063717 -0.019764327111120798 -0.15648016660933695 0.021051935574292774
Ni 4.525482237937681 7.028072581285057 4.724930352617054 0.24217066409962168 0.22545283712430852 1.1562883407680344
Ni 8.833260706306408 8.235440724838458 9.263732519472434 1.3638871804300574 0.5852990362612436 0.950138317737396
Ni 7.037393545833097 4.12513794681932 2.1614859602454377 -0.2799846496236017 0.7328117092646476 -2.0309514109852507
P 0.32618710770713905 6.747753203025524 7.93620790590292 -0.5181809024565075 -0.14059229173448687 2.4057002382656307
P 8.703924159194385 9.171185324925892 5.604311574588126 -0.16708339604647998 1.0370305488452656 0.19328627969409293
P 2.207314502454703 5.3020240171210276 13.691198144026677 0.13672766657275806 -0.1549850701210492 -0.2248925937454643
P 6.859306208167015 1.8840477770333859 13.124167202510753 -0.3033832310532001 -2.0395314393447777 2.0032999678165693
P 2.6521736302684524 6.090443261639361 4.399771443401602 -1.651141110021563 -0.344182010237117 0.5342811504524799
P 6.081626133012839 6.401347346393861 3.139325118546015 0.2532490334009703 -0.38486431844782754 -0.17165044659187212
P 5.331666363836863 2.4850960405169724 3.8019607922284946 -0.28663172262647413 0.3326660391777174 -0.3478574022061751
P 3.701477248888598 0.268231048261096 6.458797703859419 -1.367223443892142 -0.10735641249949254 0.005204684129391036
