# total energy = -381173.64912816335 ev
CRYSTAL
PRIMVEC
9.18432390577272 0.00000000000000 0.00000000000000
0.00000000000000 9.18432390577272 0.00000000000000
0.00000000000000 0.00000000000000 13.44218640178424
PRIMCOORD
 96 1
Ni 5.018700351078907 7.9687603116395 0.9293902124960434 0.20953436612183912 -0.004306083574521616 -0.24767719574014768
Ni 2.057187538545378 5.28893989915564 13.107597130655211 -0.8627647761177336 -1.3932455789875167 -0.3299761510503801
Ni 1.8900420268729863 8.473567493548469 7.30808688630831 -0.46269238247089994 1.0070805394503946 1.498350219338355
Ni 7.6540410826446195 7.012745662427863 4.9060885997591255 -0.7464120736569017 0.8601365944662671 -0.1688461443738576
Ni 4.762641399189997 4.885059253197432 7.761854943129868 0.03398407025492857 0.946001412750887 -0.0270865718041469
Ni 6.994569885319248 2.3276566947210062 13.359167703426902 -0.040554524383594664 -0.15000869995238036 0.07276247657470694
Ni 1.8488962555508084 4.2909161521699755 2.1159479247824677 -0.4368936762402411 1.709744007266436 1.7177776762041899
Ni 8.119622016938182 5.1916595398153484 3.0294657886180225 1.0156279147997733 0.9858612250603022 -0.4309179182727805
Ni 0.18728030508078686 8.681096477654705 11.8535217792398 0.9460785458457255 -0.8007636518245886 0.7967609584230988
Ni 4.52529091519914 1.1936498472451262 4.282962527624215 0.5116078772246802 1.169389396926367 1.0947744405239532
Ni 3.4528465911992767 7.3713659599316745 3.1603929187705466 -0.285925697698385 -0.1486789253973633 -1.248932643868333
Ni 5.4283671211292965 2.771222804492413 2.131729348635793 0.28227113166493323 0.47046045645209295 -0.16616037001157835
Ni 2.3144680055204154 0.43593761029368305 3.820336190347247 -0.08127077115603423 -0.1684568793552389 0.4935556477086596
Ni 4.076012155927199 2.5843677336107813 6.707650686506309 -0.5352594552053491 0.4165997018778954 -3.1899165272545003
Ni 1.8863774816146046 4.372408658630173 10.616625705783795 -0.6711479137062635 -1.2776019867785675 0.14793639080438392
Ni 7.287715137341854 0.854391941505023 1.9147184684775458 -2.143198061697509 0.15305262898502675 0.6790352868741403
Ni 7.020947263720431 5.903058904787056 7.102569269148405 0.6061614815325496 1.5458325811900344 -0.5348226247782466
Ni 8.310334503881267 4.25628206653249 5.343148534440213 1.346726609490371 0.16537721198865069 0.6820172523205997
Ni 7.0327307513557775 6.48976270341028 0.21815065476116724 -0.515232618461461 -0.5523776029428745 0.06411354265045734
Ni 3.900233379736314 9.153666682478665 12.233478179725433 -1.5553122385456957 -0.7445012297874339 -0.26400961435158404
Ni 2.30515510102919 6.011755378804461 6.982449332994722 0.4444496342106281 -0.2484007041697335 0.8913654705735616
Ni 0.1230580013871572 7.655639155012937 0.7014417209387827 -0.8369979515662745 -0.9041381968581979 -3.204738679868997
Ni 8.265303763525766 1.6073393511881746 11.505194353593303 1.5688346985121626 -1.873298307113735 -0.6050643918136289
Ni 8.516844028028403 3.743493707105893 12.260402943834382 0.15193394199955124 1.3387587607935458 -0.8174094879113858
P 6.361503619366928 4.665149800398721 1.3436987398737157 -0.024485643846190088 -0.4476943664001709 -0.1229799779693624
Ni 7.87410666895058 7.803396558814542 2.2911535991585072 -0.7511421321427192 0.3016981300412933 1.4496902922388066
P 1.6790689212833105 6.554604030538533 1.6513588974761357 1.0159860694701406 -1.9450030318478893 0.3166048719497967
Ni 2.2241677323865643 0.9923202818090859 13.387786056873308 0.43573616559703027 0.044953167671922575 0.9412680118309596
P 1.238726509220405 1.749301446573644 2.068981128937076 0.8115219187823574 0.7246425431902939 0.02808518827199034
P 0.28805989184825503 6.837168941364006 5.889304461230784 1.8219348650400946 -0.6680505057278624 1.6471055064996083
P 6.486640033265293 8.120540449333767 6.7628447997513454 -0.648751034068302 0.20624463962697384 -0.3559743748863547
Ni 2.5168996898311566 7.641926959346861 5.275198313652908 0.32332522139276576 -0.00797093402061853 -0.1465513375313992
Ni 7.232379585507899 0.2434571409890978 4.541886070154953 -0.5034579944240362 -0.8239974255415486 -1.081207500472796
Ni 4.618236273632274 4.16228969516839 9.997492059272489 0.2912645934127952 0.37655965523687407 0.43784318463770394
Ni 2.7057293903632944 7.455687238170271 13.214812173218538 -0.2631282401878952 0.653471836582739 0.41640969735427635
Ni 5.345056118525843 2.4778479443709114 8.407052782595462 0.8408651478311647 -1.2816812990542636 2.24258636838986
Ni 3.823232007690524 5.319376748745305 5.4968325824905255 1.1830134154677046 0.20264792341465102 -0.5365529772057921
Ni 7.304228551814461 8.880579993975621 13.183773750409767 -1.2459789605566478 -0.21802954807704386 -0.40508373081849586
Ni 7.115509063169793 8.483991701238352 10.529667608137474 0.10816810976751048 2.3225109099306454 1.069468871879629
Ni 4.156136198117975 5.10068881103272 3.060059690147332 -0.2870058181364412 -1.3157314466604373 -0.0338881681070126
Ni 0.20602642870705856 9.090395874746859 5.485877520875995 0.9926677064591742 -0.3725235374942874 0.8196257788364143
Ni 2.8041118685782878 3.1952814101816083 4.493762967923521 -1.1859498723882091 1.0352359188386882 -2.349283035818167
Ni 0.2456834211159942 3.1276480485707783 3.78029253789977 1.373001741136816 -1.221248290579187 -0.17464655310571855
Ni 8.860089767230134 4.251460296455672 7.634799005524732 -1.1308657869298717 -0.8136780458934115 0.5550188972204634
Ni 3.8757112347742124 5.663449077103061 11.657937926870536 -0.6461647613983647 0.42879213017902923 -0.007109100240955499
Ni 8.090121968392014 3.1992765911024 1.8788812364018455 -0.3305333091054307 -0.23674692198088904 -1.394921938248675
Ni 1.5676814403468435 5.253644542193333 4.521171745904944 -0.05429501389813875 0.5509208158916898 -0.5038588294068806
Ni 0.9594220333992554 3.1198138202364443 0.3850610477402893 0.14163256007354316 -0.7582381197575522 -1.1274832436108841
Ni 4.228710726017049 1.9720947770944899 10.788726160230365 -0.5554084193493983 -0.8850235875159338 -0.646521630517151
Ni 5.065696536760957 7.608376623936166 4.888748596130494 0.6662985560337622 -0.500524365717009 0.33179957741236404
Ni 6.562970949662306 3.737257551139875 6.783800671721393 -0.4101860850420678 -1.8124369528519881 -1.288152508600904
Ni 0.6193614177454114 2.055543544557282 7.8717178262896645 0.37590633792359135 -0.9717150154669072 -0.47769451230668697
Ni 9.106422520049806 0.9150599118277412 0.42724923983145535 0.287261385790673 0.4165745050669148 0.2654985401922847
Ni 3.460809400068993 3.1351149039468793 0.9940607111987182 -0.5408701165239072 -0.6046103349953458 -0.4289211995577258
Ni 8.696673091083815 4.941974508751793 9.828201089524013 -0.8271051179325949 -0.8857188138107456 0.8559629227045517
Ni 6.063444754027946 6.438890733018863 2.5458018388878 -0.734813827296341 0.3672046963845353 0.3093060242955383
P 6.790760552415131 4.094389988162841 8.916336404000509 -0.6225939160569599 0.8728252456775291 0.06521963123044253
Ni 4.526374665425929 7.282792339701522 7.174323636918222 -0.47590322473421903 -1.5661684645339091 0.3946252544893333
P 8.722370829512265 7.200794695423754 10.03572088930629 1.8653104038122519 1.2174669691598838 -1.436152662763688
Ni 4.963557670048024 1.2361181612169454 0.37117894208103225 0.6788781924709856 0.3705877539241553 -0.6090840544959832
P 5.614496630418416 8.842327284699532 3.260603995885148 -0.03210279407181568 -0.5823821197247647 -2.564421892610977
P 8.423953775539005 1.8053901129719787 5.914293169849842 0.41275898797556654 1.5899128593387006 -0.08107588153640875
P 5.7512971357407014 0.614779358523841 11.778312268797796 2.250391466256576 1.0595575263031882 -0.48753078167081837
Ni 0.5295800589150654 0.1537887493434088 9.68959861984159 -1.3855129862299493 0.3191070695463601 -1.307821190674425
Ni 6.461328036442988 5.113069279725197 4.529129962612682 -3.372844860753036 -0.9164391257127378 0.6885488827915304
Ni 5.053775284266273 3.4743287249319943 12.54142580666767 -0.7169117502049396 0.5551536230261148 0.3378272716636827
Ni 3.8404985367275093 0.4513222713521161 2.125021118418445 -0.21868775048633304 0.45257200620744636 -0.22080248283649068
Ni 1.758338821346194 1.8525148791894106 11.160536983799558 -0.9249366216607877 -0.6578121158293059 -0.5635480177373972
Ni 6.706430089852578 6.674560485725801 9.304210610168473 0.8788151447123767 -2.029389980035402 -0.797901242675129
Ni 8.551321980158638 6.217768949457981 11.82123336994064 -0.014267051441975428 -0.09638191576585982 2.1406794090407133
Ni 9.137272664217484 5.217008273933476 0.6485280753319828 -0.8592997003872684 0.5509526975708899 0.8555649159351847
Ni 2.025281197122778 1.597576414823113 5.609182580577565 -1.400584535851091 -1.207859527977107 3.2788581846922304
Ni 0.4300063738829995 6.402125884223623 8.122561919036446 -0.8048041404425494 0.8146391242551002 0.5827145633635189
Ni 5.429175341637411 7.478363334017249 11.767585896849766 -0.1620481476154177 0.03592859557580909 1.064869939655037
Ni 6.569794902361498 2.778092678811383 10.72826300033186 -0.7123462423214442 0.7387108483579019 -0.6724038976005517
Ni 4.231199677809082 5.446662294449336 0.6259089222935319 1.3071920417308585 0.49649621839422237 0.4733714594513009
Ni 0.583541635885227 7.254320935438408 3.7968123813991452 0.10320022423927389 0.7241959425711785 -1.6409405153394772
Ni 6.341784875833733 1.2362100044565039 6.333743081777997 -0.7369558133400083 0.21573535272622849 1.9096519060421049
Ni 2.830627011838807 3.5719489042586523 8.291449696963262 -1.1972614407462865 -0.4561687224197692 0.9089903827441764
Ni 5.499169074504891 8.983334210393595 8.675452710583839 -0.416277028431154 0.41908004509758795 -0.2207538889867424
Ni 3.979558385742932 0.18947719537102456 6.5034776543735395 -0.06665842055949811 0.9316703408401954 0.38038854206466105
Ni 6.169689013549141 5.352128047971841 11.47711328309831 1.6166153083305512 -0.6556518749531934 -0.08986725457579361
Ni -0.01884898805457714 0.529782114042094 3.2896393176391507 -0.05467836537948648 0.43785269771940083 -0.39834178410897203
Ni 1.4194280830516213 3.907149175675064 6.339429096739059 0.6992698687534602 -1.2580014389388205 -0.3097459400464343
Ni 6.878011629995642 2.5670093613342377 3.8597360216854186 0.40072853917359375 0.25028660833853666 1.8034679165841585
Ni 8.450900582025449 8.478086180934746 7.670393771447998 -0.034029835891199456 -0.843107149787806 -0.38860887309192427
Ni 1.6502576970338303 6.647705522478915 10.908239931002962 0.03269414779891143 0.6806309134960342 -0.319250794213076
Ni 7.563235671693196 0.994901076840678 8.863414492502148 -0.2924383020059222 1.9719474216472168 0.34323610138407984
P 2.7910425755891226 3.254299875921857 12.295634928961393 1.1933042558707514 0.4581633842522948 1.077466802483441
Ni 4.53107703929132 6.901247969603925 9.58575789789964 -0.5063438006122635 1.274410219314147 0.8771089606545476
P 4.748598567861512 3.5335033241794926 4.609352277069786 3.425135185516321 -0.10631948659454592 -0.18260231761768553
Ni 2.552378733272579 8.881278002596265 10.355470372531789 1.700100056418769 -0.49759125123061404 0.08372848866790741
P 3.057590025435606 0.9291229486689284 8.633781595931387 0.3995748851851247 0.3903335690925149 -0.9326543020200195
P 3.022496723600329 5.6297701611569835 9.202937825204577 -1.4263691010143629 -0.8986578904699168 -0.8809136791126184
P 0.14596095003584356 2.774253631397841 9.897535387931464 -0.06576599065221578 -0.1262427078810342 0.2047289743133958
Ni 1.617809480497836 8.645139849367578 1.9571417792619816 1.0636633209414457 0.7066065116241895 -0.8749602897426608
