# total energy = -381174.24582319835 ev
CRYSTAL
PRIMVEC
9.16132652508810 0.00000000000000 0.00000000000000

0.00000000000000 9.16132652508810 0.00000000000000

0.00000000000000 0.00000000000000 13.40852741054347

PRIMCOORD
 96 1
Ni 3.173584254635017 3.82018151369401 0.003602233557602064 -0.9639556832364626 -1.7784891351516339 -0.26777216671780985
Ni 1.3628022764360443 2.941106434803608 5.3774631762715694 -0.4885502240742683 -0.9669798147747669 -1.9292287997327677
Ni 4.832773764172643 5.4733062251260085 4.835919763673356 -0.19951014911661769 0.4061779923239392 -0.6037413021268312
Ni 1.115638850315632 0.7331617164914095 6.467120504793307 -0.4287803031044874 -0.21536459965037102 -3.3171521951764222
Ni 2.6091182871424086 5.092927951190002 6.083784038548679 -0.21359593778572247 -0.13034284609233682 0.28646871468604856
Ni 8.40844863641487 8.612746216105931 5.596102812510003 1.2491630147115844 -1.090117401367916 -0.5827099353778287
Ni 7.371945323918582 6.962773000970512 10.014238606378356 1.6305722847312756 0.7797687947404764 -0.5107339592601591
Ni 4.377309258705338 6.974371240248041 6.476855330272219 -1.3979717808185925 -0.0018195697072420278 1.0703381618584598
Ni 0.9371853725218107 6.846955512071212 9.939567382934952 -1.3869510042280566 -0.44687855536709487 -1.0112770940302456
Ni 6.714629312920641 3.921514945486066 1.6964064820818852 2.7543811648143657 -1.2075887908142233 -1.8768212326653289
Ni 8.309973538473198 5.984178432923876 6.5571048853870995 -0.04795853015714966 2.0961597293617835 0.9306881794325843
Ni 8.293712184035906 2.0281252867456443 0.8902418196924394 -0.31695814152415736 0.02406089760394566 -1.1743747659561
Ni 6.68294944607886 1.0698138954450178 2.3868388559079543 0.6946300559886036 0.5027301151190761 -1.004923641008392
Ni 6.706869669422957 0.733067354829041 4.602477256167442 -0.3150061600041091 -0.8078331570768604 -0.4254507245106221
Ni 6.885607148336529 4.289497944743955 6.0407697786309456 -0.5605799362480088 0.6315544676843575 0.6460364633506164
Ni 0.1533880886442812 1.2029371299961766 4.009886932625794 -1.35665003925167 0.8020301772418381 -0.7185256316592787
Ni 2.7286461132513455 2.8072044875047477 7.025196447091542 1.9945741579077971 0.15185115247775782 -0.9060868359441363
Ni 0.6309286424425974 9.142078496687542 13.256903843060927 1.0878628010057845 -0.3391089665895837 -1.703569503024608
Ni 7.820822835672978 1.2514280308618624 11.833212642683147 0.6024974024174011 1.2504010008837434 -0.016997305888944922
Ni 0.3211878599169037 3.888305137128214 7.401158045549115 0.29338703907243663 -1.3584238433226412 -0.9452141409629012
Ni 3.3589087272614973 7.144249716490704 0.25227361401062187 0.4177397290196096 -1.2618107853825817 -0.34308517762851237
Ni 3.7823727194614976 0.21033672608264828 9.925716373484955 -0.2254116994737279 0.32804113881119634 -0.3847090238168858
Ni 0.16312657865376995 8.05041483767467 7.856284498070653 -0.566832859136256 -0.22032914274449794 0.6448848662446766
Ni 0.39912967690065515 1.475165945266129 8.355255226685712 -1.2251746222167867 0.862621822781966 0.9725462531189508
P 5.50123910945238 7.001415475909387 13.002946377249984 -0.06461722175975324 1.4997162464479463 -0.27095622087274623
Ni 4.226687890647008 7.24201939229622 2.520869977909668 0.8574377074778652 -0.04007449942338259 1.2927666103341475
P 2.3888433541338023 0.7437952680944326 8.056151660293617 1.6919481167355959 0.5599379317886357 1.0742619223928984
Ni 2.895336447891655 9.018180717865034 1.6863372681877842 -0.39694336109954864 1.9723911940528545 -0.36926800667146725
P 3.7840125968948928 7.1105451965049 9.995936108409444 -1.1909920627978068 -0.825801568629823 2.569887800821555
P 6.052127991155653 0.8776834734036274 9.139680977557267 -0.12224772778902818 -0.6765857968923832 -1.1219137199429066
P 1.6632754611314473 5.793503745654365 13.115242252264384 0.8542215145334127 -0.70744726235793 -0.16093845949100669
Ni 8.684488563485337 5.770554622913284 2.6539904640628937 1.2058836351976585 -0.20789014565019678 0.47612536804735417
Ni 2.5451905512193482 6.373168353716815 4.055798003964977 0.1758536860399423 0.8381881152196338 0.90163959880606
Ni 6.648603633242009 3.194334659029647 3.9255477613865146 -0.9245170176248659 0.13549842215134728 -0.38397831629844836
Ni 6.521957456486437 6.543880510665841 1.6159691197749118 0.8135047535403409 0.9915857862489051 0.41827271870494415
Ni 5.244877711582647 7.678043563050322 8.696543036819753 1.9066964229582066 0.3898998239892059 -0.337093993042084
Ni 1.340521930525342 4.5296712787879425 10.156128314203345 2.699594298881473 0.31210441297628183 -2.500257442117926
Ni 5.459765784642449 1.857889518771683 10.839614570319917 -1.390029128932748 0.014736791989542362 1.0156220012625026
Ni 1.0298613508247163 0.42592105995215945 10.940245328373754 0.2844192883561876 0.7148674660814011 -0.8207822610383607
Ni 1.802646720317104 7.028276485041862 1.9452555922679098 -1.8769778128478511 0.18731334994010965 0.42724741139972877
Ni 3.355464068518724 5.397239731665251 11.59723611228295 -0.6607621995965652 0.41451865097915064 -0.26391268376240357
Ni 1.6814057261632238 4.352033159047597 3.3935376250854548 -0.6578609667893702 -1.3230932863421472 0.6841525534960475
Ni 7.101512128631565 5.62811431936904 12.79016632540484 1.1940663308477564 -0.284358096100949 -0.500644436234641
Ni 2.2668053245793334 7.703796051683128 11.504516159613114 0.5868283284215764 -0.19575582428050803 0.9146226413292894
Ni 1.8315415439200462 7.526093802657678 6.181411713794321 -0.4374634327007821 -0.6960421058447819 -0.8692951210370835
Ni 4.514802445970068 0.9972287060328074 3.381590339270427 1.303553930757639 -1.9829324599038107 0.7687079089406246
Ni 0.13615838200190528 9.113302770328367 1.9263896727227166 0.17999856144625132 0.039493430108931984 1.5183899115980495
Ni 5.279425073601257 8.901364644383387 0.9853684528189934 -0.2347491748245699 -0.5330845590412173 0.6074326349354893
Ni 8.659881240657974 3.230815060927845 2.8102130671088084 1.2070113210441986 -0.0862635963849353 1.0193542146114252
Ni 6.787516826105488 3.6362220787076174 10.36497907313685 2.110158614744037 0.3904135304008309 -1.1632819984770482
Ni 2.7985470340155976 2.4210087712770902 11.25012994372461 0.8314654517838196 -1.1189937180826341 1.973374898122363
Ni 5.673426239958816 2.3109171114050047 5.795567792502096 -1.6675722589943924 -0.6106737675806063 1.9238536514637836
Ni 8.33540538068048 5.038637930685552 8.976311623752744 -0.34549378707000494 0.11785525514828733 0.6585405093548982
Ni 2.5754229284830483 7.832732560049586 8.378063264999561 0.32262562422257984 -1.0195326491708183 -0.04949527851665024
Ni 2.260410718721739 2.752254851496362 9.108439022119489 -0.07853460317179378 -0.9771986642892977 0.6693278297783892
Ni 7.394115733911962 0.5686655195343295 7.343689044768755 -0.6824132022074376 0.2833800484583959 0.19168371109366342
P 7.134492903828328 7.593026453654221 7.556751265468358 0.41749238889549395 -1.1724289550836389 -0.25208303811732713
Ni 5.562619996624133 5.9138377684903345 10.689573114225462 -1.1169951995953666 0.3311370041277007 0.45176673669733164
P 3.978983946266426 3.8067876544335464 10.129283795458468 1.055220332380415 0.17844047293051205 0.8242977303907868
Ni 2.50235218876933 1.8731522886266299 3.306435397790802 -0.6564854265980823 1.5536474492487629 0.7191085007459421
P 7.752186177957935 3.370360385315929 12.438004936914956 -0.6230664848180043 -0.44465069447784067 0.6258484184385157
P 3.359531697459658 1.4325291319978686 13.56393195682669 -0.02225983983946489 0.9370048656792315 0.17240095160465146
P 4.696773873118211 4.200724691506 6.6963396408087466 -0.4952114381445278 0.39235805572171134 -0.6557320933718256
Ni 8.129907667225313 0.267253298878463 9.698990950527447 -0.8912970792294714 -0.9061729679000394 0.1935413331276925
Ni 0.8605948511884821 4.306547173255393 1.1516969150647824 -0.19728845887495053 0.5525956324909516 -1.1131292888820572
Ni 6.2341818702417875 8.760930671330279 11.49374976877666 0.26320048818672737 -1.1695572899627986 -1.0345985423650053
Ni 7.775245236616339 8.078640884447234 3.2634211378730678 -0.2107929211192886 -0.41741499869033916 -0.002292138468286375
Ni 9.118204079975664 2.6439679729336554 10.295495908858424 -0.4697883700857329 0.5426981708715815 -0.06229937225985399
Ni 3.319679927430236 5.276896547502838 8.526938484237752 1.1020169810189795 -0.1977810822406529 0.32899990318003985
Ni 6.9122391243079155 5.836791013100117 4.049764354369258 0.6016818484946412 -0.9324326729275166 -0.42181569886119613
Ni 6.221337690567937 7.653912629198023 5.236110322176174 0.9948875969286287 0.0848677444786732 0.8443623623511457
Ni 9.089932226570882 4.603300859414717 5.009198008159219 -0.42684811907878095 0.24840764614826896 -1.3799084955589784
Ni 8.033585480997877 2.2346399074360455 5.643823245821787 1.636729305471607 0.8506227414385609 1.1849494561481528
Ni 0.8784411151005086 2.361460149394045 12.566686760406283 -0.39931803197931226 0.462128796657946 0.13454865664356827
Ni 3.2815138414664258 1.1570297231875704 5.383724942895733 0.5975691118778483 0.35223907621363854 0.8452493929417896
Ni 9.214920203240172 4.7776775469411605 11.717255901621906 -1.7178920902948671 0.9951621907462539 2.615298624856186
Ni 4.914456150743294 2.7921615894844463 8.371077753586357 -1.1174667399151463 -1.287774042215563 0.8186736993357902
Ni 5.799421962536895 4.938651213880697 8.548659989235398 0.5952507481573167 1.0425643341793014 -0.8063385748092049
Ni 3.136572495803093 5.128226541976983 1.929044625126056 0.8337820157321382 -0.09997014733775042 0.14367478731455255
Ni 4.1419639436971 8.846396685722114 12.34360846150595 -0.7079553123426 1.9347481868891 -0.25406021644835597
Ni 1.8745448102460485 9.036393434834803 4.194616835166088 0.26394790787571315 -3.0682066742468126 -0.9135281227135299
Ni 5.056557485209128 5.0383356069129155 0.5449578389637226 -1.2396735871639102 1.2370911711487147 -0.5699667767795473
Ni 4.402338002549104 0.198157658708599 7.191543231990218 0.6523796319598247 0.852730274699867 0.4496010965045806
Ni 5.463622703075181 4.005423534382499 12.077636832196939 -1.334883594108856 -1.4268028461176718 0.052343032378090494
Ni 1.4295883462094905 2.100563894934758 1.4917250428128372 0.12145814200819728 -0.8040641769527314 -1.2872559649285638
Ni 5.925335233176985 1.8415365510699544 -0.018317156091224737 -0.46220515842183624 0.19658243394686145 -0.024596458392441508
Ni 7.177001458526379 2.827167017825233 8.020417906500569 1.305097363985359 0.36404789592310854 0.1968595988676481
Ni 3.9327467317058526 3.431649659223248 4.526571085919446 -0.9047033253330483 -1.096952936232511 -0.5100582733493731
P 4.314590817872826 8.40349235880891 4.820351921647839 -1.2294282552868183 0.09896047512631342 -0.4997592054162103
Ni 7.478335807907475 8.873257694854589 0.09321832882836349 0.0938781755073996 -1.205864609034265 1.2459684190336864
P 8.869144259281438 7.795372670812808 11.501929001025458 -0.45874368223579703 0.7739563018237574 0.698603695924371
Ni 9.069474984622445 6.6247383778565725 0.5612485096456351 -0.9191770934691911 1.205078365687544 -1.193487318415835
P 1.3500863553324032 5.647398911532703 7.925257376466174 -1.508361323717454 1.7398367128867587 -0.20476445553702155
P 5.2480750145114445 4.878507105778821 2.6406891341995102 -1.4575478406100122 1.1327090107861977 2.914728784798909
P 0.42623804184710606 7.111635394351683 4.307127085219269 -0.1214905379080295 -0.26414151194375796 -0.206051035558929
Ni 4.586966214365876 2.7393282198845195 2.021724267959539 -0.3707260792742325 0.8481174585182037 -1.1911355303542068
