# total energy = -381175.62914450996 ev
CRYSTAL
PRIMVEC
9.13346440431118 0.00000000000000 0.00000000000000

0.00000000000000 9.13346440431118 0.00000000000000

0.00000000000000 0.00000000000000 13.36774838044013

PRIMCOORD
 96 1
Ni 2.4674510223480257 7.318105993215578 10.525845296360403 0.77528504793751 -1.1767368384303734 -1.2952294700523437
Ni 7.282659018635308 3.9020533785184712 6.43129045952164 1.9817412678091868 1.7795525434191417 -0.7423772414658957
Ni 6.497582969415613 2.0332187336415712 5.0849575548156505 -1.0540360822643269 1.1579623860363475 1.1075386821681572
Ni 8.096925619454732 0.9179588199407315 3.924837718324692 2.0974892468064845 -0.029577713657116807 0.08337341932133384
Ni 2.5501180068690306 0.15369062887325682 0.3240635301172589 0.39121391481493917 -0.6824067744495345 0.652821861703566
Ni 2.7947213117477205 8.078028482014233 2.755801794076645 0.1449647097705697 -0.17920691878289138 0.2690546329746592
Ni 5.604558506754999 0.6682672621533408 11.778763869215162 0.15271427180900152 1.0969346814000656 -0.09952097561547377
Ni 5.176920579204678 3.8110292742497354 6.011542931698165 -2.4012442593768064 -0.5435260660895155 -0.26648970046096043
Ni 8.052984523163653 -0.018723601620600962 10.88876623659214 -0.07231279063179806 1.4438677720197586 -0.6193833795394623
Ni 3.6610303916082088 8.569043517684236 6.693365168078401 -1.1255603155565583 -0.36098828316117826 -1.032278893092893
Ni 0.9347187267572207 1.5458296832610208 12.520406642753587 0.3730979219405187 1.6576321170625452 -2.2894300682162765
Ni 2.943185772402778 1.6273001839711476 7.266413325853571 -1.0419063888803282 1.6768102326528929 -0.7855411784478793
Ni 3.8969660389561915 1.371663654332611 2.369794196373494 -0.9239814568363701 -0.7630715365904535 0.24077532641399182
Ni 0.7049609545976161 5.3377334834651275 11.574651951197255 1.1463798234050708 -0.005407544168816493 0.29769877907391307
Ni 6.424487855381629 6.40460430380697 8.333520702918328 0.5193571821527959 -1.1859984662379575 2.0311573563484697
Ni 4.558795122191307 3.288083647718453 11.160291340561994 -0.18806128384972773 1.8975643787499514 0.1421773768334197
Ni 8.360362127524485 2.325599189777512 8.571413651645479 0.7241915716958044 0.0038180881945095537 -1.336527557470182
Ni 1.1102913091732267 4.483297907071361 4.753570813098685 0.32302465943321146 -0.4531980698272195 -0.15259780083579527
Ni 6.403197750319373 3.806088070114738 8.409302882121475 -1.2777516249825542 -0.5008501244875438 0.7153438914971874
Ni 9.160864597786713 7.7087807911275705 6.033920832347255 -1.2998633692799293 1.3480311872344075 -0.5850997757662441
Ni 5.253623411599706 1.3649779585344257 6.99597053739203 0.18866369332041702 1.7535337507578768 0.8927371541101078
Ni 5.803412289429986 8.410203441692104 9.707886035962828 -1.03037704808449 0.6217966169666452 -0.3199478202801006
Ni 5.656911523579041 5.29059567470224 12.694347988462548 -0.18470753688614644 0.5872870132255498 0.5090910243400975
Ni 3.8671726787189225 1.927562819716151 13.248721865323823 0.8388347476646972 1.6807962138838344 -0.9228905377650364
P 6.8073626748624045 0.7375464148424052 8.527046022576018 0.6485738850604894 0.31735589118320834 -0.3886826637526532
Ni 7.938752286349577 3.451645724704659 4.059236644103786 0.7165039732435596 -0.32589658166436775 0.6202395568921705
P 6.042937388210602 1.0512160626941793 3.252306041733956 -1.1336405214615317 -1.5839918658685752 -1.2381998308318614
Ni 5.788543009703968 8.292957161690321 7.137749302248904 2.0823567620404204 -0.5710001031400683 0.4950828829864635
P 7.263716213873784 6.279393643018278 6.445113044249746 1.2232581219203642 0.23528987781938832 -1.7926492287020996
P 1.005046401137039 0.6834242460018224 6.7397777797834 -0.5007920175560988 -1.0491635846633738 -1.266891799449915
P 2.122452678926094 3.6402243601488284 12.546366688063944 -0.6078195859612628 -1.2668550326747086 -1.3244073771678804
Ni 0.34950844804644526 3.753735053290696 2.308823756071874 -0.7244157718914684 -0.01413772495296275 0.8679416923329826
Ni 4.589730165454221 5.676758541296877 1.5659251312052382 -1.1856907051895516 0.3067405775612072 0.4048682723735801
Ni 4.619413924121028 6.397489335191142 10.778669632370166 -0.5520736985492104 0.2789053005164938 -1.4232230991862134
Ni 3.1268688710329764 3.547373563039058 2.816477223484438 -1.070292139111873 0.5536778098115368 -0.8006050147595373
Ni 1.7995390519522663 6.789680288161193 5.179427715128998 1.6563349955176763 -0.3176222574707175 -0.5052611090710459
Ni 5.230661882587905 7.854505212521078 2.5058243588596323 0.4450384168345626 0.3998618202979243 0.9171400084345044
Ni 7.158608307800673 8.436489551674587 12.948415388950636 0.2260380202038172 -0.07352917953740239 0.6396457293329242
Ni 4.121585324153966 6.9098492767086315 8.271735557609606 -0.8610526785226331 0.2921616513057678 2.058385081716171
Ni 1.3192467032591335 3.7499355321813455 7.998057696126595 0.42494473140848105 -0.9220456732662378 0.3453042967670182
Ni 0.29102322335505204 7.840969418569014 3.6862497129715277 -0.811443500135938 1.6052111802586677 -0.321712111269375
Ni 2.929449042238201 5.48164947894601 6.843872784676156 -1.050743527555984 -1.0641389750262835 0.5774564002883732
Ni 3.787364468494137 1.8674006909966883 4.749574009162502 -0.6086027439841905 2.4538009504276 0.8425872727285939
Ni 7.560234129294667 4.611175539407964 11.469474630796189 -0.2951150775071369 -0.624107781598325 1.6405882742063806
Ni 8.373669584871418 4.607193349014509 9.514695001095047 1.0575273832470369 1.4273458631053353 -3.1862406210648095
Ni 0.7386040699973642 7.91014627645898 1.3283573338037917 -1.036787579596524 0.004828788847211039 0.6397228624277628
Ni 8.329591486617263 6.161444086272698 1.9994806302140895 -0.34504127291361864 0.7390121816484047 0.006803910295710864
Ni 1.078086714385793 2.270771004153869 4.185816411176833 0.54415470081245 -0.505147209201001 -0.24455253406823688
Ni 4.755676076597977 7.7172931797667905 12.665340106146925 -0.624375433437415 0.14023670816728107 1.0811000283606542
Ni 1.3912184011958826 0.11412902866855777 10.875558334005042 0.46629784043397104 0.3372238337517289 0.9763525142389184
Ni 6.959644923555223 4.321553389461985 2.1488383436684133 -0.5676299011162547 2.3815359823146016 -1.2828822613409
Ni 1.3230188239758693 5.94341002876685 2.9876913167817363 1.099451277174332 -0.4159404710273417 -0.24987883137715677
Ni 5.52965496680839 0.6491445281469739 0.9515900618370129 0.6877094176093704 -0.5298323706525068 -0.5794448914733117
Ni 8.195767969083095 6.318466602888001 13.044596247109613 0.5131654515197872 0.6577462955883768 -0.4319844118640819
Ni 9.236672350689636 1.0966002463296751 1.0506927151952232 -1.155569717434455 -0.19593014507484321 1.3538933024421391
Ni 3.646599518164038 4.991757859373243 4.422304633109228 -0.13322273874329316 0.5942547027926346 0.7197373925791928
P 4.995292510020644 3.6612039274281067 1.0373569441092525 -0.08125405898548586 -0.9488885044906947 0.6167863082362475
Ni -0.027434186433072737 7.191972852542164 10.178296889732387 1.6598928880722639 -0.6220305873543223 -0.023288538214295374
P 3.6518512600820117 0.2703916410619908 11.049553567152815 -0.3207111808086864 -0.16012624800235647 -0.039239919337229194
Ni 0.5227538237829737 3.1783268083649108 10.703221737956929 -0.12217625112114443 -1.0091901295942298 0.4225404928423626
P 7.825533864062274 1.4516271334488848 12.682463524838779 -0.4289957615494031 -0.12435911770507614 -0.654779242540253
P 3.9191329565821413 7.159631255791653 4.6899270078242115 0.28772084192559483 1.1903017215990017 -0.8798327873436138
P 1.0542666397387066 5.9359297215828155 8.69895517249933 -0.35799577619175765 -0.7909656918975604 0.5905132334723314
Ni 8.494569250555271 4.079315651812434 0.16483071516430417 0.4525848617232528 -1.2028003682866448 0.290208641344455
Ni 5.0196240586632195 1.812746041192944 9.544518501764191 -0.9101916021411292 -1.556080741280604 -1.1675500297247827
Ni 1.435250832129013 7.496181144823801 12.562073506457576 -0.9567614794808683 -0.7346510764662315 -1.0129285135907393
Ni 5.105816560367421 9.21667006408031 4.978162697903845 -0.001414878069655628 -1.7477323135847513 -0.9700175731598262
Ni 6.987940395662845 6.875315648548878 10.88470184502084 -0.14232392971361296 -0.37939532491345623 0.7967537593342471
Ni 0.27538216590369635 5.441781907690437 6.689247802414711 -0.9725274840658735 -0.0631429512070719 0.5416383621484995
Ni 7.2129615532856475 2.2123625005617993 1.901188115130878 0.7786958733912718 -1.1210734834297982 -1.215209797694591
Ni 1.946240754015726 2.5212014591954586 1.1006920382935916 0.17399477845433262 0.06303470776398176 0.05593769170788431
Ni 2.5981874289808466 2.401388675752022 10.176639165979147 0.4159427850201869 -1.162149941755134 -0.4554220740617318
Ni 7.000690711693263 7.890253591420118 4.422171284531832 0.5726486944870848 -0.5959418606870704 0.3152784398288893
Ni 1.828071994129221 7.723668337782 7.841186795017097 -1.3142258086491883 -0.8879561877816965 -0.40210407936488174
Ni 7.635722210950407 8.909328993576299 1.9683875780204252 -1.2737113934749096 -2.0235224655110313 0.2456622221926479
Ni 2.6125726351039913 4.837539316268926 9.685308112447645 0.6827549018175725 0.6058665759999501 1.173132923129199
Ni 6.245252753819348 2.9966439383956454 12.777481693004436 0.7887794828795189 -1.2496111579925964 0.6230541435228302
Ni 5.940532987542222 5.489257654628918 3.935826189109933 -0.5926945573943664 0.6203652838367574 0.40802995793101343
Ni 3.0676748895192616 9.26726945577696 8.928760438672802 1.7134993605438102 -0.2654345197235687 1.711219306260382
Ni 7.076160526420593 2.33908931640855 10.328430034297728 0.16043375194044626 0.29069920782762837 2.4875515645154835
Ni 0.7675105708603105 0.627628826518852 8.842110350411922 -0.5253632791375598 0.862253897919586 -0.2030346173301084
Ni 2.305615170096597 0.09740839574815086 4.815971553894835 -1.2937773109868493 -0.06548316930447431 0.2358753180092131
Ni 7.551137198946316 0.492975990434854 6.216123396429796 1.3022074440320737 -0.5808325158494578 1.5332801984463207
Ni 8.205805646244578 5.7507487348229684 4.322073996921679 0.8337668462234866 0.7265140491813941 0.9358265291004141
Ni 1.715556848585717 4.9659375560652235 0.9217793480177546 0.03874061110330747 0.6756388595980816 -0.759313355099602
Ni 5.035507152916012 6.205421716420597 6.296222964162727 1.1152036549125826 -0.23589948637892924 -1.4127800494760185
Ni 8.435338735184736 8.092459355458404 8.100347015145989 -1.7207257030889205 0.258501025828529 0.9769443821866465
Ni 3.2031789644671815 5.445681896906046 12.353015817572572 -0.09949500747354477 0.7637883601518201 0.16500723024374161
P 6.4088787650549905 6.789872090909502 0.92752886373491 0.21224508018478286 0.4712017054934917 0.11330645943534035
Ni 9.112703841032847 2.5968082758858655 6.312397415923665 0.6135796283734917 -0.6955122014832409 -0.8567496802719051
P 5.950780734380424 4.976605442256863 10.114866807520313 -0.02708322937003723 -0.8402550250509917 -0.008122371996818268
Ni 4.019884200229385 3.547190893754955 8.222929978282853 -0.4411249407127693 0.30263632558484654 -0.17672220468782468
P 1.4586599008868668 0.835395956911666 2.647161977395395 1.1036349762383768 -1.2304078455912681 0.7645347513995414
P 2.6378814644165205 3.4482572094845407 5.8575198447278405 0.27558472078369317 -0.14743579701888157 0.6992585558995507
P 2.668588171074306 7.022446623429982 0.8560878200684814 1.3427401140387971 -0.9549712203496649 -0.2549745007325092
Ni 5.377464052757622 3.200502859455066 3.441834557455464 -0.5263009604604807 0.4745785923855246 -0.8549586498097533
