# total energy = -340864.99637096026 ev
CRYSTAL
PRIMVEC
9.31737649515320 0.00000000000000 0.00000000000000

0.00000000000000 9.31737649515320 0.00000000000000

0.00000000000000 0.00000000000000 13.63692231551032

PRIMCOORD
 96 1
Ni 1.8412067837746424 4.481844477158436 12.489279893360171 -0.6132315010054535 0.4578795344632889 -0.7389296492369274
Ni 2.2170231676800634 0.20567456559423405 12.930379407933044 -0.0016421635891133008 -0.13852435346186467 0.12306353882210419
Ni 7.133308962115258 5.499618789282515 12.781055404089688 1.3772517746624215 -0.7063370600128867 1.0149838534578715
Ni 8.212112090765444 6.697479355729738 4.033487657976068 -0.9918863482084596 -0.030295308549431695 0.4116397867694588
Ni 5.583046579080188 1.830901765289471 11.10700049248528 -0.05166966046014973 1.257518585765131 -2.369699651801306
Ni 4.7967718051862835 9.13819410007526 4.477233307494501 -0.2730449850809749 1.462022331441598 0.7310250496778701
Ni 9.174243030020223 5.746147255918278 6.087876949384142 -1.0370598594213045 -0.3315987742554676 0.25617854834293946
Ni 1.2434318552455712 5.956114336897792 10.349155829715972 1.9594888841688896 -0.4944563051460582 -1.4317465632761923
Ni 9.277330484378215 7.1254544136677 8.26212031428589 0.2760853145691955 1.252098186080508 0.5244369106685485
Ni 3.6229034834039044 6.432222962190543 5.172784785737306 -0.8311175815260977 -1.3716449699986053 0.026040904148451924
Ni 2.49605064378805 2.604104259857249 0.6383698065019862 -0.8725892184073231 0.8184718677376291 0.6845898981437822
Ni 4.310153179123845 0.8002061153396811 1.3606854489388744 0.3715334056668763 0.00876591911808813 -0.19090672371832282
Ni 6.498255209934133 3.4426867858087973 9.099782283432432 0.7976022233774716 0.2797162264535635 0.4406462013041379
Ni 1.2589732393624484 5.890724988137453 4.292030881697391 2.184357052434322 0.9305809644307586 -0.7810821142352613
Ni 9.04971629217726 4.442171087728182 11.214200636860772 -1.2084120580464672 -0.7184698387206788 0.6769660630499373
Ni 4.304432309910559 5.653057346618686 12.615012299731148 0.17092668105197015 0.8127897297511874 0.4121151837439806
Ni 6.9852838005656 2.153143233923882 13.127324523419903 2.1989645179348516 -1.912422012588074 1.6420869702390946
Ni 3.1236039078312334 0.3591336211588569 10.553627521995164 -0.8796006167281497 0.09495289662881712 0.8429965923518707
Ni 3.584152514253969 3.9764420199331543 11.125437717239764 -0.37626912057964873 -1.0689114567142624 -1.31460890302022
Ni 3.0696842496271755 6.122671760442934 8.12526016507871 1.213769979924271 -0.2503318597541753 -1.0167170340988942
Ni 0.13368478727250743 0.07033873919372263 11.440763828984759 1.6049751529884617 -0.5198474915256531 0.5523058691646746
Ni 5.38426034998332 9.045374394696166 10.178939472392235 -0.25896999504514756 -1.434431566307523 0.5674812913535323
Ni 7.038765542070921 9.10064507250271 11.598516331672316 1.6067271026825618 -0.49209988909873964 1.2681773510305578
Ni 5.691715142002933 6.971279783582587 4.4254408063611175 1.433105648407248 -1.0683262736347536 -0.1969480448163963
P 0.7655417475528525 3.133461692241099 6.538495095859774 0.6682667355037265 0.08188989279727187 1.2207546387722203
P 7.146362606688246 0.42177900251966255 6.309653805164698 1.6075123175880186 -2.2505578166311113 -2.653814264432881
P 8.568352666499665 0.5541435175323609 13.261197521699101 0.03763529385427067 1.2862776601756944 0.7894574827831501
P 1.258078771211837 0.5623167202585747 3.9530712442854545 -0.11770021762766181 1.161892060108057 0.11780126198190034
P 6.379104598371407 4.1458785128380775 0.7257975460606755 0.6113587094627729 0.2819440873428177 2.5042246542957907
P 3.561119959375719 5.43189077900339 3.1588291816875076 -0.09845396780354013 -0.561560040773091 1.01562482947598
P 1.7166800459316784 7.801840048308336 0.686864888067647 0.915259760692656 1.0008219601351926 2.0205883225833716
P 7.615539103813756 7.636512518470285 2.1381059198793806 -0.6154305655393013 0.6758530324914167 0.6053621255597058
Ni 2.656738120094803 8.823928305783804 2.890605203711128 1.3626952170044855 -0.555376023449566 -0.6830336094002559
Ni 6.286788031327031 8.062801131249282 0.3056500161782223 0.01471005251666499 -0.30112734513948786 -0.6742656333996387
Ni 4.364743688440862 0.7604022826374631 6.6664506282800815 -0.14067739524912548 -0.15734328594058064 -0.015970150176011205
Ni 0.9726595747776048 1.0142243916513394 1.5030475090099715 0.454012852419031 -0.8730144788701998 0.20471431902537646
Ni 5.708244168036111 5.792603695490671 8.096104230319398 0.3796184966678559 0.45003741271105074 0.4201208276572765
Ni 6.014413162089219 6.1213580103467224 1.9466981212874026 -0.6350581099622418 -1.2055293371820335 -0.37762254928374966
Ni 4.360625407997421 1.3661976089170187 8.97147175896485 1.0182082739324398 1.1818191380492873 0.2371945510412689
Ni 4.586935167478734 4.100120876508351 4.534658162763769 0.8504419928863224 2.53892323411924 -1.8374933815999839
Ni 0.9401885174350885 1.4610019155052834 9.733025669346226 1.5092236717177492 -0.8008754948121045 -1.825312780373392
Ni 8.484682624911203 6.947091874009797 10.81938425865611 -1.0376036477399162 -0.7097792529252163 0.6498856618933775
Ni 4.362721817725418 3.6590828566208313 1.881376789376017 0.7290188178811187 1.061310504438553 -0.2850813474202187
Ni 8.461007171049701 5.610393079309825 1.7119524090606333 0.14177474207836227 -0.8287549948311921 0.0966307985518723
Ni 6.063664814632272 5.361237112481639 10.59584735044169 -0.014606437059265167 -0.6840977889987121 -0.19345031607578295
Ni 6.440804266010473 1.4420503715641992 7.807792920198188 -0.13214287541555308 0.9883523669132721 1.668916431727113
Ni 6.9204628117759635 3.907111420884183 2.9200602262583 -1.3229901851053796 -0.8877906087381097 -0.5947198153545112
Ni 1.1288094886953175 4.970764495233385 7.864453750588808 -0.7473536116345644 -1.8715376156688863 1.5278155757873235
Ni 5.308379635206434 3.512902535631811 12.706952444762141 -2.764583302158348 1.450515102132947 0.5722478595042403
Ni 8.523209977023486 2.711021155985047 8.141161199931146 1.5978490834666417 0.7707755901029305 -0.2082642411601639
Ni 8.037252884697438 1.6592197846314496 10.18841710783809 -1.62735763444872 0.3012404736785844 0.5930583684916884
Ni 8.754709515253658 7.7014359984021805 0.17632017071400527 -0.8389887567440584 0.5617006801160133 0.5608491307489953
Ni 8.769589365634147 1.7696586491022803 3.4096939553784242 1.6550443017307108 2.2287805728550194 2.2712436271152368
Ni 3.373961816236803 1.9100156097357566 3.137173735066137 -0.6085348668607325 -0.034203128244270124 1.6051795556897839
Ni 0.19826072905838324 8.647196307025455 5.2702752919903775 -0.5571781096553114 -0.9658834963867946 0.8681514943509435
Ni 3.02466268604639 2.876441859588786 7.97623618076087 -1.7744332199147053 0.8094958894912639 -0.10935518809707619
P 1.4078369648033042 3.4330339836834463 10.103050371976435 0.6168109908265957 2.1614747485195096 0.16889705221645104
P 7.094129393643154 4.7963152537344085 5.182426407010775 -1.8317515940202 2.0826249281001425 -1.3602431559195671
P 3.784289762953323 1.8948282859284962 12.874195627222752 -1.5890651666264246 1.6352714899791578 -0.9964719106966129
P 8.420961086556693 8.707274751141536 9.7222939150142 -0.31539773901557294 0.9077284853126173 -0.7973736523064332
P 2.4894539411772887 0.4060447487078097 8.083245318916699 -0.4401741467637258 0.9747959683850761 0.38187078303714234
P 7.015555957037863 3.4977711160839635 11.464574384806507 1.6803172173648868 0.32902895664576237 -2.315332904124967
P 0.8602258599833789 3.517915284225863 2.5054295150422754 0.8680550779823953 -0.39173199210193826 -1.3615891284245003
P 4.343332357085596 2.2999291843898795 5.261888721340737 -1.392162630335983 -2.654337741036519 0.15700904252961348
Ni 1.277766387901862 2.2225017851025597 11.944757498872828 0.20604949289703223 -0.037336788777245375 0.790221100422052
Ni 7.358081354462707 7.349844793575825 6.269970166620219 -0.21822520902761772 0.7527503571701035 0.10870804143138052
Ni 1.840079381209809 1.2495626890278888 6.127178575489297 -0.12914342646759694 0.5745441117375847 0.1236636342999483
Ni 9.219963396843674 0.2887771789496534 7.9462752246660076 -0.1924190465977912 0.0827715240712768 -1.4002888589875433
Ni 7.266370416895308 9.240918176747066 3.868562638805792 -0.14165390022978183 -1.759348814777757 1.2695618900829104
Ni 3.8829048765582557 7.818201361563275 13.392467244964958 -0.027694123481158753 1.3318833738299511 -1.7496146182091288
Ni 8.91921711595365 4.354876586654428 3.9435665884475486 -0.5540557619762458 0.4405580124657058 0.14915175126872376
Ni 2.772143146276842 8.487310125103624 5.520212986712692 -1.068057079133767 0.23400844000380344 0.3969590448288325
Ni 5.132038966263977 0.5004530667918974 12.763355183821803 0.7388733420776952 -3.096450499583854 0.5156239403626087
Ni 8.076339279403852 3.177905578474615 5.877104847069077 0.2678796388299516 -1.3115852857025476 0.8069432982727393
Ni 6.485509038787916 2.0191220893572384 4.686710294466493 -0.8545968955949605 -0.004819275765514281 -0.11676305052537311
Ni 7.938926609766139 0.7388959140411946 1.7934459114826085 0.5135266915139478 -2.7483956366548923 -4.886183583080423
Ni 1.175871557744686 7.18313829200558 12.338837804328548 -0.8834590712422914 -0.4618629445910691 1.2301725896520106
Ni 5.292521460286214 8.261512821333598 2.5135579943609585 -0.1610814128267742 0.47687613017044966 -1.2291415772843348
Ni 3.951648480883388 6.508066407461154 10.165561583114648 1.0574685049846433 -0.7005633907539032 0.3968644282324971
Ni 0.5563591896804385 7.575996157655467 2.614184729567111 0.4413823081392141 0.7129908178839786 -0.6913207891097126
Ni 1.9942540112949212 5.013000163220078 0.9800296196435818 -0.6806715369259826 -0.10569290875414057 2.142552714804026
Ni 9.180681337229315 3.1437201238434263 0.7203636520457097 -0.33741743781977374 0.1767620567868246 -0.9983542153209903
Ni 6.715610970532761 8.291076857186626 8.445932587498923 0.36488273311957803 -0.16403175370434975 -0.8245890363789605
Ni 1.4800932200949004 3.077920810514058 4.463323396014834 0.27331263692006474 -2.137699757587099 -0.8195008232227757
Ni 2.4706142057550315 4.3695235026206936 5.934556722730394 1.3792484933774762 1.2307624007172095 1.1238145365100454
Ni 4.215488633184114 8.330303012541576 8.341378578068992 -0.6033103852369996 -0.9523733777155018 -0.6784609024279089
Ni 3.5164524561045507 6.654824405797445 1.5474224466568778 0.17472342909024102 0.3493185601327339 0.5013867137173041
Ni 5.021851670960506 3.7670712510540487 6.827938467234102 0.7224146823010398 -0.5293418041693336 0.7299590703072009
P 1.6312583375482672 6.976422975448604 6.771795682980711 -0.10845221666683257 -0.025994881401864907 -1.3569596000722888
P 0.11840149448658795 5.611911811690551 13.450533135742164 -0.21260297774483386 -1.7018571483191918 -1.3759605666548238
P 8.188604349682182 5.400202381292659 8.142292329446606 -1.9724297606002736 -1.5966802599695211 0.16686330961587392
P 6.16249422789829 7.0877563080700465 11.818111989598101 -1.2997546116162066 1.9192647465415202 0.17081072429939614
P 5.123066332628153 7.300099320074621 6.563436781196986 -0.14009838281720388 0.34129286161477995 0.27899657467871947
P 6.2601310169634905 1.5203815563786995 2.5057025141757436 -3.062941054972499 1.037141106281201 1.105104618805368
P 4.534077690203528 4.103409910437162 9.182121803646861 -0.92316590291361 0.7811222234445774 -1.1324071632750625
P 2.6528248219358774 7.718458845393508 11.160539069987673 1.5160039278643762 0.8658344161819927 -0.8501128916816778
