# total energy = -340864.7361724424 ev
CRYSTAL
PRIMVEC
9.32691404640268 0.00000000000000 0.00000000000000

0.00000000000000 9.32691404640268 0.00000000000000

0.00000000000000 0.00000000000000 13.65088148583368

PRIMCOORD
 96 1
Ni 8.291272060771643 3.3486046005235317 11.330695993365456 0.7128236961784951 1.2141798137681798 -0.09752451401073528
Ni 1.5290635965485182 1.033506005635837 6.543140707916571 1.7624932739440098 -2.281064212750084 -1.8966642355331853
Ni 4.874151950520553 2.989770240906284 7.386232169529277 2.1251921120383916 2.2545725942174593 1.3757001139045855
Ni 6.92629686098829 5.81431420154798 9.740040255299396 0.8623657409071018 -0.49515795919877303 0.35354159707514593
Ni 8.53329615033336 -0.06474650380856624 7.375489430065052 -0.4660299314845652 0.1551100257346877 -0.4433900825978622
Ni 5.172650503926589 4.221827590277519 9.617988259615375 -1.5803480984684009 0.1860385969927441 -1.7101368718294807
Ni 3.1147602144781583 3.345144315455614 3.591833727364966 0.3452122512738442 -0.042660772093320073 -0.54844561487832
Ni 6.1576099225583505 7.504313697953426 3.810042474898594 0.11550912351361398 -0.20632151561149628 -1.1942103126247883
Ni 3.962772555880174 6.594631801648251 8.204425434406657 1.2137866920948193 -0.23861379998629872 2.5457088895825057
Ni 0.8786661767233589 4.683500502883609 13.493213737894445 0.2754903612976739 -0.3076798015460249 -0.0009865322829853977
Ni 6.582823928613254 7.79112562820555 13.59829821175756 -0.6797806496805969 0.5792122066372154 0.47306575528542394
Ni 0.5782938463088477 4.569525614662708 9.898923301400396 -2.0947358524310635 -0.3083614009940818 -0.2364111359080251
Ni 8.195111578156462 9.3176243234234 12.019941875090591 0.49221198919657166 0.05894382552405978 0.8255570567191847
Ni 8.618087124868238 1.2580607854072312 2.452380508327517 0.22400916269924645 0.6428174421926864 -0.1504391026215796
Ni 0.6727969363187205 6.65167520724228 1.8443571238677592 -0.057125798478714525 -1.1145871043745061 -0.995160648084357
Ni 8.30210993475795 3.5963274344962937 3.6474062786322814 0.17268094473891551 -1.5107912733151854 0.9212756278694327
Ni 6.518263030391889 5.385621256597299 2.843956066603574 1.207577477960314 -0.30801173096414697 0.036821796814039805
Ni 2.327661947950997 1.4351322463625358 2.042158583723209 1.1263918103189183 -0.31146986471607646 -1.0203453748801006
Ni 3.4783233194577625 4.84835370659101 13.077107463291892 0.9189953164756883 -0.9150227049811854 0.6700531379801881
Ni 5.654851954091943 7.878397561845728 10.197140182005755 -0.8751932316890735 1.0174911932607573 0.20114639916846003
Ni 8.64391334953957 4.7568380271128206 1.8243854030700983 -0.9664401402212129 1.8431557220920838 -1.943911341445607
Ni 6.950770683139815 3.0493319132613315 1.8901690597076466 0.3174008854885308 -1.874162197775927 -0.703054275496557
Ni 3.5491145961841655 7.805013403046869 13.082867765334871 -0.8979472375561374 -0.47856945871247264 -0.5801336900102202
Ni 5.699761044663436 6.167794912569581 12.02304120858943 -1.0281219335017262 0.0859748614999229 0.3877640085931257
P 7.079025076587085 1.6519829952279999 4.108355422717428 -0.6609483474654423 0.19612734868731385 -1.9317315115499634
P 5.950552433319069 3.9787588863556755 5.6513963324809895 -0.22575494174575958 0.4708090980407634 -0.28164789625863756
P 5.397998071382007 7.4597217224555425 5.816777439516812 -0.5357083698173096 -0.3971706466190063 1.4622326476801915
P 3.831664126770418 6.308510063026925 0.913029325714543 1.32302335233616 0.2685087877735182 0.4049808866920445
P 1.1591488631827904 6.827021189120591 12.939792905653315 0.5091833269435877 0.16692964407743507 0.5203054049986782
P 0.4558715721418188 2.766418633031821 6.301915934878629 -0.5735262119960316 1.2948607738590152 -2.0095600897936685
P 2.657872008718003 3.0100376248755167 0.4902785576284725 -0.40114351522382524 -0.11315193613534706 -0.850023417291665
P 8.359862185810636 6.138918787043236 3.6964807689647774 0.8270665513851756 -1.0086003185290309 -0.8838637628798778
Ni 5.770449725336612 4.651537168846537 0.7823536654111248 -0.44474736795670505 2.3094358219142417 -1.93214417360735
Ni 3.123881936301403 0.11092871813146282 10.671863312582278 2.1691883151136837 0.9985910139221448 1.4109867050210216
Ni 1.1049035317676703 4.956993600044126 4.11088115100959 -1.7733844669352168 -1.0123924385816114 0.5514437782746955
Ni 0.4408440484182904 1.8628738460923873 8.242497897067683 -1.5190817954587514 0.3568974009212563 2.5339599765766936
Ni 1.6374516633255314 5.940479366274996 6.533980745746216 0.4584513478063588 0.7832379842359994 -0.7678195927984002
Ni 4.130796910323673 0.5155274463275562 0.3888763493848026 -0.1469575718308824 -1.4451610369098853 0.25462225959941315
Ni 1.3313143674110743 8.099286864442751 5.100392103639044 -0.1852947768481841 -0.03135640282409438 -0.1607083457580716
Ni 8.267926795205609 4.267044469008692 5.71843632442487 0.3253409662712139 1.624933084167627 2.101823355405464
Ni 5.406578832197329 1.648093672119316 9.704670732295197 -1.3028011117520144 0.08806054038435801 -0.3075255353563478
Ni 5.078448673236646 2.458210762224971 0.4187719066036616 -0.5295166391843009 1.2737895550110128 -0.8841347571530773
Ni 4.477944646787009 9.294176461804142 8.498847193734022 0.4969567029704087 -0.5205465744752068 -1.5242705387485427
Ni 8.542623064263058 7.682205927334543 9.327401727295902 0.15655524282164648 -0.035803897072486726 -0.34513948905437974
Ni 2.750935955908523 2.292368905641022 9.177077990108184 0.4902407244028138 0.3373775857207738 0.12230120673478292
Ni 1.9091819737533346 6.796018527218277 9.129395075334 -0.703104412008202 -1.6133356091380149 -0.532247922072535
Ni 8.936964985210663 1.9067010146480354 13.295016816888376 0.1996883265656948 0.039492401667667466 0.42692190973950994
Ni 7.213938886580157 3.153625464823208 8.84390103802014 1.0680406240735347 1.2825894126908297 -0.006035921781434766
Ni 3.2487040254225428 8.003303593192236 6.546935829194565 0.19969064055853997 0.9077451974831656 0.5578900481206714
Ni 1.4049596797999646 2.875189103279952 11.801255589563763 0.3279012707992224 -0.4509378130381331 -0.16316452060804804
Ni 2.294458134361274 8.25037354318992 2.0609961517870192 1.5953052339988654 -0.27418321245047617 -0.3048695857907394
Ni 0.9743640444076259 2.230139735902081 3.953690939786828 0.282598690207681 0.784134785018656 2.830766839963957
Ni 8.31722886223799 6.318806976005311 13.47118076911832 -0.10362831291562798 -0.8450169652160092 0.78557434567866
Ni 6.285752393038463 7.455254130683217 7.976510167546394 0.04178428302563771 1.2653367962579691 -1.3110900912336838
Ni 1.6264459048884885 0.5020202095745685 12.894745776755663 -0.020873501014899536 -0.2988732589979885 0.15544606891786775
Ni 8.354368633506045 6.87883219600006 6.693341329840417 0.8054572006455162 -1.4140861698819518 2.334719536181695
P 4.946043803090662 0.542596948625717 11.886450419471798 -0.3875390370665132 0.6782277033711803 0.1931752080375254
P 8.521003277774017 5.149286584532697 8.095000214800661 -0.11372966301568802 -0.06454471665060497 0.888948890712269
P 1.0691534706751402 1.1427241677525932 10.309500581425427 0.29092495068518925 -0.3382041953871272 0.7935853889085945
P 8.869093032544255 9.277714458718226 0.5225189010092575 0.846348025322607 -0.6991042897098734 -0.12167180068090012
P 0.9746718325673058 7.887873706398301 7.4373417924812335 -0.4168041045792176 -0.28688934716323494 -0.6134472165606855
P 1.1237718786474482 0.14538606895333683 3.353024625034815 -1.0969670772998978 -0.5038678282679452 0.08696705020986313
P 5.694192877047407 4.110156449797252 11.585748848995568 0.9524510250309726 -0.8668661998806168 1.4797860831829224
P 2.52481425459694 6.418726204934158 4.197291277802664 1.186581078214305 0.6688773725045319 0.2122185978222216
Ni 3.9314434519903205 2.9034496524869353 11.50441629414582 -0.17340265339628846 -1.0089160499972365 0.23814277388715116
Ni 6.465920389418428 5.215768827023579 7.322920145083099 0.5566042394297124 -0.7198137543430828 0.8780325009100813
Ni 2.13369944586901 5.229535351983813 11.260120168350829 1.2173237587138002 1.1170715613592568 -0.022324631639129292
Ni 7.397361975921586 2.0270461850829204 6.188531440309476 -0.194680074717826 1.3914239523977456 1.7620428166701527
Ni 2.1924869843678927 9.214869712659924 8.60724925088193 -1.2783416931580693 0.1541260645548636 -0.5597911217981262
Ni 9.18727137434195 6.431709269124298 11.293292270433192 -0.26589423296880654 -1.7637752259802268 -0.8815793377210753
Ni 6.605497656376349 9.246954296578084 5.42542013102671 -1.9834204552838228 0.9769155858312399 1.0630213164820725
Ni 1.3553404976939747 8.060356325700194 10.852914567711386 -0.4077160262350204 1.407448609960776 1.4894950829405702
Ni 8.83255951068163 0.6642469543193669 4.945850735972316 1.4290129663951132 -0.035572497787970996 -0.07103418102969057
Ni 6.605367079581333 1.9406603082660636 11.513330958479825 -0.5281464983096518 -0.26598113625565806 2.4888324881104364
Ni 2.4971506278814575 5.284704047877973 2.1651796457645247 0.8882508362039799 -0.03995905689144086 0.13344668182864117
Ni 1.2830475878248904 4.08340686064688 7.867029919148213 -0.48120406812184224 -0.26569934334918116 -1.9782103718377932
Ni 4.589876940857307 5.477519339546608 3.99640447481927 -1.4493470499667749 -0.3326177024382852 0.3710767777454319
Ni 4.392323576912387 5.559344355451842 6.349776061017478 -0.6963676075050007 -0.8440196342997464 -1.3682958510207146
Ni 2.9310852984606286 0.8797285122199514 4.40539897755043 0.043959693410401714 0.6549949580954849 0.7782968381806403
Ni 8.156395558434289 7.860527194756427 4.8381043608736665 1.431288135582535 -0.6478544903959617 -1.3693325198153452
Ni 8.541625084472578 8.195214174209688 2.425106746614296 -1.2094086176317818 0.5585366805657349 -0.08024901475973921
Ni 1.0085751647017558 3.3910793665593735 2.128118220573479 0.7388717994157985 0.2408540021707271 -2.0208729437033264
Ni 8.17610332756774 0.8797275795285584 9.911399914164154 0.3270564063004238 0.25008503385069186 -0.484606666045488
Ni 6.8464491508361505 0.6154905117518739 0.8982480325187586 -0.6792607726213851 1.019671488741528 0.0745578779122329
Ni 2.867914110414788 3.2904512921718685 5.912333538109348 -1.1303024582272339 0.3875480359275777 0.35602553983926427
Ni 3.9036492484798226 8.184506877018396 4.315439027315713 0.1527716074094982 -0.9334413166976891 -1.2236959807887313
Ni 4.973241084109659 2.073419601141376 4.98962940457553 0.39998291925682083 0.24155437067186145 0.5190054552403319
Ni 4.994637024664384 1.4210206255869036 2.665661847232086 0.15661849195941413 -0.7303892158660841 0.2043309675440287
P 5.57205693913802 8.473883708601187 1.9284187337333358 -0.40279673455653214 0.6561064459921088 -0.32158072789783326
P 5.044480052704687 3.6549191078026526 2.691912446487219 -0.5043388543670927 0.43626478440699057 -0.5247264168845093
P 3.745949787756499 7.1169389817113045 10.996453907706641 -0.8679146957497892 -0.3070614512357357 -0.8987975013715747
P 2.9791002513707103 4.533346515529411 8.969038376832104 1.0310632755182372 0.9035221605407536 0.9814960061130709
P 3.703251175786345 1.5099154422508494 6.8549133252273515 -1.9068337198670195 -3.534637183603906 -0.6369463281238901
P 7.373345172552615 7.492179382930889 11.451819961113472 -0.11862684320698924 -0.9152091099603786 -0.18958106292836382
P 6.834986373616553 1.1818225909458846 8.196944316743648 -0.062130193671841374 -1.4506256595688825 -0.6910482521746163
P 7.991206585825418 3.719601255905104 13.524870216463231 -0.6703562710429035 2.1785561294818288 0.5374893729771325
