# total energy = -340856.7054116906 ev
CRYSTAL
PRIMVEC
9.40599544527800 0.00000000000000 0.00000000000000
0.00000000000000 9.40599544527800 0.00000000000000
0.00000000000000 0.00000000000000 13.76662510675049
PRIMCOORD
 96 1
Ni 1.1141589469920326 7.099127869917786 2.7393935854093407 1.0756017242502445 -0.32590660896669676 -0.48224099402678877
Ni 0.14770516489632918 7.218029055621078 11.227384374212345 0.45897636707189343 -0.7119911729748705 0.9760984892465835
Ni 3.1277755938545617 9.007924105936436 13.183567073600555 0.02974972045860683 -2.7225647916347175 -0.3818872380973745
Ni 4.746697868872972 4.87773278842305 6.011223877411443 -1.9059124936043306 0.18050429743807622 -0.5987852436731365
Ni 4.901859166188176 5.982278808289954 11.53008529090783 -0.42536253567219007 1.5544506618763487 0.22597040019067535
Ni 9.11755098034288 5.195740081156425 2.7193211915883757 1.4726091058185091 -1.074275292129337 1.0893882365113754
Ni 7.284482411921509 0.5658364550552097 5.601515655981088 0.5550008994983345 0.27731353054934177 0.2783805383612754
Ni 3.294374581369529 7.2757912723289255 7.554765566056563 0.0854164178932916 -0.9114900092375786 -0.18930055557346753
Ni 4.026941707872926 4.501746941091537 3.567483296471696 0.7401694351812994 0.07126069521819985 -1.0967374777875951
Ni 2.156804112249857 7.577610847271353 9.692117139571117 -0.4295017546515442 -0.5439266439620439 2.1869569519510144
Ni 8.936400918206997 1.8284408187681778 12.447203687422302 -2.708935116666425 -0.522678790326861 -0.7338167534903943
Ni 0.757723460746215 7.0127620217153 5.075712997824095 1.5111530275299783 -0.07637153408220396 1.283747437554673
Ni 8.078376627324952 6.8314802756461965 1.741670512770799 0.41933766963434876 -0.09226223717053143 -2.0778588741700665
Ni 3.860963516043144 1.8171912484730164 0.5598909254702836 -2.082773794973181 0.1519606814724286 2.5620338519947747
Ni 8.578389927760144 7.990515225880884 3.6397721322128618 -0.332945260981033 0.7878310029233205 0.28422388451592984
Ni 0.4954579769452708 4.70226394740613 5.637170962099708 1.7390057323450308 -0.4120622190188581 1.0536625009749918
Ni 5.1465467261031685 3.9562180297380443 13.463786721096653 -0.750473645320785 0.8857604656819583 -0.3205934242838995
Ni 6.149423343528266 0.8050882903267462 1.4459497851355485 -1.0376226739033096 -1.1370462047089709 -3.2059293577429884
Ni 3.3082013943577295 4.051557197390015 11.572252367524225 1.4600947754015823 -0.6135888843448722 1.1715064432693696
Ni 3.4625443700879175 5.785373704143707 9.476324797002892 0.9907666327817197 -2.681383432300401 -0.47640458985066986
Ni 1.682337494859529 4.233591423077525 3.706016675419186 -0.3574352757025973 -0.06019646698423826 -0.715141288568078
Ni 4.2178645990528505 7.213965665681688 4.926166139061718 1.0605258037537286 0.787185913140154 0.074270171468485
Ni 8.142309176903725 5.7611814844119715 4.843621946721209 -2.397860173395922 0.5995527179667802 -0.6457096761388169
Ni 0.5512016670767467 8.351084647030317 0.29937495678213205 0.2592327617882309 -1.4087372468652124 -0.5843114755369937
P 6.172430407861012 6.353984927791788 6.02467445059044 1.650120124956216 -0.6020567153355567 1.6354224137347255
P 5.505178512235207 7.961742286472107 12.750826391650333 -1.1391033443483156 -0.3648667922799781 -0.6304031276887336
P 1.1432705022290934 6.734730208709715 7.4508415465581095 0.649756592514681 -0.764274041538987 -1.4921361201078431
P 1.3482271382922784 2.6824957796631357 12.181246350493556 2.0195064023731026 0.7939556277638198 -0.6932799697186125
P 5.675182470023459 1.844224078764232 4.849169602707903 0.1741305327012485 3.2465507308087767 -1.4495236847539552
P 8.381400169656827 8.85808660192145 12.352365859316095 1.7873283307098187 -0.052760322421167204 0.5177291596310696
P 4.641388346277129 9.007538460132004 7.824178665632836 -0.14021871044515208 1.0162814892233722 -0.8944502801464724
P 7.804163648382774 2.3035000138579997 1.69045863114117 0.6910451668508227 -0.5277304938181557 0.08939160049095572
Ni 8.309115096313752 5.68086369114242 7.374698133971662 2.1470002090524183 0.004046402155231741 -1.0782098512970526
Ni 8.671462250561667 9.33272252722592 10.18913368992601 -1.4954798397690954 1.555320723186128 0.02883620750540195
Ni 1.4633753318987728 4.790162972831117 10.604128080675663 -1.8440013579218308 1.2825832420432428 -0.09201618259799636
Ni 5.027833660304479 0.04921028584467055 5.483756358098727 -1.6517216651153812 -1.3326297650776726 4.641891501762426
Ni 6.755272902292185 8.262367300020314 7.403195477720199 0.0018373103190549 -0.664874421992726 -0.055826620051316764
Ni 0.009733323864074522 7.677549546590827 8.88649364811578 -1.6193162522014821 -0.10419832648648508 -1.4322728680933077
Ni 2.794587024819858 8.775831173634504 3.827823373049045 0.3443663583337811 0.37819461973713575 -0.5373397347731456
Ni 5.130509504235903 0.16725458538250285 3.390733358904439 0.04062702949274293 -0.32947941391961966 -2.0318888351978552
Ni 0.9669739336319262 4.597951460304674 8.163333457441974 0.8360481860584956 -0.09642331052675651 -0.5841474391553036
Ni 3.9807300533076018 6.848918990802743 1.9449077329059274 -0.40273219986718384 0.20224117489453558 0.9605646552770425
Ni 7.33160644802415 7.336704497438848 10.269957525738938 -0.616481632511635 -0.36659483071467835 -0.020209642178655514
Ni 6.526246324435255 7.814416183183548 4.630404025047455 0.15787704695686358 0.38424519680658986 -0.8823786936939191
Ni 4.15710186986661 1.6860810809610962 9.5809787217312 1.4043350040324587 -0.6718356838019075 0.92863232534482
Ni 1.121533247252406 5.96517870896169 0.6960803304064404 -1.240623095561373 -0.5572249037328468 -0.48763259735600534
Ni 8.616606486379911 3.2054220844787746 4.162504673526762 0.6094141841418925 2.596475578612412 0.8148676953261386
Ni 8.062847329200109 9.160432912596761 1.3929893289926498 2.0884939852864095 0.8895101625323777 -0.6867966759871139
Ni 6.631405351107417 3.829669769912708 6.800106578556305 -0.29637388961490246 -0.6438978197410589 0.4390770570448051
Ni 3.506912449588149 1.9853516311961747 3.404114327718734 1.3671414257012973 0.8480071581925848 -0.7657097455442491
Ni 5.965677226708883 6.203470192120236 0.27601516762825784 -5.6901670273938905 -2.831832305113994 3.7150921158612853
Ni 7.453320026301233 6.954971587021762 13.129602057167087 6.690428229929606 3.436637272618649 -3.634809933870766
Ni 3.980861737240823 1.2432092015485676 12.036476796708532 -1.056060311783207 0.5833252003643244 -3.503871877396591
Ni 3.4515111376830476 6.176644293724082 13.541513162680321 -0.485842338224802 -0.02596479949487786 -1.0123237901272049
Ni 7.079027258111131 5.184772690718166 11.559257044514363 1.2390338966973822 -1.0056026693532876 -0.03544625662275186
Ni 2.7486011141400546 9.203437122788634 6.252415228899419 0.18598666070888614 0.1885683053931333 -0.5814637216755535
P 3.4997638932132973 4.311313161663577 7.6958188111261885 -0.8341759087364472 -0.297484606180578 0.9854627040703027
P 3.7873333853821705 8.847391985344863 10.57714604275869 -0.6682366535967394 1.9489977548295785 0.6721457588431585
P 3.840072800637163 4.574530532181805 1.282182002184832 -0.021313159655479422 0.4486708713808273 1.3442164414740074
P 8.755777591804 8.749597852937844 6.613858467005725 0.018398300001529602 -0.7127265084789983 1.7555402396649442
P 2.5500781788142364 9.39639170893825 1.3383263877131089 0.6966404015504132 -0.26377410130201023 1.4844174113073467
P 5.5124023165719 1.8887238421976846 13.170199273179584 3.5483825582144566 -0.2387210149881243 0.27190264394641567
P 5.31513978460691 4.066550353786743 10.57592044158021 -0.5961740313025345 0.42563738660013145 0.06478305791365617
P 8.557922482139515 5.052223405936046 13.45258041837955 0.5556781280710172 0.9771135607746592 0.8822948757308612
Ni 2.0588688899143874 3.8335638519379556 0.27852939015325506 0.311686865822889 -0.38759688688764216 -0.7901054007797941
Ni 6.691951742403366 0.5688971659030738 11.73776872498821 -1.2571699441764608 0.17088400073949278 0.1897538410608022
Ni 7.856169396009822 1.5307316637412907 7.8787635371519675 1.2475468192643997 0.7961390085683837 0.06059935884961176
Ni 0.8702154012997381 0.014231270783093112 2.5963030017728834 -0.827427020048388 1.3111530832611356 -0.055507289038685056
Ni 1.4558975656908686 2.495231820627709 2.059638300324207 -0.2504383034250525 -0.2551341662388252 1.5941880896752867
Ni 9.235408100575635 3.110271036731405 9.708045251893713 0.23938847336879418 0.2280097992182073 0.4637246803901562
Ni 0.5000584492122971 0.011881653174622087 5.061643510158959 0.33871584491622314 0.6569489964980622 -0.6289717945588458
Ni 7.422092122137406 3.287733948737101 13.32846078652262 -0.20630017545525758 -0.8755639847649307 -0.2161531569899374
Ni 5.059447210272738 7.571468732386118 9.500664690859741 0.4321762161599138 -0.007101386931471641 -0.35418745818926095
Ni 6.091858652720249 6.005558646484372 2.7696385630716254 -0.807282426779713 1.2652200681744468 0.9635671895487921
Ni 1.3480578303781372 1.5816369099264196 6.952586226631416 -0.8658899520102765 0.4805425232784434 0.058275081591809316
Ni 2.719781144755126 3.4294164548876176 5.850498933917653 -0.4362987229687195 0.04128317501950309 -0.8164286120553552
Ni 7.1695223382196165 2.9122466191527803 10.610006827694454 -0.8113964489480864 -1.0863977864244836 0.5172972142999737
Ni 6.222865354284637 0.47181224553640244 9.208234180355968 -0.059233074629704445 -0.25093452633518076 0.46655443652946743
Ni 8.317853265882487 1.2204655050822628 3.6316218373460076 -0.30053162053701793 -2.2175049999412 -2.129617494799597
Ni 6.363908252759509 4.114953605240674 4.107947079393797 0.11526589715455633 -0.7932845698387241 1.2250437530658773
Ni 6.53515380191813 5.810045629632176 8.512440732804043 -2.306280307004396 -0.08822560520731257 1.2209312735594005
Ni 2.4845183920606613 0.06795831553724238 8.664327803179662 0.02321089089882454 2.016392282224153 -0.5695286608008643
Ni 1.0900137572364477 0.4079445973247167 11.598698263713084 1.8565462844663767 -0.8428425832725097 -0.4363028367337776
Ni 2.224621337858648 2.594333386371707 10.020217065186353 -1.895839682749361 -0.2669062191730887 0.15374451284572876
Ni 1.086326607106261 1.1346075806222007 0.2313470368801872 0.8769608651124575 1.5151073841920357 -0.370051164694395
Ni 5.682782514169354 2.6330390567434376 2.3334562274667205 -1.4187560645537953 2.6679489040620505 1.5090400949520333
Ni 4.147733498617462 2.1336465519934293 7.306580857115031 0.40933813521947565 -0.13219738280257234 -0.3594278806525939
Ni 7.243058408928289 4.389552229987284 1.7343883912636804 0.13185619741306967 -0.6389785280625705 -1.2058332415756976
P 1.9414162274765263 1.4849056549803987 4.537933685940655 -1.01748039462748 -0.008021327642579734 1.5845184277960067
P 2.835550134046805 5.806001051683246 4.896636957636442 -2.4862621562800986 -2.0457977319694636 -0.30570108055309936
P 6.474240576808208 8.183516842006654 2.3230212163584834 -1.2002662890108813 -0.9294373377446186 1.1281000512592765
P 0.5329126499514022 1.243670095314841 9.092676825956964 1.288534574530671 -0.7825268171015878 -0.7560650233656334
P 8.666825094913245 3.358636340781355 6.710664969913586 1.052343267942936 -0.3719332122084562 -0.042490307953726825
P 2.2635903760968206 6.68275267906836 11.767876375120139 -0.11947402169863297 -0.8589929677801272 -0.02624967772514834
P 5.967577237745358 2.7555521446150752 8.69581249101327 0.2374164372440879 -0.5353705268619167 -0.45296255677764574
P 8.743305242128928 5.25151763287073 9.804135958564567 -0.8290308742003981 1.472371021665774 0.052593457825999744
