# total energy = -340862.31802587624 ev
CRYSTAL
PRIMVEC
9.31616293455965 0.00000000000000 0.00000000000000
0.00000000000000 9.31616293455965 0.00000000000000
0.00000000000000 0.00000000000000 13.63514614690903
PRIMCOORD
 96 1
Ni 7.336002951835314 8.892873470809825 13.639236609362085 0.8122346285786657 1.0788104609955291 -2.2726405074627634
Ni 6.535139030801035 9.210647778335902 5.930824714219788 1.329519244473149 1.0302045270623676 -0.07713258061794459
Ni 4.754587446927635 5.521531219802945 5.477715443691641 -0.016052168366856225 -0.5619917289938708 -0.09331896056981993
Ni 0.8202294283064718 3.7999509454176748 11.022147654487275 -0.6466620127497573 0.40973922731263623 1.1012003986549552
Ni 2.7780051688600484 7.300713327768801 3.710463613597901 1.4028167676157195 1.4408703799543314 0.7877101610747401
Ni 8.396461744731635 2.053114554125245 2.9652078673400255 -1.6380143428316176 0.23341040140848834 1.5269257169832025
Ni 8.016194618240885 3.9273028886566514 12.353169237517413 0.6523924874756313 -0.1197982378072711 0.0981354081218568
Ni 0.18207694579745454 8.684228692406013 11.801587196306727 0.050965949524905775 -0.7948724831511342 0.6608958969609521
Ni 2.3972163372616633 6.428012476645585 0.9098350753917276 1.5234696401138021 2.356849021090883 0.12241047861913758
Ni 6.96188449268456 4.135314168001192 3.4408976528661706 -0.7059776197909389 0.9872218528532546 -0.23708887870134007
Ni 4.891181023501876 2.2726033458377755 10.123904680263962 -2.0888477690814025 -0.08476464324190562 -0.6811808724622332
Ni 3.752848427128263 5.004241973256684 9.68092580498659 -0.07091771005648431 0.8029969120304816 1.7897194566498145
Ni 0.25365395494883564 4.198114420332863 6.750242704760632 -1.5360819295611738 -0.5281660386936775 0.6598563999528442
Ni 8.541411919190686 8.255116925212851 2.3253244418131733 0.18015025653276717 -0.05075511906568034 0.1902004416799176
Ni 2.6529636339548883 1.9672195346180497 7.382326638928328 -0.9077056024944821 0.2768314487066007 -0.46127287641555403
Ni 2.9806689708513208 6.998245475454255 8.35759471421276 0.052056611485923256 -0.029507008320181438 1.4767712076159987
Ni 8.43877575542596 2.436483962773901 5.563889016461662 -1.1670782322946867 0.1630663044672869 -1.9066979656201033
Ni 1.5777573556052182 2.934479436500271 13.470146394279709 -1.1344565896049237 0.6390224939266285 1.366035594231628
Ni 5.897848293335881 0.8751854716983315 1.496907038165609 0.833785615276564 1.0899857608860584 0.8897294776320354
Ni 6.4596408487960115 7.593939546748083 1.4295903101878331 -1.1606954686967945 -1.9393617744017115 1.3186565907270322
Ni 2.902012609712573 1.7026591480708333 12.355924026808985 2.834732252369608 0.3074725706312253 -3.3352548183144046
Ni 2.0631480612846 6.948292211398118 10.579236787197145 -0.4143924098139315 -0.8387925815728522 -0.023801216184655784
Ni 8.288543316752095 2.902562263308118 9.781430430740116 0.8385889502024783 -0.016387954439720166 -0.8326905824401724
Ni 3.4697302446094267 2.1197996462762765 2.3236065414230294 -0.4912547674896248 -1.4832339325222068 -0.6998856479605882
P 4.644479720728552 7.3546259609453895 10.324395953128437 0.9402897070780902 -1.146503750577445 -2.6403931059309684
P 0.48005813418633214 8.15068274205931 0.6877004934904727 1.6272275366287587 -0.033432054406200486 -2.396065286279028
P 8.105247816881805 6.03505673664412 2.618997836599 -2.0301481983576646 -0.25973695511815914 -0.6035039893050446
P 7.653181024952666 1.7527055737533335 13.16312387005225 0.10267109120868124 1.0525836660885164 -0.9363132389288454
P 0.9134879427614425 1.3499212821705138 6.043478547667386 0.08118926718582145 -1.1200908078015548 0.43220681228753305
P 0.9699336405588553 2.843087881037626 8.636310078269656 -0.6574863570587709 0.21069521919915973 -0.01866106674461302
P 8.069408539219745 0.0021278115461435417 9.442406887856775 1.2904263922367454 0.8884326131974829 0.512407233197524
P 3.4052623991658484 3.955922140275535 11.918398833138932 -0.10279013328504878 -0.17082152293267355 -0.050566914314274194
Ni 6.906267001745519 7.640464462954041 8.979329323307729 -1.9684620342017776 -1.538421633437944 0.07895960652435434
Ni 4.466214948681895 3.7617546786086185 3.732689182799454 0.2700743324884252 -0.1194943334136071 1.6559297896594578
Ni 1.2045332480675535 9.226224402263888 9.532180225869487 0.5931285596079914 1.6488266029557732 -0.4935890720497564
Ni 1.6463988419098836 4.4093025111364 1.5270410978291638 -0.03928028565686138 -1.169343631290096 1.8722459545898207
Ni 8.525071369926518 8.053617643551124 7.341053243600483 -0.03081030051263726 0.257419362728576 -0.6235346827036745
Ni 1.9765170649291324 0.5819471417076223 0.24210005004722782 -0.7685415585660893 -1.6685197105093266 1.1000477731077505
Ni 7.242953119423398 7.666577666823745 4.12309043100603 -1.851411534342973 -1.6119757526760108 0.34957052824253987
Ni 4.260896040339261 8.836501370697238 0.7802463215037623 -1.125206017540933 -0.2205944805907427 -0.2997710882219095
Ni 2.0045493983019256 0.8549787149400769 4.2680871862782634 1.2971012331537597 0.7283991820192487 1.6222959036550963
Ni 4.438089453682737 3.5215560573554705 8.052849060133624 1.76129385431927 -1.7246134681791008 -0.7488883031115361
Ni 7.28438209466727 3.586135696750685 7.511697394610602 -0.8655847620650318 -0.3333388968750259 -0.3993442572315574
Ni 4.903338615742319 2.8704215022126927 0.1605677895026375 -1.3170910460121252 -1.4137228730052618 -0.6201076592999966
Ni 8.946189869577685 4.741433025285102 4.237830153267909 2.4573704129464127 -1.507295344346785 -1.4316385769434183
Ni 6.45430268760538 4.955099215349909 0.5694448514496336 -0.20862085316863424 0.34171966473955345 0.48725515941192854
Ni 5.708832669606869 3.6803314171668737 11.905268633519253 -0.4138969582347517 1.1564878583733502 -0.6595982611954511
Ni 9.319702778157078 7.365861253084833 9.55819654164777 -0.8609973998046656 -0.8533026022635691 -0.2834862350189569
Ni 6.214355602743414 5.719341301060677 10.767524818624256 -0.39123679763307456 -0.34783631916025254 -1.7814029663643192
Ni 8.970831119750846 0.920840258314054 0.988586461389366 0.9215263104276581 0.6451646022686244 -0.4553680808953448
Ni 8.122063490440427 5.325193092241759 8.968598967183175 -0.10394224461162098 0.21898265601893255 0.6595748641566833
Ni 1.552082011379423 8.435869112683417 7.103242354831034 0.10369696137003431 1.090974864272205 -0.26226434952570316
Ni 2.665121226195332 2.780613694398228 10.091575732683284 -0.509441979921613 -0.34122729848416716 -0.8083329795314144
Ni 0.7302101436001619 8.144860140411588 4.82217807008692 -0.9377402011833591 0.39930954733888 -0.49685822971933136
Ni 1.5848749038593934 5.156523967710546 12.750661017106522 1.3267733062968956 0.2935587887636105 -1.6975824322032378
Ni 3.4210532948344703 9.0311160081707 10.60301629232644 -0.5233809586002083 1.353014756491928 0.5172432211335867
P 4.550023147758546 6.676604960434089 0.8805180431913813 0.995324684466047 -0.7896269184814788 -0.2951775553139562
P 6.032187358552123 1.9165489260389135 6.8433568186947396 0.4091941534424437 -0.12212380061665419 -0.8044213031818339
P 4.702715053368409 0.5162970752254904 12.329662695953362 0.22562767213927593 -0.2725148236091178 0.7247052781074294
P 0.9760729917362135 2.2703767829676864 2.2032212246035194 1.7723580825532312 -0.8130051881961031 -2.166453946901656
P 6.355644525286378 3.925653927870017 9.508155705662855 -1.030028920716452 -0.021614235835666 0.31844166804821933
P 6.3103586587110545 7.05344373907466 6.594256604042554 1.6969756518571741 -0.005210597666661994 -0.8575989156460779
P 5.951882036626741 3.1288145890946417 1.9106517950901007 -0.31870263501908985 -0.5272075314351501 0.8447251450072033
P 3.3979026306831273 3.1666754740487897 5.589046382044876 -0.05846997121143479 0.5518703242891527 0.6126116080332674
Ni 1.7970691402276573 3.1535210524062562 3.8657277117116613 0.4926691313386483 2.078079731931621 1.7873630406024958
Ni 8.46093890633785 6.3891733946146205 5.619166467464476 1.1247362769933662 2.455226627130533 2.0617995067143586
Ni 8.8198347557408 3.6310116521700087 1.2460926495883347 -1.608284419867353 0.14180482398534933 -0.8158673402352465
Ni 1.6421227232597966 9.106092485068087 2.4502085335697794 -0.11508283460947276 -0.9539337802240861 -1.4341194343837431
Ni 4.978221931013342 5.749479087189286 7.792281580892349 0.9805094738300857 0.7654174111148109 0.5957197173739353
Ni 8.535915383235237 1.2740318213347637 7.531550137188675 0.12323426007201357 -0.6252341818932845 1.7108845486287827
Ni 3.952959600557174 4.504588222581042 1.7006980958358804 1.272486519928873 1.3225086174832708 -1.9935025221101732
Ni 0.4267622309762709 1.758742447141692 11.914936015486997 -1.4758073010408326 -1.282629521900146 -0.14774175829507458
Ni 7.246856591568031 6.87165745755146 12.29355604442364 1.6823260202647994 -0.17904956726942067 1.1384196880177297
Ni 4.481381661453881 1.188602609959386 5.435023196794278 -0.9822071732474825 -0.0030297879652592978 0.20646652582979283
Ni 6.743131677820302 1.7516248988875163 10.960093626782774 2.800624769162938 -1.254303678372259 2.017003690555907
Ni 6.165222160999276 8.752460267554678 11.083586815457773 0.028962448670621085 0.07258172802246855 0.07119950296296125
Ni 5.149788382124462 6.323913675346953 3.1616764211781216 -0.1841794322968183 -0.4634002071712019 -0.41303769555824993
Ni 0.1780150988880036 5.919443158326952 0.608633289579462 -3.4369465763289515 1.4105300770995772 0.011484860711147963
Ni 4.278764440275791 6.436928044288577 12.082634395871501 1.157472847994439 -3.562129218376588 1.672138023988204
Ni 2.713928602247197 7.753926007702211 12.49899699449681 -1.6916048744635641 2.801030746352105 2.530242932736423
Ni 1.659702322154599 5.469956943448083 5.305258367432486 0.7115376303772198 1.1413327478994664 -1.147733766329804
Ni 6.202151429689788 1.94886669422443 4.05188793159263 0.35812098891571226 -0.7608423901496187 -0.06831241122315332
Ni 6.111784652117143 0.7636439880695135 8.669661940507806 0.3654771721704673 0.10617601903814616 0.18319907066142
Ni 2.4173671970440997 4.5684598336158935 7.302274716626654 2.6912634104182747 -0.1972000129262023 -0.4663243227965324
Ni 4.633924508461562 7.935982457941867 5.102735239497022 1.0692379868157456 0.8085656643675108 -1.1543769826779344
Ni 0.8810900555772534 6.385614620487533 2.8417146786650274 -0.45206009956803433 0.3701367824296658 0.24776101370320555
Ni 4.926079368737663 8.373413558369291 7.52915029369355 -1.6223450117254772 0.3166226125616095 0.5430393562610841
Ni 1.2447790706566084 4.991180713240514 9.194996625106826 -0.1939650509286724 0.8965411012372302 0.2145433893006563
P 4.036404469291008 0.04157337576473536 3.269039605864534 -0.4496548325606514 -0.11739142813799137 -0.06178540873791295
P 2.722117509204553 5.250589261849826 3.3183994303607354 0.32855073145776315 -0.8877088476575808 0.13489832667350315
P 3.1343577058632732 7.065694492941467 6.272753036613143 -0.6322147269761756 -0.5569384828406795 -1.0321971320123642
P 3.5327447686817335 0.5092261077844968 8.605740022194718 0.4029877675214157 -0.25900779026161846 0.3604126131633664
P 8.02763486595833 0.22634735064541472 3.995574523304654 -0.006340597506047146 1.4353419939369345 1.1177441619462491
P 7.391704288238083 4.728129545040387 5.633278590626028 -2.4405533413890743 -2.9159343750712363 0.6049741460926678
P 9.247921745043959 6.008477724642598 11.219148161211907 -0.19108078740234188 -0.6391831878742089 0.8054458877916064
P 0.6941910639992215 6.225805166623495 7.534876938866118 -0.39942601831208635 1.4613052507699156 -0.6043223714412819
