# total energy = -340864.44366108644 ev
CRYSTAL
PRIMVEC
9.29639946269480 0.00000000000000 0.00000000000000

0.00000000000000 9.29639946269480 0.00000000000000

0.00000000000000 0.00000000000000 13.60622030811126

PRIMCOORD
 96 1
Ni 3.1621702746709333 3.993435721151972 6.7025468980158776 0.6210283713420531 -2.809962758734412 -1.8490450909933251
Ni 1.5419658884281746 0.7533588301270048 8.508405029577807 -0.14669171976400544 -0.5169598855652129 -0.28966896679090115
Ni 0.7953460182662118 3.1189884992017385 7.754497711882948 -0.5133521136092966 -0.9284916860018977 -1.3972935238046453
Ni 3.0147665649099977 0.4958160278211215 12.674616193883724 3.1396254923094316 -0.8660617017014505 -0.9870516458239774
Ni 3.5820979344597346 0.2587448267554348 4.737209963440713 0.3688147211841326 0.2949096463645502 0.17644401132577356
Ni 0.0920083246875589 8.087495670006541 8.351647282685095 -0.03534598359946171 0.37185273667950797 -0.5637477924530291
Ni 7.505066947741633 6.169137160438056 0.7947594154605915 -0.4789965189475622 0.5237026036056852 0.3056180339209898
Ni 3.173576956802408 5.357803194388868 8.306107940314073 0.2803600306851494 0.08802917292579032 1.7913533927088114
Ni 5.859074349410275 8.906266755619853 5.963470126371828 -1.9772855460306782 -0.22764470256930472 -0.5676296440059385
Ni 1.1341514371294403 0.18333615293500047 4.5068563406213205 1.4916275559025405 -1.3595368738811617 2.7362818841104937
Ni 2.9250749029666627 6.203961472797066 6.065434894875858 -0.6884686643728982 0.8803999727009935 0.6131708229708472
Ni 8.761912264880207 1.975587144614419 9.531919087151504 0.9421252176249324 -0.7411096876073817 0.2292459856181536
Ni 7.607541158935804 8.013579997938605 11.755284096084111 -0.35467956733433104 -0.994476477533139 0.16256416801988777
Ni 8.661780746348734 1.1081958898506479 12.146572338071415 -0.958736343819052 -1.4983934138714645 0.29693439010406286
Ni 1.1918727813464969 4.155713670041155 9.721997918611327 1.1680933038227626 0.27023219822252814 1.139915555836966
Ni 4.727135455351161 5.270835377485895 4.42836219182172 -0.4636514039500596 1.0460695191190823 -0.2838114795688596
Ni 6.028984642252141 5.129613773362636 9.088124781041483 -0.31298167337491256 -1.764037478502678 0.7498010447337926
Ni 8.839769610317129 8.779361606657533 3.178236312209332 -2.054815876307674 -1.255497184459728 -0.31314288154312525
Ni 6.83895203758142 2.623648447032721 8.340136480879721 0.14572189965156837 -0.11878110939666642 2.1327215876462176
Ni 9.119219377939084 5.560353145717782 3.191760714136691 1.850656401344503 0.4009159725940515 0.04943562892330841
Ni 3.718420336070125 7.791377458161493 3.0639984371446065 1.8900909531910415 0.19030894223332384 -0.5863683580660224
Ni 6.22853185655704 0.2745273241104513 10.045554453448265 0.08730566449620449 -0.017295039635021825 0.4959683709152104
Ni 2.362828663918896 3.931112659204614 0.08878433335651119 0.6214508035914522 1.3072524626551485 0.7195188488104833
Ni 0.4129646565968902 5.366867183857644 0.5652517649916188 0.2530243189846739 -2.588631142867329 0.2273863067015955
P 6.279290197582186 0.6442888235194001 3.7431394622213823 -0.18179524833535787 0.6183896481676254 0.030393781800508942
P 1.9200783434676894 8.375637571119066 6.179169834730058 0.17161650803014314 -0.2616529411939494 1.025816168186685
P 1.3515291455893272 4.957974350222112 4.803717334782836 0.040065243452001964 -0.10795470820512376 0.3518019886762199
P 5.648650347742843 6.090917255422382 11.081600057487512 0.9151427754988175 -0.15869311510025572 0.95115416059642
P 4.802213177350992 4.092460968148282 1.0415016608794758 -0.08333485277391454 -0.9604345574570815 1.0363083259672603
P 2.531753538418515 5.899978507012956 1.6552648271479293 -0.1704775093296935 0.07313322965056437 0.5561190722631778
P 1.3049262951206355 5.047610233768715 11.833330158429971 -0.4900846584409237 -0.8995184386979993 1.1461620509673098
P 1.4330678652104907 1.893583605020498 13.129322613674205 -0.8911770087118395 1.4340361306413174 0.4949245030317282
Ni 2.4580795727364126 7.583082331969292 8.487001929112203 -0.03897972369730706 0.6422618267995326 -1.8032123489299265
Ni 6.973424455700235 5.131398682058027 3.042908625340642 -2.614316977669207 -0.21336402428057447 0.18637464017592417
Ni 7.671286569999801 4.485773036296975 7.27159996074471 0.7423345611534183 -0.9483611712323151 1.7335598787391113
Ni 4.495292549339053 7.191982806890926 9.692554362256962 0.14237432333557415 0.031843112652525804 0.6170182217413953
Ni 4.488571252532976 3.2409386672544604 10.092740188162796 0.37982547047233944 -0.4837042088358766 -0.6735608940231304
Ni 6.633204124839932 0.2038003170556329 13.388031184471764 -0.23772496962344225 0.04459012790554901 0.008262240008792221
Ni 0.7761898575489197 6.960084122482088 12.671350368755128 -1.527414226583847 2.095604371078946 -1.4003865609076722
Ni 5.145612876824958 6.370357726644883 1.841574898268634 -1.036087982426338 -1.0060883507404543 -0.11031369535560356
Ni 8.09285039609271 5.53681466229733 11.901456032917238 -0.9850855232365422 -0.9912302026816994 -0.2066681003176376
Ni 0.005082341582133174 7.007123903725172 5.372211683904413 1.3166436740620615 -0.7137446653308676 -1.3242353703663903
Ni 9.406375860709364 6.791893663539425 10.381015027787528 0.6066633608696327 -0.20169764368623974 -0.7297487540686076
Ni 8.167454001720328 8.932027078510087 5.797392739025322 0.852688365718338 1.1601997600072986 -0.12355410530527754
Ni 6.679267784140224 1.8149825476271633 6.190381292472975 0.42079471379584943 -0.8680059699120148 -2.1071601942373452
Ni 2.0476528331907797 9.341208100528728 2.3485428868761593 -0.044873463473922716 -0.7819493473315631 -0.8530933144662405
Ni 2.6605365600707755 5.97673887731417 10.499131360704945 -0.00790151423526381 0.41063448543339603 1.049290340049225
Ni 2.085284658185247 6.873237158772031 4.03995862258535 -2.0427100941830756 -0.41424868514721563 -1.0122805955940954
Ni 1.2039116186409227 9.191452401705638 13.745003627150256 -0.05604002161370348 -1.9656577319837634 -0.11562405182492344
Ni 6.826392601917505 5.73661287938752 5.797175203278071 -1.1441455347579135 2.715812046291916 -2.454057546523096
Ni 3.6115210387352996 1.9459223339530198 0.695392060964332 0.2588622658226897 1.198038428121627 -0.17657693735921204
Ni 7.023792347948264 7.078538844339671 9.382822503049784 1.0482876098163236 1.3352371207935327 0.2964420238486765
Ni 4.7713491311598775 3.3795851687286405 12.629579786723227 -0.5650305158201946 -0.892821486293798 -1.2498235311137185
Ni 3.6727564219464046 0.33659008687306524 9.93452755475535 -0.7738647705512156 -0.025483746093401274 -0.54823375597783
Ni 0.0071600868603602895 3.1902082154276803 11.748141672382715 0.5117276906319962 1.4182140760073962 0.354527358027183
Ni 8.742380529624928 0.8189467875630135 1.1269764760299519 -0.5498759195669433 0.43764212437049144 0.4915656138618244
P 3.6970014317254485 2.6195673276719083 4.78227333015963 0.0002627667430834184 -0.029212617008214207 0.4487266643194272
P 8.475220602082686 8.996888057508702 10.111244671278282 -0.26676532271985026 1.056713886206806 -0.3480540915980135
P 2.565545950438003 2.398498948628325 9.388087983701183 -0.08941705441225245 0.48814553243668185 -0.2667157004288374
P 8.135074642418024 6.891058356527562 7.083765280113359 -1.3359513732517379 0.13050354003991718 1.2073417078004238
P 4.908136352743027 1.2592437881980045 11.436300460139163 0.5818180196911786 1.4793847339794457 1.3216426699385497
P 8.47392840255842 8.067322483188855 0.18671725341684028 -0.2042846876871256 0.5893791198678882 0.3658816066977376
P 1.991539766079465 8.122784802338309 10.47805456386022 0.09233654205189258 -0.4680161086766585 0.5404988492274175
P 4.805225210774462 8.736328573579621 8.232620832261018 1.0731290943400356 1.425307749629384 -0.6863374769625082
Ni 0.9522023069931491 3.0435482176231567 1.7995719062503532 -0.9941982841710877 0.9012590755381897 -0.7009469993455669
Ni 4.880358711171024 1.7517763277315652 7.577943282350483 -2.315026171517826 -0.9241971723916018 0.4790091173530524
Ni 5.290720375920471 5.619078501075996 13.237750239079459 0.4399656302973455 1.3871829177332045 -1.5393415741490521
Ni 8.754056807340602 3.9178652899810182 5.212515345143927 -0.9753022185975331 1.6695039287994669 1.4662577096791845
Ni 2.2083782833709527 1.7151856994760757 6.4123393369444175 1.4540166875283023 -0.9098208490652717 -0.00195583817479018
Ni 2.8892093938686756 4.328580217909761 3.1403153691918098 -0.4469955405609333 0.7163419937443986 -0.0013943092443653407
Ni 2.6087091331082872 3.054127520203123 11.604487200522044 -0.41815727617300247 -0.22044587082802033 -1.3631986390034652
Ni 1.445162480901647 0.8234964454563664 11.040033066603677 -0.9391643352243955 0.5782734968730299 -1.153714409393271
Ni 2.8921377596970492 2.016519191415466 2.8485571686912285 -0.02095654764700907 0.555107857389844 1.5397213260859741
Ni 6.980740722071443 2.5924497304612215 10.985648200151076 -1.0518861258008596 -0.04019508416164691 -1.5085400153871633
Ni 6.860315163529366 2.758492721129743 13.134832589631275 1.9056322433597503 0.7757038806424833 2.1814229095066624
Ni 6.500925656992533 8.243256842877662 2.1888326035164893 0.6582602591103179 0.9413361460647337 -0.5165158560492588
Ni 0.8806181719085655 7.321379390907227 1.7081380990491228 0.15300712045907197 0.7235449392507409 0.028078246293454873
Ni 2.8306420773011993 6.613718871581927 13.246144887787462 2.331440094099475 -0.024035443682648927 0.30507296005079715
Ni 4.630676014604473 0.5608554976892761 2.195853244385022 0.33641110804244645 -1.0542535975917715 -0.002162554868957566
Ni 7.091451543182881 9.063301535216327 7.958618754719784 0.6171295505082791 0.4730536711005659 -0.2564091762965068
Ni 0.4246372157527826 5.601833680086684 7.92277927554027 0.7900488365102458 0.38817461376798307 -0.08345698017407563
Ni 5.361038341399262 3.138873497636315 3.1773522246211465 -1.867222276122984 -0.8341666527650666 -3.4705951176213325
Ni 4.894545016739591 8.245571646341995 11.872842645034217 0.21932486984969973 -0.35206501252961947 0.4021462454567267
Ni 7.986731996312117 2.99179516185631 3.2809354962703186 0.31948990680707556 -0.9710308449156889 -0.6682351109348428
Ni 6.187953072935289 3.6143006621723908 4.992094925142367 1.241499070408423 0.6264359155108695 3.2220853986775606
Ni 4.9206214172113 6.731076618303803 7.4527393744884565 0.7455875208730772 0.006347282374266488 -1.5077740837554163
Ni 1.101474593044571 2.5895864394290333 4.653463348948949 1.6188498540880252 1.6300984304186508 0.47227077018795444
Ni 6.715505149216418 1.7030910837849191 1.5986488248260906 -0.9144033262296316 0.6619546772427696 1.1847666507133852
P 8.071422195348578 4.061299437174602 1.3739427646757054 0.08315770376610195 -0.508610228048937 -0.4676934352299171
P 7.307323234931033 7.124286426058488 3.8157964018030905 1.272343052372473 -0.5025172277773217 0.689533872412619
P 5.362228280529521 3.9980653280806395 7.410396134250117 -0.9620229849901237 -0.21807428527205022 -1.0096421295299836
P 0.4394101241269693 1.5111018422370606 3.1025719874038806 -1.490528152190775 -0.8017689531606514 -2.349392564812838
P 8.391162558209176 4.4874742773972685 9.519551157316364 -1.311925956871418 -0.12425601646830858 0.015726152486005177
P 4.954925131200821 8.166487176176993 0.4198523589532144 -0.3416124497377278 -0.22930512099086317 1.0297106181450846
P 8.440786738500792 1.5193663413526932 7.188874090913123 1.8545940458360126 0.017940386528504586 0.776524833881882
P 4.6316242473489 7.340576455782122 5.137192198198479 -0.6835087492644615 -0.41754149696587445 -0.20413402104187425
