# total energy = -381172.1067014821 ev
CRYSTAL
PRIMVEC
9.21028637414668 0.00000000000000 0.00000000000000

0.00000000000000 9.21028637414668 0.00000000000000

0.00000000000000 0.00000000000000 13.48018509858559

PRIMCOORD
 96 1
Ni 5.7070066329445135 6.633165407300023 12.307341974200499 -1.3605542594020827 1.6484093129126967 1.389515165410807
Ni 6.579312862438335 1.54882018967522 4.510375823669942 -0.25617314902630073 -0.831778097928232 0.24224419765003438
Ni 5.1704245547681795 5.462307742593 6.912908516557681 0.7335840686542978 0.38792187432722874 0.8449773702273254
Ni 1.4143960589660833 4.973867831680568 0.5272520580044697 0.8924293930617018 0.8742424377400297 -1.3207929203437447
Ni 7.746246945118493 0.0018254787740014306 12.380094026853563 0.929706018024973 -0.26898315630677544 -1.2210526296286133
Ni 6.566731611150313 8.763384929007737 2.729899430282277 -0.2022067221121743 -0.013767228987421451 1.5494570653164992
Ni 3.4349394896505427 2.616439753586168 10.23342861766423 2.495905592907134 -1.4902674423302207 0.5896634838775264
Ni 1.5136921571623974 1.3046462856512446 9.82214788147025 0.9558219983857347 0.34735372309687923 -1.521967858757295
Ni 5.044584411028616 0.5475588975651072 9.192071264531222 -1.9252639015477486 1.2962144596734324 -1.193765511777886
Ni 7.491545683684409 6.92670644668549 6.554753633624638 -0.4330069395913252 0.7422623131545861 1.2712655030375783
Ni 5.075420450056652 8.490714398713527 0.8539289449440487 -1.6027678609244977 -1.7421265373621997 0.9690228133467246
Ni 8.589485510582303 1.8367245337544869 8.451321082546617 0.25932249328855983 0.5729356295998842 1.9153741532378625
Ni 6.801630756721113 5.487230777721394 10.89421417167831 2.3254491666233625 -0.6276430484450933 -1.9025284076234463
Ni 0.2642587756812152 8.762795470675062 8.354991617615216 1.8402097520898824 -0.850383371734245 1.0621666817912612
Ni 5.467483923576799 3.4467747077362736 5.632371997741471 -1.064186283324451 0.581017121056438 -0.966222110673136
Ni 1.6148395229347674 6.60418984613449 9.536045069420219 1.8644061468304278 -0.317999181194162 2.530005619914636
Ni 4.853038083768738 4.517958652502613 11.422987769003997 -0.5876986468416717 -1.153128197872498 0.5460321203408208
Ni 0.6691024426766606 5.273791599574528 5.649586023112857 -0.1818618399072352 1.0230296065804834 -1.7502962176571855
Ni 8.324643723768927 1.289559836449356 2.522466279928176 0.08660041089906376 0.9474998516732841 -2.242730607277209
Ni 6.7694223850123185 6.429903595678239 3.2846626139070407 -0.8439833817451723 -1.1020352358514245 0.24411596075145053
Ni 4.344998683294879 3.080453984838398 7.748572542446623 -0.8376831505587573 -0.6523798890701409 -0.2814247245042379
Ni 4.352173496437902 0.4297031511473489 4.489818464317917 -0.7154868448329549 0.5670313483003073 0.4579571817787597
Ni 8.460909911767672 4.140677688731571 9.373716533859456 0.8188971282005059 -0.24810245620302432 2.2095371512443753
Ni 6.7097213082561264 0.862045049362061 0.8449949670894503 -0.4187249757510144 2.012432269135141 -0.9682586814871905
P 2.080087932571035 2.5819932822704996 7.930366097386671 0.6689434498557769 -0.2152095621297455 0.16980105208795918
Ni 8.319872795388841 4.80449987418757 0.4613082490937965 0.009190151139700302 0.843080924535561 -0.7286542354528484
P 8.993596038776484 8.54716424435356 6.295866296999919 -0.9405447605116899 -0.04690720607449986 -0.9699111294889489
Ni 6.2436347625530875 8.566349271024828 5.215564168650022 0.7931662990933049 -1.960221648569856 0.31927959056848243
P 3.6307778103952066 6.42477346612668 0.3363670293115613 0.10759603931412437 0.697116055635251 -0.5333717512643331
P 5.723364101676232 2.3029860749000393 12.824549293804736 -0.3988189808557067 -0.22052377525380729 1.1578595419098963
P 5.051768434458086 5.940846595573789 4.754555253865786 0.9664558239504969 -0.6386769376617517 -0.9845646177360657
Ni 1.955389864351028 4.038793500043357 9.56227688625288 -2.3908667727972244 0.7110316372750786 0.952943391286359
Ni 1.7166039778991555 7.083106320859649 3.889626463816844 0.49911077319893393 -0.3271109136874431 1.1818654179061905
Ni 8.646699809997523 7.365143712471514 10.335986078291794 -1.8719132538407501 -1.6535422632638879 -0.8869403449226725
Ni 7.29079828026294 9.108393049064848 8.154851172070673 -1.9490748879244173 -0.1373097643284732 -1.453840309851438
Ni 8.578856840021265 2.2696264173852403 13.372100823140686 0.6121452099198103 -0.35136387269753677 1.7801161292320957
Ni 8.5608415197289 7.2697619860156175 4.4534627006215715 0.884439947098322 0.5954988596123808 -0.2546932220466646
Ni 3.610865171094545 7.386087903854356 5.51010636617239 0.8734479668631924 0.5654974281542842 0.7654318092925141
Ni 4.604470873109048 4.268405941192982 0.23643818443626705 -0.2899996106574425 0.019852773059869034 -0.11212220931925207
Ni 2.112719977456439 2.626773694980868 5.609644694902288 2.4810649283498756 0.8609945715911882 0.6340980600418176
Ni 1.9104989282032836 4.968111402650544 7.475558468467901 3.1124820991254203 -0.165785760280979 0.8211237035381793
Ni 2.57790391508757 8.227125210857084 1.9986662372844313 -1.4133858013808174 -0.262627903512709 -0.9395176047987561
Ni 0.2614606906583008 5.159759043061349 11.495349305511665 -0.09810198378076009 -0.2027566810783734 -0.3536891783966038
Ni 0.3253681052353125 6.226245741739189 2.1649450647027573 -0.3981713199693788 0.9614033491282539 -0.5223694866165584
Ni 6.414550048169357 1.557910742399435 10.886368849681869 0.6031136958451613 0.9017205885556406 -0.6257448029811159
Ni 4.310054856511017 7.444269283346622 3.2242716866958907 1.462296153928275 -0.22173296507056003 0.39124553938382295
Ni 9.113117926012693 2.961180775336287 4.932602064278772 -0.27719371714202584 0.054555466648377016 -0.696911910044245
Ni 0.22677751498091842 6.243376874532542 8.05705266645081 -4.1432640959578135 -0.43004297186699486 -1.013667191528977
Ni 6.586542937300046 3.4838000592573923 1.2578506622660455 0.3372086642430773 -1.5083433259953247 -0.19388457539972415
Ni 0.1346433355266 2.420039605368173 11.237581018690383 -0.4778441505106738 0.4956811786920947 -0.6823183285007861
Ni 7.855167792653008 7.964539944223477 0.9194417124489538 -1.112171552954478 -1.0669304217284916 0.5593195814783464
Ni 3.2988206662349673 0.6735602213175117 7.008604313781457 0.7004075819023292 1.0211727558774024 -0.6945498375699716
Ni 5.056161741093802 4.556991846469404 2.72751304506359 0.16496146460747071 1.0972483559857427 0.4749179780028143
Ni 0.77459798468115 1.2749891632885573 6.641080727473467 -0.9717306991961909 -1.1861141658802152 0.5391366787725682
Ni 1.002650203306477 8.652529921319132 11.044572097942556 1.6349187346254295 0.5607840818390148 1.2469721777078524
Ni 6.168773554303422 6.554104308430051 8.936216875233843 0.6552145303054586 -1.1034285166545255 0.14708072767230798
P 1.8169868898963384 2.161589757349737 0.09187905451970774 -2.790249596576201 0.5393878755514259 0.7079267730975098
Ni 2.1683040561703573 9.184313440256037 4.92911044468632 -1.212580073381228 -0.34409587828121385 0.48246622266371747
P 3.3330184598165373 6.629232614986709 8.024646273583384 1.4068873381406672 -0.43561969462382394 -0.3191224961653278
Ni 2.615804243821253 8.514919031498975 8.688680295627687 0.7381966277256448 0.9726637525334216 1.0709128034150073
P 8.722362313168167 4.959131373363705 3.564605586380622 0.6454232552466497 -0.6086870761678806 0.9079884238422233
P 8.323068764786312 0.405296813088689 10.04169992673268 0.254014193701769 0.4796313243180837 1.6904375936283402
P 0.23066517689063587 8.513823007411657 2.3674442646066436 0.4996417060017395 0.16245643879742988 0.9021322221717625
Ni 7.217023885814143 3.4903577832083967 12.056880207618448 0.49246344308574536 1.5186416225975394 -0.8120770199548788
Ni 7.1855154958754 3.456463929079611 3.673768664448721 -0.6286360084859819 0.8988586936268131 -2.1113382368744347
Ni 8.921746594195328 0.6543761156748903 4.444281887090165 0.8450087376858932 -1.7898618957649497 2.1620601887093347
Ni 7.140679821446343 2.488508874822899 6.80730521420175 -0.08415786289584215 -0.10672366401150007 -0.020694295124557907
Ni 1.8902731391633887 1.6500320274527263 3.440830388862709 -0.5807569254165159 0.39595965703004066 -0.9686124652821835
Ni 0.6753838580342236 0.12335244536994834 0.3029484259634948 -0.08619854747495477 3.3838862061688624 1.2606553316219
Ni 2.6664608192854704 8.434946114270648 12.991434158071344 1.7788470327116848 -0.24758592157792203 -0.7489001301860779
Ni 1.6101606974191631 7.462367496217019 6.726989674317556 0.5838579329393428 0.1266905940517302 -1.3557853772585295
Ni 1.9261195740191586 4.071941320969851 3.9125702083875553 -1.1935431113544348 1.1466950406526446 -1.7208779123960687
Ni 6.132853437156068 3.511937484356153 9.25924280462542 -0.07243491803195913 0.31638787084298414 0.29425350083779
Ni 2.6531611656545016 6.081773188515241 11.604066605715676 0.11765033822633288 0.10718157748452509 1.4348660827417805
Ni 5.298217279234728 7.989306404482256 7.485209927636801 -1.8802986496909682 0.3948294000803394 -0.8306288148151373
Ni 0.1207348819614155 3.6619822608811647 7.249711192418236 -0.6781821948452256 -0.6049003554319389 -0.7449997666904072
Ni 5.250323789704922 9.036488342765004 12.142007201143096 -0.8927530949497077 0.9346937010475516 0.53286987192725
Ni 3.629322585136417 1.7074857943155966 12.742037100602685 1.2187450645413591 -0.3702625093742526 -1.9766605108521698
Ni 6.152508188436185 5.882858632096932 1.0089942486118868 0.09365037576730968 0.7490849925033745 0.26152592869778185
Ni 4.140005337820863 5.037649065333242 9.386280285603227 -0.26380726853279085 0.7383820042635735 -1.325160196173505
Ni 0.6189063815348453 3.164792577843096 1.8556958817801588 -1.676411197442261 -0.16421044537405913 0.5371129634743201
Ni 7.530845975958194 4.909193200242435 5.394405826783474 -1.2049582951699118 0.10492594868112896 1.375020828449374
Ni 3.209766406568873 5.040623987855959 5.655314821283536 0.30630220447220796 -0.9063382898333101 -1.4804322014073537
Ni 2.842616757890674 3.482961923190621 1.5312948566218905 1.0819166107246785 -0.7432475598859909 1.0357539961256872
Ni 6.42586027992755 8.490327566682708 10.316601188404606 1.2379686886576615 -2.008888260537624 0.2026111566394446
Ni 0.4980609761360534 7.285511575841765 13.265337945720946 2.3810557002440738 -2.6130453100456354 -0.5782048484186235
Ni 3.9800871342235533 2.919384495435083 3.792839247648976 -0.0059253643454994735 -1.2068447135593474 0.2310889523641633
Ni 4.1162427987849215 7.492374609464732 10.407363956206812 0.8054623428518386 -0.9907530059349646 -0.49350062610100814
P 8.067151745541086 6.622555157311881 12.308055771400221 -2.385348414082156 -0.38308331528800477 0.20489043959192457
Ni 2.1620318510992425 3.8532983309798414 12.0500995947354 0.5876042873556525 -1.783632112805154 0.2427062248881175
P 7.557841325537397 5.086270167492443 7.8103919850858645 -1.60032505581096 0.03244500790258283 -1.092102550118745
Ni 3.352700841955998 1.1361348847979138 1.51825953821198 0.3002089470902765 -0.20491717906480192 0.562132111226477
P 3.4467839180227218 0.1941371808377112 10.868520235574215 -1.2459640481583123 1.6098713047384985 -0.01832399512016844
P 5.517781297869542 0.8676891128974198 6.632614632170429 0.01929587211513451 0.7433491184608617 0.2896124025213529
P 5.188854337950707 1.319677473134445 2.7600143038814315 0.5369478986513655 0.30611502816206637 -1.1934024720115124
Ni 2.9144754127582786 5.7056619311231 2.3056100855090857 -0.05443333924821594 0.4617950674676111 -0.5449342592909517
