# total energy = -381166.1195140259 ev
CRYSTAL
PRIMVEC
9.29900569734409 0.00000000000000 0.00000000000000

0.00000000000000 9.29900569734409 0.00000000000000

0.00000000000000 0.00000000000000 13.61003479596893

PRIMCOORD
 96 1
Ni 8.125601325588422 5.086239925947395 10.793587406568777 -0.7953419665883851 1.5942971044493253 -0.4783730264309503
Ni 7.789470168252829 0.35812516550584733 2.705211860410068 -0.6484445585714768 -3.514089184249225 -0.27528261616224203
Ni 2.72485043044844 4.403153568696225 9.31598749702936 -0.25071958211089723 0.12091049703484338 -0.621766277949342
Ni 2.493202900628898 0.12377627454413619 5.004001379754225 1.5359058089946258 1.7051000807365215 0.1703111589551583
Ni 7.4692682076006625 0.708632585580834 6.223092651745117 1.656592362944121 -0.7503219502342691 -1.675918059855927
Ni 2.4968109148222255 3.852968600236387 11.827718666421672 0.3151624830763153 -0.9137309827529553 -0.19311658688544805
Ni 8.825621172133534 3.898766203076949 8.897165861825863 0.3750506747915153 0.7847505642257839 -1.0005854186443544
Ni 1.3486719858635718 4.964469446922591 0.18137803516049725 0.2528181165111388 -0.6148386975915734 0.0010603229437143027
Ni 4.189248541662427 8.087596289484996 8.94297648327434 -0.6161820989933453 -0.10947165907028245 0.25039870843636874
Ni 2.2784330660693803 6.848085330980887 12.874276187528544 0.34074598797237443 1.4426614104164832 -0.32080631162565393
Ni 5.544987771822208 0.6686859170970803 9.605962109906189 -0.43319745833557655 0.3317216729865771 0.8737284742180889
Ni 6.572044348174372 2.8363734052437417 5.811553067868412 1.5516844119851212 1.365921694361583 -1.3432265667569123
Ni 3.7089548996898314 8.002036138472608 6.430224283061338 0.06591537174588646 0.4863015372494076 0.2522550449188172
Ni 8.116516197065533 2.5068073458990994 10.606178036341804 0.09360898100641298 -1.4575414128521091 1.082487395626484
Ni 0.40021339499146524 0.6007743489133424 5.262809445284774 -1.1521064414762028 1.4373235431433375 0.6700140572121364
Ni 8.81696379787068 6.513934861849362 8.650918893131259 -0.15174059504182255 -1.0720374039377538 0.7059570509656486
Ni 2.1085495317964407 4.9139665472216585 5.041919005204514 -0.6077128851800695 -0.6858739070625285 0.7003430472129809
Ni 6.2729046353260385 8.957676351410454 4.514502652085817 0.7806329425129845 -0.38613855717456075 1.4634027567288925
Ni 5.0579802477682145 5.652540071203719 9.10790364753428 0.12513584797010063 0.31879493762258 -0.06517309426322325
Ni 0.6810759122290122 8.708639681019978 3.125612466773427 0.7643964260494642 0.10382294542493734 -0.04623254860497844
Ni 4.920215479020412 6.0756355294052895 1.7690326065026234 -0.5544802511081741 -1.2138635680793417 1.7526868293765492
Ni 6.893111116352259 1.6955434947282724 7.994752227344686 0.09818862995729541 1.1852785573527973 0.9801225228043121
Ni 6.924997406736074 4.769404205341581 1.701254014099722 -0.6486366199776248 0.49963527824383636 0.7261857193076977
Ni 1.0751231365720355 5.346649280251375 7.400429528553331 0.5623293148389477 -1.8243203345531356 -0.28387087205188527
P 2.9941310361452924 0.7893786413667129 7.451112828963929 -0.2778100105697861 -1.2423899576538089 -0.3749151776549156
Ni 2.014927142882983 7.274686514313604 4.560763345407894 0.07888761563583832 0.37755544349124004 2.12460178675256
P 5.784121001192339 3.3752786798466046 0.584213749746082 -0.15414457649762484 0.43246469393461007 1.1229897266159046
Ni 9.246094310740986 1.1471625333650985 1.061116044357063 -1.1966549175105392 -0.9345399490785068 -1.2842616581869302
P 3.4681106532795654 5.177565460464585 13.46152234301804 1.3453592968291992 0.023593985269856142 -0.014623920560761911
P 1.5599639923089026 3.710284657498197 2.2719228322117813 1.7938905573083685 -0.6052315135191125 1.7054674913782695
P 9.356287527727922 6.730955055776883 3.5073059621065643 -2.442080062446246 -0.6797215143078874 -0.0062536942191956804
Ni 5.666711755818747 6.363197980215756 6.40847576864032 0.4146865440155825 0.1238667514496899 0.07492708832619353
Ni 9.03058985473489 7.655638878896205 10.673710205094904 -0.3508655929048796 0.40777464738709773 0.2615174440573496
Ni 5.412690818398314 3.963682561539886 3.3868847688019965 1.635807564988286 -0.3012368741341586 1.575077851208397
Ni 2.124999472796431 8.106668550079107 10.791478392086699 0.35862081137026625 -0.7563838401576329 0.2745915036324884
Ni 4.720668116714701 1.940293323512759 6.664602930841138 -1.00114489069225 -2.540800653647611 0.062105768191809164
Ni 7.924063976072991 7.1169474814233595 1.4249842757541453 -1.532266926690458 0.2753481792928548 1.3865015753954637
Ni 7.601221097815399 7.656512985427579 7.16640424298834 -1.1838158567643418 -1.0975419759667613 -0.5611340089792658
Ni 8.827787840450663 9.080107059836614 12.760047202088247 0.44729944495459745 0.08106585423407973 0.39563569803171866
Ni 2.9884586426970197 1.0843198531627596 11.172368453331424 -0.4669005070149765 -0.3987464757465584 0.46732936702227906
Ni 5.170079760913995 7.632670334933527 0.26601107530929086 -0.42830696301249466 1.9550737858203295 0.05474135740693799
Ni 3.7813662567090107 5.769093808057243 11.14237172089628 0.5723836137511562 0.7949848403592825 0.6251832740506911
Ni 5.02375990696552 1.5365955911031497 4.032857864591854 -0.5851010613178246 0.5674931184280743 2.1646935125671236
Ni 6.114124113802667 5.641455656465455 13.203135522443567 0.21147606322924226 -0.4301424735593366 0.5774875106366247
Ni 6.56077395332305 7.558938519111636 9.681157589217849 0.4496805435922643 0.6446344407967672 -0.4919816183533204
Ni 3.1082112374951434 0.7371107903928587 2.630356724705305 -0.5191044427120416 -0.937565880389024 -0.17091074021237015
Ni 4.247571905117454 8.100689289444288 3.9661542372424283 -1.252873630793952 -0.39366237635543166 -0.2603077400199646
Ni 4.05847662516561 5.6902382401206 4.217069306774792 0.8686379470690588 0.6286635192898077 0.5177474144635147
Ni 5.669138796294156 1.0720451657009236 12.248772992882431 0.3510113744541245 0.0936532039807871 -1.6841471326339383
Ni 5.196358750889108 1.5084382019861504 1.8989945796070726 1.2699244156286515 0.48667768964190383 -1.573450342907303
Ni 2.1180624145793634 7.038528966752403 8.471280701928421 -0.07941032090852776 0.188671663740217 1.7705824787100475
Ni 6.2668044876177325 3.753943489038591 11.674334357878683 -1.714768971284853 0.3675949898444185 0.05388569427486204
Ni 1.4127886298403591 -0.02535466881321356 8.903862075796521 1.3512262971329374 0.46390877137650427 -2.0154916247867547
Ni 4.107240610809449 2.4507436408177288 13.338201719750897 -0.44037057904524807 1.9801232725897902 -1.5399876923734832
Ni 6.714802682957786 0.21408263804176772 0.46578347355180144 0.7929714094736795 0.18119309597498473 1.6941543803582952
Ni 8.423653054775366 7.978788624340342 5.1270495421557385 -0.014479938783729902 -0.5310855263333176 -2.05200488922144
P 1.5607730058007054 0.7495361217462717 13.034370658550671 1.3566821780411862 -3.9688108898098227 -0.6569482251671137
Ni 3.2124437918585675 7.831641158888758 1.6365385141588877 -0.3643697980389015 -0.5387764672196721 0.3056036357432866
P 4.421649290939855 2.624077106187898 11.015730422710483 1.0065002414668924 0.8101885446829145 -0.44550764316149727
Ni 0.8024707114254391 1.6657401816107087 3.046565339320334 -0.5725203964393365 1.989581846899528 1.0964659692937633
P 6.02994021562691 6.17777580749681 11.19403606640326 -0.5606329009731312 -0.4725168247604894 -1.0020653456239903
P 7.4061279592174305 9.477825531611405 10.665286235873936 0.9172320539276785 0.34069816545357456 0.3929321830576265
P 7.291629302613199 4.7869514290086155 7.665199186607958 -0.7468267925968171 0.6288730641974525 -0.7631846651295502
Ni 7.54301862143386 2.4779432323524793 2.338503712686588 -0.7363865711000995 2.30892391527483 -1.5330200028063985
Ni 1.850743899075274 5.8985452657513475 2.885000695504483 0.8492142911268084 -1.8511230565682764 -2.691631849501287
Ni 6.212981842898712 3.2335990297189285 9.464894334350474 -1.2557535234449084 1.0283744158321644 -0.5887887945820569
Ni 6.838581747203618 6.380661512831914 4.041513379053579 -0.020761915137699725 -0.3032495336888132 -0.7105297579379957
Ni 8.133189314201195 4.100089675462365 4.125228607344431 -0.4926699026695967 -0.4485587712829952 -0.8722022673815495
Ni 5.785925008289003 8.957880929534817 7.3639811459962 -1.2596857686197789 -0.16577033366201127 0.05154779017030477
Ni 9.128173620056485 4.613794644745852 1.7849422752741804 -1.390965010483456 0.9401351837780969 0.7322445239072679
Ni 2.7302252557158195 2.4610004440528845 4.067835144454695 -0.4670406321372666 1.2956393038962524 0.4361858515399391
Ni 3.8915873707129056 0.3756695994711851 0.3628165138577384 -1.2949276225412085 -1.5486332838636232 -0.8457857250612337
Ni 1.3400053125950637 5.682520065428688 10.622727476702282 -1.2213151392613804 0.8741928154490171 0.31768062151247867
Ni 0.577452442735854 0.7588239685923942 10.824618188432526 -0.5291152899808242 -0.04400031684035003 -0.17736935135352033
Ni 8.414242461054625 9.145711544717866 8.629455858183787 -0.4852831232872223 0.7250778309554996 0.7559734920930916
Ni 0.6252056264652224 7.654774071370484 6.793026848410596 1.0932731733880783 0.5773252740271477 0.09623202045155684
Ni 8.843614748071907 6.644697479340527 13.019236526850568 0.35325311930044967 -1.0832546128098117 -1.2161698476150151
Ni 0.885706111024601 7.563578722932435 1.1456179685261507 0.3364550739065044 -0.1631220974058868 -0.25000712942490494
Ni 8.643769817585305 5.4994598401455805 5.87391405957793 -0.8439242463724627 0.8276010837324069 0.33096088356115255
Ni 3.389478261478592 5.788631018933999 7.0770277800559995 0.5491485544826156 -0.5846467473892254 -0.4517744500068155
Ni 2.7490650411686075 3.421903894190275 6.972189860424571 -1.2305238023438423 -0.29575682485619387 -0.1699252363706493
Ni 1.9262053299486062 2.3129602740586206 0.7188103472679396 2.062222967405023 1.0216185851655697 1.3799971986180426
Ni 3.856613810452326 3.614142238052801 1.8662620797088436 -1.9131149248900405 0.3853667120055428 -0.8953208556768839
Ni 0.47132661082149874 2.349105509031466 12.529452319708614 -1.3822389434643678 2.8456321871115633 -1.1387940406380128
Ni 4.326418174048444 8.40075890285791 11.644337625443539 0.29501480448384676 -0.9105664689820447 -0.4552770638434353
Ni 3.691203097898434 2.3545733243553753 8.892375014113487 0.6547370764484078 -0.9750129694918884 0.611903012002017
Ni 9.276753132378618 1.999844155713969 7.61284113527927 0.6785637465543605 -0.869893930963347 0.05005475056454605
Ni 6.7565180223167225 8.05733732509044 12.290800778831304 0.4169277746412755 -0.9449431466897016 -1.4243153038091279
P 1.104070941169532 2.683469855293008 9.854767235055908 0.39243698858876286 -0.011665609263386362 -0.03671072515747226
Ni 0.517723069626108 3.342183518727912 5.694274938474527 -0.5063597414518635 -0.7588688113630156 -0.05085076410328017
P 8.918574032639983 4.432659313632896 12.570432107720407 0.23993868944530933 -0.22799694370240087 0.8379250913662343
Ni 7.518748216679776 2.8176824038814003 13.244414738437381 1.7221542080053307 -1.2402878237091415 0.9835284631620675
P 5.820238339148226 8.28162004243288 2.5674926567899643 0.9838205404811895 -0.4695119764958946 -2.124797447703134
P 7.96143667979202 1.7286944498808825 4.257082928099246 0.4802095654190569 1.0781820833829108 2.44633549528849
P 4.061805669189351 3.585687280754909 5.272350225084657 1.532970894736018 0.976619651857376 -0.42010797214147
Ni 5.142378023073989 4.041626826922545 7.3664444525936545 0.3922909499292018 1.1633527038139835 -0.10883865347197384
