# total energy = -381173.0232183063 ev
CRYSTAL
PRIMVEC
9.16090054679000 0.00000000000000 0.00000000000000

0.00000000000000 9.16090054679000 0.00000000000000

0.00000000000000 0.00000000000000 13.40790394824197

PRIMCOORD
 96 1
Ni 0.0034041906094097294 0.1484432309872854 11.28777938601695 -0.16874304313709004 -0.7426189251630566 -0.7744826066408725
Ni 5.500369529926187 2.7852252092068834 2.689571667096679 1.7349061083543607 1.2035799267651466 -0.3548981111030404
Ni 0.09192322344456418 5.480014009113193 8.778047187949992 0.7601584767087165 -0.5159227025499502 0.1697069497122561
Ni 0.5840284741342086 0.9994084352356148 8.603838924430509 -1.4390682937485861 -1.5740049298591925 1.5975027558708164
Ni 5.472025703915655 2.04150666659569 8.229235047348327 0.5869406856297246 -1.5856941932716628 0.02853821664900891
Ni 3.487847952372942 8.704614325985602 11.058678090875713 0.7243360676934687 0.6642825540449978 0.2945142106983444
Ni 5.425607421305647 8.39648743915165 12.602665414612325 0.2660898939193804 -0.8129807627160709 1.632906075070775
Ni 3.6393692459134073 3.942155327781573 10.674957285659827 0.6625437169770203 -1.5034556588857204 1.2117740325401647
Ni 5.558092363698767 4.257546808677047 6.380700916675926 1.3954392442047256 -0.5972232985026553 -0.0477358726233823
Ni 3.4830109969322303 6.824275381110433 9.287896186732656 -0.3896254872818967 0.3649590948834682 0.16720552344664108
Ni 7.945084069187538 1.8548441589064197 7.275275671454487 -0.2609052643946474 0.46738824528467243 -0.6704143779743486
Ni 0.736602355137056 2.897830997610716 5.260429973455582 -1.3427465417967004 -0.40614688197568766 1.4535104373158452
Ni 6.688904755073707 1.0343664313753014 12.302677071743389 1.4006971501695553 1.7346644246571996 -1.1940226220940147
Ni 2.649872904971068 1.9184299689707711 7.934033274967595 1.647684261821214 0.6322360671324143 1.5183755134203465
Ni 4.625512697288889 4.012950766504712 8.47016123279803 -0.10816348178182016 0.8397572594789667 1.6492392650131595
Ni 7.955225185992211 1.977700994920397 0.6036227241193175 0.16201575171558552 -0.2287677604301544 1.1999215040769529
Ni 5.546714525332549 0.8861824538709177 1.1560012032684626 -0.4644453606062647 0.01587501935904363 0.36872293280127466
Ni 7.864083387356535 5.8751053239749345 4.603590662497939 -0.4378359855488524 0.2897664116007138 0.741972035607677
Ni 2.7255969081394773 9.193788088529361 0.4791892971368813 0.0532082085918632 0.24498062274459104 -0.19382441158575006
Ni 6.584672029686559 8.580731469120565 4.74692119494079 -0.10244252013764293 -0.46447647095451616 1.1537606892501744
Ni 7.240244388111154 0.9411817519379607 2.897514946544988 -1.597253615974488 1.6024102204747628 -0.267078740195211
Ni 4.0785428137689035 7.940045573936797 7.258462670847788 -0.3140494525177946 0.6614144884685835 0.2942606999266416
Ni 0.9724387442934667 0.8065760610893012 6.318903314380565 0.2610325340011311 -0.5903270856034543 0.9049789475919382
Ni 7.704106582695281 4.901658880631318 11.04573923507181 -1.423856104784522 -1.099588574083145 -0.1587944165648104
P 0.483670809639904 8.313782829835853 0.2186725260622501 -1.297571745032275 0.8865909320030537 -1.0255482592372789
Ni 2.4740294207202083 4.762037596783059 9.05648909294667 -2.061751941305875 0.6533602507055393 -0.9974203906528112
P 5.778201318952501 5.077117607063033 10.164786739271161 -0.8294769605988812 -0.5060620077057866 -0.6261461521845926
Ni 7.19658353653837 4.226170724615614 8.543784641491904 0.07363433765669898 -0.6860646829170959 0.1681529749615749
P 8.62044397259686 8.669143319420387 7.414557085895834 -0.4657360543932301 0.5196664858630985 -0.6536780390562742
P 7.1255315926024645 8.638115349576278 10.901564067606927 -0.7950663443294953 -1.173155291726702 -0.35537170830534925
P 4.391863931161346 8.134146732796252 5.1229184449823135 0.4988243523067668 0.13422726874840754 -0.638231622594217
Ni 8.899494161383808 2.6485354135045083 10.292858875914678 0.5852455573154889 0.9252577524456322 0.6920748936669178
Ni 3.2304541322637244 0.7325514049554602 6.17502312791036 1.4811459396449265 -0.5448794947936164 -2.341269935705703
Ni 3.7838916115055707 5.647887509967427 7.109434058321371 -1.1995193835425277 -0.7217459383687893 -0.573916762566231
Ni 5.966897546542979 6.77026271202249 3.417165192725411 0.7365614061150669 1.1030503073795004 -0.8106102056013653
Ni 1.49485741459166 8.954083967200473 4.250413215492043 -1.0618036420248875 -0.3146256367362388 0.27648229289729803
Ni 1.3975320081482558 7.668727185134624 1.9633596052566968 1.130286003167002 1.0435470098075448 0.21688206473616195
Ni 2.926458811535381 0.4319309599550676 2.748017295915229 0.6460464906529454 1.527792692969188 -1.4812510977642233
Ni 1.2849903460476142 3.5529361501120595 12.187140711283716 0.789499648874995 1.5997342163044965 -0.5499114007905691
Ni 5.964149276406211 3.3075797532018854 0.3177806437343709 0.4521940540427374 -1.3377238917711283 -0.2064097044499284
Ni 5.092865194946711 6.90274765441561 11.071120425874907 0.0017946300065775544 0.02126816535015692 -1.589155926568018
Ni 3.233403942210522 3.0264133964096263 2.558978450647701 -0.5847493344053607 -0.409656694901159 -0.9576176568335766
Ni 7.112120034335039 2.999736854282067 4.872593175664862 0.4199791598730896 0.16493472513459337 -1.447047969519953
Ni 2.573672534978953 5.20505874283003 1.883595644987239 0.25952226800419176 0.5156889892725893 1.2525293600806557
Ni 3.81754875978052 6.917670761258259 0.10516255678342032 0.47353601005362317 -0.45479626755227487 0.6638102423942697
Ni 0.13804927333002956 4.392147919075478 3.6226542669415855 1.0790269478817094 0.5401592064998116 -1.077539821813222
Ni 3.557773105552771 7.312661306214985 2.7869401297722263 1.1914265792320642 -0.004975855948036592 0.8623647124658373
Ni 7.438843549094451 8.599593763159248 0.5213340196842157 0.720014043279347 0.027855588759687508 1.4107956720561379
Ni 8.14546044485928 8.174619591010385 3.0087740825818052 1.135384757846148 -1.9209110238956917 1.0834998960513986
Ni 0.8348319424554568 5.190401302100602 6.246085148836765 -0.4913493840859603 -0.07695543161013198 0.48420428840074675
Ni 3.5187018651083886 4.4083077474796735 13.209587895075856 -1.275747450068332 0.30294871461894274 0.11301335367495376
Ni 5.837738011015348 1.3917606408610437 6.059661740649394 0.18729946598303873 -1.3552585582207821 0.08677113214897314
Ni 7.895486954119335 6.244234646944674 6.978237138532348 -0.5839954869584717 -0.1639641336912079 0.24731724129756763
Ni 1.232993075059967 7.533695512414765 9.829991555120062 -0.8119888311164467 -0.936390114913368 1.3566173862415216
Ni 5.741905831346254 2.905746015604608 10.857599990229051 1.1935510817742347 -0.019947903876836613 -0.037043940127174914
Ni 6.547011567912385 6.046991299228849 0.6796142255810387 -1.0912332601399144 0.885827314364152 1.1847383685786113
P 7.9027332263799455 3.020183984099619 12.184593064866933 -0.0905686515181924 -0.06444572917889545 -0.8639644528527894
Ni 2.5289948234555637 9.105385399129997 9.0243105140053 1.9382104344060875 -0.9300407756565725 -1.55441338088051
P 2.1949334274309806 2.0106252711588755 4.094572557386625 0.623185784004688 -0.7515529944278927 0.2851852199879346
Ni 2.0008780730738054 1.657793190100168 10.484028546628247 0.24832537084710782 0.9319683316965883 0.793042371920931
P 4.177553825896192 1.6342405150280677 9.946318501289078 -0.6376731789875857 -0.5143643569238948 0.3038126052811348
P 4.846382007280463 4.720584522220144 1.4791061623477981 0.23010293430181017 0.5894333701445913 1.5956063101790519
P 8.224115936173574 2.7788767051909495 2.6358063423210454 0.1638090961705824 0.8222429047442871 0.18042896411545054
Ni 8.320396999965007 0.8884222940323836 5.00669868134863 -0.10419087028731734 0.07576423951550823 -0.7086482246445667
Ni 7.924810996478648 7.430552934181868 9.062603077910932 0.10306601265425476 0.5284815130515672 1.6302298137901925
Ni 4.687385418967989 5.007879521417395 3.8200460212447966 -0.4450461301440465 -1.0508731111553127 -0.6459161357226683
Ni 5.45961268379792 5.002914313370302 12.359418773077145 0.6218454679267097 0.8437892634564952 -1.7162964636729732
Ni 8.578441244006592 4.541204930393309 0.17229546750429325 -1.0556738749780659 0.18872051470028142 -0.4223872550939499
Ni 5.13230287140933 8.867623388697757 9.213254085908089 -0.5555004648425723 0.19270803859311972 1.9874748278588543
Ni 7.355213688832607 1.2450854636617454 9.49097227976875 -0.722039301239492 -1.2904425901866614 0.5200143561208206
Ni 0.9664200326939453 1.4890768864039918 12.902465959021917 0.29959599609662596 -1.254271539582743 1.114520769912945
Ni 2.493029128265729 6.92973566715867 5.670135672814609 0.33760332857833475 0.5769902592852321 -1.0628056009268405
Ni 6.38328795496467 8.443226353277616 7.522062084925826 2.0036385821029103 0.786360074804749 -2.6453162542641993
Ni 0.5558129007300591 5.567344873159218 11.06192288181719 1.0656309861907778 0.5822543358976489 0.053616499773875406
Ni 2.7251846676189624 5.850462501748583 11.471655147787539 1.6392417874808154 -0.9053612706320213 -0.7097378581643196
Ni 2.4179647099301445 4.423157567118675 4.601217073189816 0.9783024388764378 0.35431961289175107 0.14816470476510613
Ni 0.3161591643536779 0.7929968583435316 2.090064019462149 1.0628500810115307 0.04946725349219223 -0.19226452329779792
Ni 1.203549940994728 7.370347496385742 7.550459960249047 0.15249521381965994 0.02117406297445386 0.0374692005900516
Ni 0.9145308603316776 3.1756902693383977 8.255970219238804 -1.954351048721692 2.105086085317136 -0.8754891656629374
Ni 4.932155518248986 0.7568296233436671 3.694079059526044 -0.05437497520645474 -0.7313423238079727 0.6158342287356232
Ni 8.032863817355903 6.82142634106865 12.447227836126967 0.6900226391235794 0.81219914735504 -0.7364868441233897
Ni 1.9092049422116872 7.673600784177158 12.178211581609357 -1.676407340787519 2.5313798745543434 -0.4053387842520954
Ni 1.3293382651545906 5.99122889815383 0.053212922478143965 -0.6075863869045343 -1.2302504940777974 0.4325176586597325
Ni 5.686051821266676 6.428854273832281 8.464489719325789 0.18851045557200435 -0.6517535683400517 0.03298776777993028
Ni 4.60222568833001 2.82593625083287 4.874014031325572 -2.370165792804447 0.061188398583862366 -0.168615002199658
Ni 7.211534126082386 4.888714528287142 2.6847585299971537 -1.0894900521965625 -1.8002182992986095 -1.1068979632603648
Ni 4.3944106614880845 1.255345672172345 12.534204173325348 -0.7880202361159913 1.4696731631186366 -1.125134026652417
Ni 9.037942849973714 7.694075396696078 5.402889304265079 0.025704346744639603 0.09003077673685139 0.2596719062081786
P 1.5904972153511798 6.666826984975005 3.76444301983771 -0.7586294416586999 -1.9099175009986658 0.8282777980844575
Ni 0.9416856014630348 3.270313210147314 1.385827125635762 0.7556485046535051 -0.3667737794947038 0.3744179263035229
P 3.2643494639505275 3.4451398344475703 6.710588606452805 0.5122393401610921 1.6644992764960236 -1.5389515377994851
Ni 5.787041587892438 6.432289611503241 5.818855562995662 -0.6650063195848999 1.2113462009741267 0.00046305567934758955
P 2.977081947454644 2.473305709584192 0.05333293027411616 -2.1882985535805735 -1.7225362739350978 1.0080665575127479
P 8.022273816428891 3.9817212568505735 6.493286551098756 0.6871229489782812 0.9260087716790439 0.5556583305766752
P 5.446118677426391 7.987773865311998 1.7311078764486771 -0.14247125392475463 -0.17636147891429627 -1.2481636269127923
Ni 8.698091764861006 6.420352958209212 1.669056517210688 -0.5325582542241022 -0.8894834230595003 -0.487355946655851
