# total energy = -340863.25330195646 ev
CRYSTAL
PRIMVEC
9.32360248441273 0.00000000000000 0.00000000000000

0.00000000000000 9.32360248441273 0.00000000000000

0.00000000000000 0.00000000000000 13.64603468012006

PRIMCOORD
 96 1
Ni 6.582276779094844 0.4368452668980368 13.887023653293706 0.8033375831993519 0.9864695480682624 -1.9031354450798255
Ni 5.387214725726107 2.51104190546843 1.204685875702771 1.81586371914535 0.05420116863275182 0.9732489356129304
Ni 7.207303109076118 7.42197905292532 6.240372822451835 -0.861184061894175 1.7008248503999353 0.9157742384352293
Ni 5.008527293136351 4.297481407977974 2.8077534292153925 -0.2197771268957699 -1.9666530060174972 1.2827081976568813
Ni 7.29147659099015 5.181946296636681 7.156512785335901 1.491416725443315 0.6872605029974098 1.2401237873274513
Ni 5.384398997819811 2.076431506050986 4.019003120964628 0.39649933158359457 1.1908781629277618 0.8383413529680466
Ni 4.743252159394875 6.085766983750587 1.5267725155748142 -0.3879570984405383 0.8668119496039136 0.3894851050492905
Ni 3.131536964713084 7.647078784189218 4.8363595170698765 -0.6580458291066668 -0.1898998797203633 -2.4913154024332904
Ni 8.715069461283438 1.4891098239275244 0.9704117197375651 1.0983397892777083 -0.3730171893012543 -1.450954503663211
Ni 4.947560257443412 5.378506481141735 7.12624557506369 0.3757073345389078 -1.2868178489498807 1.277993308679715
Ni 4.695981495537526 7.535596471025053 6.900676866602153 -0.17031347294800345 0.654223370036783 -0.2129595897533042
Ni 9.266374067572395 2.0964399566698955 10.078892446424076 -0.15540364571570656 2.299302333024666 -1.517775160832186
Ni 2.781771346578061 2.066166219876047 8.97187223757971 -1.241188738256856 -0.5575522051652785 -0.5388021782512851
Ni 0.4731802775722918 5.94917620948823 11.193773384400226 -0.7800161348645922 -0.04461866715063929 -0.3061209416993373
Ni 4.457642248952636 0.2918110383577273 3.162646096276483 0.7058061272100812 -1.7138235766524483 0.176870814450547
Ni 2.031827392462514 3.066159865113927 4.7679792851574145 1.318292265409078 2.1360869045740243 -1.09831510668736
Ni 4.303187452609276 4.26674149106719 5.3059464783008226 -1.068127527360386 -1.0742349258097046 -1.5236506457763566
Ni 8.202634953144635 4.472000596554276 12.801030964803871 0.1250952245401523 -0.5724517479849303 0.16696538241137696
Ni 0.4645643366510737 -0.16416812525984614 2.9395472100744753 -0.38182090363581334 -0.3472135979745891 0.038416394994669326
Ni 3.1897628613184374 2.5081049707317313 2.6010976480979653 -0.574752628203965 -0.19191151083375335 -0.22275446435653895
Ni 0.5404808363339286 5.6079137166861255 7.682922441020222 0.6435635763300916 -2.361880155756887 0.024674362818228473
Ni 2.728412370393523 2.710930616008409 11.896285376337964 0.4094301807126497 1.094943619111966 0.28379219629514996
Ni 9.153996688583712 0.7180199397077438 11.734675647559863 -0.9837179534650543 -0.2614174281443756 3.3416694635914967
Ni 8.139309046059997 9.085971685920356 4.854904162121605 -0.0594611314801105 0.24297156273436218 0.2992712657673556
P 3.553392676131149 8.122386707815208 13.148295060431414 -0.5724435204548142 -1.0179897301637306 -0.37644138449145487
P 7.272820062710356 5.854765412206275 5.0029368611740495 0.47133951662293666 -1.7451452695838656 -1.8155485018977764
P 3.636158294092033 5.691350634015397 3.7236612344012245 0.31241037425247487 0.9232978005057841 -0.7156963897405997
P 0.8581117266482938 7.0945154915845325 2.3837169272103 -0.5794947708746407 -0.13962838515932083 -0.2367132405294762
P 0.807913451656585 9.132011634268991 5.643754576436428 0.7116067930522584 -0.023184408536263298 -0.3187525144204188
P 9.117289666176141 6.65967200210862 13.271287360682738 0.4159993492897352 -1.233594985069998 -3.047031325720778
P 4.39723462940002 0.9518652099653684 9.551268857715254 2.5940726255978745 -1.924746595591698 1.9367968418880128
P 3.5256829299804506 2.8706159532637954 0.4983968924576142 -0.9759092560539129 0.2900111806216683 -2.0491383663069227
Ni 2.206775466746397 5.607447536569189 5.363219502747158 1.4429663432514117 -1.3318869733743772 0.7951401349902241
Ni 1.8625853628099323 0.7190306182012619 12.938050624773808 0.7989841913266627 0.489855316038937 1.1533356858976138
Ni 7.398502222236404 6.835552436626377 10.385628707405639 2.165345801439142 -1.4279665274084699 0.41189972529906477
Ni 7.751503130382966 3.3488421644218063 1.776618019805929 0.04682493077333871 0.5363256916863344 -0.2923755670887868
Ni 2.0558263448823983 7.711719319203616 6.773945801813 -0.8228954507266215 -0.1593898840569642 1.5326700756661473
Ni 0.31539042867236916 5.441506062144517 3.6608760962522333 -0.8972458406137387 -1.3547479371329505 -0.6053595544565445
Ni 2.808716557336983 7.889800123873311 2.316291432177324 0.5182652346401978 -0.017292211421544412 -0.5163081109138269
Ni 0.35122476190103447 6.968684154421066 5.321161664957392 -2.0910715162055986 1.423943779402322 0.7362950398275577
Ni 8.979151173925555 8.652703885239688 10.037040660245996 -1.4546975156454107 -1.1819083553289838 0.1416158479029948
Ni 7.5354193225806165 0.8677691139507479 2.831647957289084 -1.197712412240776 1.0347448381348823 0.23355206919267518
Ni 9.447233305739031 8.56667500646025 0.27027165223479904 -0.6371828696147285 1.4589735173129452 1.705772681323514
Ni 7.4287852826325915 6.867262008180388 0.8858559701276454 0.7155171838502581 -0.8994035103866898 -1.3694261079704158
Ni 8.484655276686464 2.846700913264959 6.762319269696607 1.558084401974194 0.947669287371613 0.3877562952836419
Ni 2.3349190572898677 5.331329053307774 1.8144037830040902 1.1360635290807273 -0.12498261022168797 0.958424211895272
Ni 7.337441950520077 7.951186721671492 12.287435668173897 2.5362361742053805 1.3625597198678856 -0.010954699239290813
Ni 1.6797495209474858 7.234863677589398 9.210813788875683 0.2207127513361618 -0.6457266454196815 -0.1371683536546025
Ni 5.9192940639926075 7.246891124606356 3.8525208776043094 -1.798982112898663 0.7410690641774335 0.7847590488662163
Ni 7.3388498144732255 3.360011840023602 4.080314197583866 0.14323230046049526 1.5958711338046645 -0.04126183486326442
Ni 4.246751687652958 0.3816821736609556 0.8481587811517023 -1.2518891553934957 0.019891853827920577 -0.8164579226313938
Ni 6.804775225306237 2.871818697965491 8.596537572390961 -0.5182904314511784 -0.6654966289577571 -1.4450751620642983
Ni 4.9841833674299325 2.5815563099562264 12.358954224633573 1.8776450141182053 0.32037385207392566 0.6882151536011953
Ni 5.634513954158515 7.316902054567861 13.46770769115271 -3.6960011606681054 0.874132908745359 -1.1210716836575854
Ni 2.3030323372914197 0.6733720051882794 3.9522461282193393 -0.10328918440865437 0.3074725706312253 1.5411259197429847
Ni 6.311510043575858 7.490162556828435 8.635797397118875 -0.5180374349001078 1.0076163573492067 -1.267341999613456
P 6.1913194858273215 8.723432732581276 1.944450320784895 -1.1283278509993666 -1.0029120098950017 1.236716304307799
P 0.6333513745095255 2.9219890021501835 11.977287901096593 -0.6987134820293579 0.6004790864357916 0.05315370120484394
P 3.7381118856660183 6.425752143032287 8.642975638559461 -0.3013870265587777 0.8017864366621482 0.5473580382410961
P 8.234624232768809 5.034148552363173 9.587021143243339 0.4814087279334805 0.5081075773809056 -1.0215332245406148
P 4.479879040530501 3.0438298375126744 7.346792591305587 -0.6879588146160152 -0.2850576932711349 0.748902187068607
P 1.5097149850961125 0.9573661353452175 1.5196222449412442 0.7039832150687295 0.308941698977584 -0.606558202750336
P 7.32474320413473 2.033086078778242 12.32561675211122 -0.30900700499788075 -0.1495667273189553 0.40253808157850673
P 0.7664840246644494 3.6083180175085925 2.495778236079699 -0.6380063939572883 -0.8425345651137878 1.9717221930102882
Ni 3.395749207787944 8.979328322369991 8.254172097432185 -0.7687976404409533 0.1404215704845775 0.4236625222619477
Ni 0.5388734472907319 0.770428840813965 8.288396244536951 0.165417835418599 -1.2896836005334498 -0.26260193537078
Ni 1.375529700237146 1.7619930171774012 6.376205587844055 0.23678446008704382 -0.4420667358007483 0.4766200482955856
Ni 3.3063824793712415 5.680693756542232 13.217384818481852 0.402644525249384 0.08083368361861563 -0.13308724160669338
Ni 2.826244929733791 4.352164335694612 8.087840896429753 1.0740462068376664 1.110814010485319 -1.3146307573970908
Ni 6.5059910647593755 0.8433944203566125 10.381916981314593 0.27235541521311807 0.03306412954382048 0.014009426905214582
Ni 5.431828162916918 7.696316728140038 10.953221646980353 -1.364737958466127 0.25760525348713703 0.15162720939240984
Ni 6.231299092655785 3.407189267857563 6.270393889622303 -0.10213501619955313 -0.8615123917678712 -0.6417298655554626
Ni 3.8335855736145876 1.3151220806845307 5.963917757145992 -0.5101194656046117 1.5160530359347568 0.1203127155498444
Ni 0.0649304990471322 2.108122430400321 4.2104977923190505 -0.5697793433590896 -0.9640929801452751 -0.4179109644901512
Ni 1.7796239491999348 4.165757554136433 10.142824387660733 -0.29002943545411336 -0.24990094286434383 0.9409412246191601
Ni 3.0812268064933104 6.74415316289983 11.091960579221555 1.5851200659357476 -1.1925473231000687 -1.3860601169826707
Ni 7.0477110078441205 5.419409124601733 2.596772428973029 0.5248922530384121 0.11232738335152267 1.591423639556272
Ni 0.08025570421129861 5.281177396327759 1.2055156763109178 -1.3076864648687736 0.4696040219890687 0.39534284938164815
Ni 8.841115241300693 7.454406541859414 8.069746581370985 -1.3830560400490246 1.292461163278587 -0.6703238751430713
Ni 4.70453123888214 3.048780670354539 9.981788060426464 0.8008320431686788 -0.9121003891280679 -1.1445391706519064
Ni 7.910050988153027 7.727233793495258 2.799388293197086 1.5067322727544632 0.27485607014778474 1.720926763356133
Ni 5.627987432521406 0.47134446027179633 7.512837557716219 0.6538909263980287 0.37075641829153566 0.11495607922362137
Ni 5.797714289495602 5.211828442132303 9.499372754737662 -0.40867530482449616 0.3574643291683198 -0.42173625177351237
Ni 5.745903031299292 5.111385274137192 11.91055887915832 1.4550291879532167 0.8136284236023987 1.9646987105046034
Ni 1.5016593926754518 7.876001192411994 12.204098513389647 -0.31541059453137943 0.06686050926797518 -0.26738444436108794
Ni 4.37152013414981 0.39133583152247403 11.855088107044063 -0.07114936645131618 -0.2386204848545181 -0.4493313877829616
Ni 7.199126309825055 3.5013390042740333 10.656038348955052 -0.0043968435161150085 -0.5029620286242241 1.9889727525606198
Ni 1.2733057241953376 3.2759595649399733 0.5091945563260946 1.335391644093526 -1.1467683170927412 -1.477820217705803
P 7.234733147156655 1.6867328990991926 5.46624624095033 -0.00705587840551688 -1.2712603608312558 -1.2783224098843597
P 7.648029791627768 0.194327181744928 8.473655290647233 0.05803211234306779 -0.1316584795799668 0.07997056428737194
P 1.6769897346552225 9.09407389635271 10.275873125394606 0.9725074294612155 1.1540995606468318 -0.07455222148527806
P 6.2386087968893476 4.6837675764737945 0.5744215459275983 0.2776863405077282 -0.2535213132257505 -0.20696814805655966
P 3.9784557067537354 4.605150961553643 11.067752778109282 -2.8924046673804122 1.0170813594168484 0.8279785216764837
P 4.668607399071023 8.853366454773782 5.292996927012564 2.1566079073455118 0.8253063741609593 -0.8380011960198084
P 1.0961013381454827 3.0534611187285803 8.201048076026582 -2.1946090691796334 0.19647907559977773 -0.15885046661372643
P 0.436749233793948 4.56737172487712 5.7408188709439845 -0.9016694236027311 -0.9854652751734643 0.19132092843760598
