# total energy = -340857.25313154084 ev
CRYSTAL
PRIMVEC
9.35049176717095 0.00000000000000 0.00000000000000

0.00000000000000 9.35049176717095 0.00000000000000

0.00000000000000 0.00000000000000 13.68538986344738

PRIMCOORD
 96 1
Ni 1.1512886717609354 7.71728827305209 8.434154958942626 0.6487543765024117 1.5109964473474558 0.5783765981097975
Ni 8.711451278095428 0.5573875003492782 4.842096153041354 0.13449054971212324 0.06287375670608526 -1.0517038345867242
Ni 8.244571864570299 2.3953435741517963 13.10348768253022 0.5257013792032688 2.3630767471681495 0.17286349306336682
Ni 2.8510210983215547 3.28641740545308 5.301323123955102 0.41561368381554226 1.9996531150926014 1.0032794205367495
Ni 2.7986489929130056 9.14673537932356 12.57336995690215 -1.635702921089622 -0.6952067544276801 1.4259520680816022
Ni 0.11705319841927858 7.034356392544289 5.803878404463946 -0.6552057885547102 -0.5246138025660448 1.843840406863934
Ni 6.209586899656149 0.7260946863953924 7.493367367094006 1.329994898557987 0.7546915400568744 0.08127874157583422
Ni 3.9776899247797393 2.9071240500179116 1.371960281766605 -0.10611585522417208 -0.4383453210851031 0.10531264259658636
Ni 7.126299779882668 8.307397819978268 5.965338024200086 0.602207381980808 -1.8603530598069766 2.6277337652957455
Ni 2.5783607530772614 9.012911138543853 1.6602294032220197 2.7856082411494474 0.4475750672134872 -1.2128194430855435
Ni 5.415552473805665 6.557565457552802 4.901778473055939 0.8305131151728794 -0.8439579278238755 0.08073186793342871
Ni 2.2511496378002103 1.2885164916102239 7.261768772196276 -1.664473565464411 -0.390927751033088 0.9703289337526579
Ni 1.5585025961569907 4.736594552376356 3.1374575233548887 0.23008570791062952 -0.07207522069969523 -0.9426957454164216
Ni 4.550893782261415 7.025735238966949 7.271759772844202 -0.2759737286919957 -0.9058099281336659 -2.0101871818547057
Ni 7.696025254359171 6.577818623115187 12.298827357628443 2.903818565644309 -0.7345549172079995 1.532161254350529
Ni 0.3830821747730626 2.942132291876438 8.04911666125375 1.0453007592738577 0.38112207779657586 2.1116351992895637
Ni 4.229872692654863 1.7413701672112656 6.563732106993427 1.639610483674144 0.5383049268998923 -0.007334585988200271
Ni 9.124518610451803 7.528015615012481 3.6726525661114784 0.698663602628029 0.6423073353254873 1.2896257507123208
Ni 8.512594365807693 2.3222601290753424 6.339059421482611 -0.1737726351411975 0.3310912384914298 -0.3496882847673268
Ni 5.278689323142403 7.383774926201148 2.129583891966155 0.907999993806449 1.553979121556569 0.2876645347663626
Ni 4.149785729108313 5.91946918594234 12.070432241272576 0.26000409273661673 0.39019112997737965 1.2826094672954877
Ni 0.8975256707463647 1.1424805083446075 0.459362553047014 -0.08974589850658092 -0.15910320605448083 1.5056770920170712
Ni 0.23023809831909334 8.120032662296335 12.819460879272246 -0.3944324217522368 1.4577846392111669 0.5555945672182754
Ni 8.778774820131057 7.208845922811907 1.6118518279742513 0.28097092479627095 0.3120897576882626 -2.7869403296973094
P 3.6882454464862855 5.241418262232123 6.045069669052558 -0.33998622698821446 1.4520996730112474 0.001959180608899851
P 6.5350401224467145 1.8635904474817786 0.5328555496708514 -0.8437956912143985 0.543561033092509 0.5119045825294927
P 4.236614397350374 4.110205096686533 3.6230014538602022 -0.015997918090153093 -0.39112315487334576 -0.9603283708965202
P 6.933165368667961 8.405727593318083 11.07038590669468 -0.24139341961396493 -1.5544429485668647 -2.085754731978376
P 6.306355140840415 0.7855301534225128 5.354682641313508 0.2863918387015262 0.32640566009030236 -0.3820494747068517
P 4.612532225191812 0.5241997992732985 2.7765463000430315 -0.4829876423848263 -0.7591050957435378 0.7907908568825929
P 4.180109374500194 0.3632965338081475 11.204228848458287 0.8097689406469926 0.8226460537199767 -1.2208335716392718
P 7.789698482708188 4.400350861876191 6.000633326161459 0.8921609698916635 0.5790792806037769 0.4056573439337788
Ni 5.037465331831967 8.128831475220714 12.74484769371287 1.3206545949936674 -0.42700701325414847 -0.22530859823696034
Ni 6.013273321178649 4.090821526875442 2.0183485696377885 -2.4054770665112315 -0.716196983526102 0.21281972174133024
Ni -0.04984186228704327 0.13531470919644267 7.002992037398441 0.11673373994933445 -0.1550056389463395 1.6686096991199717
Ni 2.587729946010553 4.7597089684752545 10.87150935837385 -3.955853044097574 0.2835772520708664 0.32578216757369055
Ni 6.876398532043197 2.243641192764848 10.24040818979073 -0.5222617573941005 0.38619743543695423 0.2649755778092791
Ni 1.130474476681587 3.236616685330614 12.80283289943864 0.22544435248387623 -2.948153383005942 -1.9217412331064712
Ni 7.130376594372604 9.224615626770055 1.5508828802674308 -0.6299285020451602 2.138378271711362 0.523850184927143
Ni 6.646713047798312 2.747838419660005 5.052701023414309 -0.7391538494325915 0.8006340682252598 0.39163171907864813
Ni 2.3118623820276176 6.851582326409509 6.553550356309732 0.2059517909769034 0.634130970162282 -0.8702525998543463
Ni 6.359615542984157 4.64536180242613 12.51010265827417 -2.191591108288916 -0.7891345522260925 2.110591331406081
Ni 1.8405975877782217 7.208210089359349 0.7459944033620901 -0.3655800162969188 -1.4131538878756695 -0.03485233179249481
Ni 5.42717513529876 1.7409867970413404 12.225911286357885 -0.1512860240029072 1.1262537420791572 0.5801059220960784
Ni 5.09346542811688 3.867587882075639 6.612247134472851 1.1094484975963603 0.16943287011526303 1.1515626531575909
Ni 2.795937350247682 3.364568817166105 9.096719597886258 0.03926974413390011 -0.8171634333388508 -1.8161270001090655
Ni 9.099244230712596 4.329408679456148 1.4178749374349033 0.6114463840805728 -0.08582213797214253 0.6120279676156557
Ni 7.584763750653346 0.49160585443610516 12.309871223669871 -0.04972924890432726 -0.5574275066619562 0.5913187600927623
Ni 5.279830083160228 5.428222390397091 8.95436490330112 -0.08642737565630922 -0.21263511653434994 -1.0465135486350365
Ni 7.3529276532601004 4.5859020241199415 3.8998302484155354 0.8346032260818529 0.40267872092142903 -0.43926963267158536
Ni 6.743415835538933 5.918253621988919 7.15506376321739 1.0944427682161475 1.626123504931303 -0.6305411959284948
Ni 4.712264572324036 0.46464651604761587 0.6759984907273257 0.20419932706217092 0.4902227266806848 -0.3642319869094566
Ni 6.25962138207735 6.399261628849582 10.753692224762306 -2.2521483010466827 0.48489771492334555 -1.6489811262557665
Ni 0.019173183742229892 7.03773192013802 10.574413372518208 -0.5962395944331473 0.10637065154745551 -1.442888953046257
Ni 1.7127296103702754 8.826490380548808 5.135046130766635 1.040108416439641 -2.068247833442864 3.6328926622433952
Ni 9.199397349982542 0.27170566001626045 10.08652901387796 -1.1750998170475826 -0.7560948481623042 -0.21751969832016085
P 7.082838693301891 6.527924398073227 3.135172263122457 0.24912446970963548 0.8061372574316761 0.5238108470487752
P 1.3741576473747124 1.5909488032213837 5.2649478401735745 -1.7392610428889466 0.6855802870815096 1.353912585715849
P 7.971771261946763 1.592687994723971 8.571583814368827 1.34787229305904 -0.2054617387143623 -0.9466819837576793
P 0.8700969376620159 0.7583118064070253 12.05975771966315 -0.43650106878751277 0.6359312565958144 -0.9451766028567463
P 0.38572836399474086 4.39698468477441 9.9956169858016 0.2851787922300314 2.5846055666477037 -2.0748352568523947
P 1.9926085353995002 6.872705087723188 3.566973306099441 -3.265740930583982 -1.1375151739255893 -1.0697408945940932
P 5.141199689518531 6.18047881821769 0.3611973483655089 -1.1271718830180524 -0.8556682742822683 -0.6898712011473797
P 3.611908030211443 8.841423116191988 7.828084122258835 -0.6823694934536958 0.49205489479341713 -0.07293859714125503
Ni 7.130685160606933 5.590687188017791 1.1283743561897535 0.8455103599126599 2.3016163258698232 -1.639734410846518
Ni 4.540608241117083 1.2072046136183041 9.045728560138635 -1.0935194850709298 -1.500305029071881 1.0196529767987665
Ni 1.0554648302635583 6.022287195417863 12.375233032494519 0.9880260939221049 -0.6755370439128946 1.1950358938498775
Ni 0.7402597466495275 4.44271794089889 5.202159286733402 -2.959828505351025 0.04362030779311197 -0.12633346782262758
Ni 4.603854968662776 4.008799011495369 10.654856589808029 2.958080669421983 -0.9569108605745392 0.33732796342976096
Ni 6.8750146592346875 8.702549609759608 3.8048255100129245 -1.232750891902148 -0.13863491089779995 -1.8236981275881043
Ni 1.8073472384061808 4.575990502653585 7.052998468343794 1.367097716947555 -0.004096538666876816 1.8940957034750605
Ni 0.6299024355152092 2.4912235186008704 10.54026818106661 -1.077498427052325 -1.3744932380806778 0.02389120479530079
Ni 4.504505991700477 9.102021326821566 5.5190577444394675 -0.3999379249514983 -1.0518182486774017 0.9288770943657744
Ni 3.001124545585157 6.0517318945665 8.796092866270527 -1.1779365151654293 -0.30737898247615447 0.7131543400450363
Ni 3.586138074398916 5.783045508400699 2.173609748260676 -0.009211748406255103 -0.626962734548617 -0.16258936483086836
Ni 2.888946693668292 1.7084377345655042 3.8339214358118503 2.8693400722514646 -0.26974471706314834 -2.5503661858488593
Ni 5.945257842738766 8.04652844508216 8.568792692521933 2.1542401784442835 0.022192734046955327 1.840610587072727
Ni 0.009446802016471524 5.7354795558541385 8.093594146309426 -0.6638588362440179 -1.1482410449835256 0.4811374765499649
Ni 7.709817229984525 4.563516946393095 10.878831728619419 2.358137143774687 -0.7124022923703601 -1.8537404395864654
Ni 4.086941072716444 7.810550079755333 10.261839517338737 0.12589586606457673 -0.04466391856627792 -0.7025693654403384
Ni 2.313115347948836 4.447458640317232 0.33062684998616415 2.2927033396509096 2.872137946711576 1.3099899161909698
Ni 7.251362609705797 3.8592472432567804 8.112767330051657 0.23476203034037635 -1.2731712047007233 0.960189788436127
Ni 2.216459312667963 0.6569833302990405 9.899956777913337 -0.08983974377196785 -2.0987267187580114 -1.819412098618241
Ni 3.6875348090981315 7.735474979893659 3.9865813075744168 1.0220016795366014 1.3125841592807073 -1.188686811703398
Ni 6.315808488201252 2.121233902655347 2.9047789466370038 0.18917482862888066 -2.5819089936521467 -0.991665490446905
Ni 2.7532710554826028 2.223172965887627 11.252976703187253 1.7601245166015174 -0.1619612443285662 1.3529309385288701
Ni 1.3737742772047872 0.21731197824825277 3.2594496516218365 -3.315769455896283 0.19582318718333375 -2.335613765861191
Ni 9.0537353863949 2.9083209129874334 3.284958728708975 0.35570800859884544 -1.1016387717439544 0.614953883013199
P 8.737735510965171 0.7146870862171333 2.706436311406484 -0.27248808413624037 0.44267737280155367 -0.6364146239901363
P 9.05482004346103 4.6018726643695045 13.054178798284292 -3.8553326806833086 0.9679835734489329 -0.41342593213560414
P 3.793401078949157 3.4937178119711185 12.51702763261189 0.38060657161273803 1.203516934737695 2.9973298447305927
P 8.334542298107355 7.717110613705051 7.875873551562986 -0.6532026420817525 -0.8519815694593006 -0.13116817020710958
P 1.7205840236077654 2.9407390685759784 1.6847950156714644 -0.7062172466055708 -0.8179995560869009 0.7212602569816223
P 7.202945762391841 7.920736276886977 0.07469640493772423 0.2358879164147034 -0.6216644622641552 -1.1804813930744702
P 2.2266045964330545 6.951847651582847 10.880254873494117 0.16273900303485522 0.1468650121170761 -1.1451611205066212
P 5.176993372700807 3.165291132740646 8.828007030343 0.5866231543893059 0.9627963728210386 -1.3304384138533085
