# total energy = -340857.4714882022 ev
CRYSTAL
PRIMVEC
9.32434759673188 0.00000000000000 0.00000000000000

0.00000000000000 9.32434759673188 0.00000000000000

0.00000000000000 0.00000000000000 13.64712522731616

PRIMCOORD
 96 1
Ni 3.502495297116154 7.628043488852535 10.07273819287992 0.513978948560018 0.4910742760477026 3.7007882976441038
Ni 9.216045124950815 0.5472851123528667 12.065737264567735 -0.6069844916544772 1.201613032846763 -0.7216006710401766
Ni 2.0006506311808625 1.703698138888579 5.699898983211434 0.8214756875609593 -1.5501713177747047 -0.26441533443043497
Ni 2.5958144026671617 5.127365402914051 4.442999329397313 -1.3394437026757124 0.31837841891045165 -0.850694989437393
Ni 2.862574658012718 5.315689247760575 11.051428225151174 1.9781874890196576 2.383383834156618 0.5262366828814485
Ni 9.055554457153699 1.4024005006984654 4.858580831743561 0.048007381117214094 -0.12126813748457822 0.18683049676642016
Ni 3.169438931612713 2.694680458363933 1.5316163748133655 0.7394592964881523 -0.22923621542614067 0.05026686657535214
Ni 7.346382926329441 5.630954758386204 8.422049901510128 -0.034527344352908274 0.6007480238264622 0.4698721880487908
Ni 3.9208041710828203 8.845570153249964 8.321675166400762 0.5744839479236106 1.650581380863351 1.1411111188069638
Ni 5.644307223891983 8.552813617296787 3.6284700280677806 -0.5306186139992282 -2.619592881356166 1.2032857925634954
Ni 5.620352975369394 4.471490805374589 6.9570317457110615 -0.6081749124181526 -1.2743971066880246 -0.4951772424724827
Ni 0.8276878204089718 8.33716011016155 5.386984140570448 -3.564340881315926 1.5927742400468956 0.3738954781411496
Ni 1.9340561419055309 2.54771941867358 13.273849135374949 -1.2844262087892524 -2.2174157826615035 -1.3483587457771553
Ni 4.779156972852725 5.284918901273794 4.258311980044683 1.1125459055747615 2.3977632428067417 -0.07853074651705184
Ni 8.361412737801585 6.39605476160632 1.512456705734263 0.42980514482457594 -3.6851238516339695 -1.3114163642248513
Ni 6.017048012015952 2.189533936872601 2.4013075830462784 1.4001513049684144 -0.8393350843398834 -0.8765587445780323
Ni 0.1971055152469031 2.3556378618167004 7.834364256654859 0.13147104615950905 -0.7263309866363103 -0.8559408112173646
Ni 3.695052395691466 5.902703539601586 8.785186611791252 0.14061800276609976 -1.363526197546213 -1.0662858461659572
Ni 8.871678326026627 3.9396020554820184 4.487270398513856 0.8638351263637767 1.4258438246385121 0.331445536507055
Ni 6.681305197886205 0.3351459517603157 11.578125178400157 2.534217344003139 0.6557428920051029 2.1452590579915958
Ni 6.847082770670596 2.4784581660360607 12.859562784885375 3.129277059195572 -1.0321673072156934 -1.9230517243877787
Ni 8.94769973054382 8.735850557156038 9.122543366324907 -0.2762277536843307 0.8456090902740534 0.10210519140288221
Ni 9.041334827337836 6.610803807041795 10.207162647463765 0.9736186602475231 -2.2002158738434496 -1.4580504912780436
Ni 8.372816414696535 4.206567446470819 10.563666016990132 0.0015606596189005379 -0.39199553017597005 -0.6258836425518253
P 9.234041115471873 2.755754933966484 12.314428799482357 -0.8214538331840885 -0.26121816764937594 -1.0427432829593266
P 8.014994582444945 9.041735774276907 3.3988439863233175 0.30010533163287667 0.4590180189431063 -1.1744038194218225
P 6.2318530035359485 8.60447982635232 7.707322820358358 -0.21486194898233962 0.7348827328610634 -0.6953674483752604
P 0.8742013950800813 -0.13562449809682928 7.3586388485786 0.7377662250564455 2.232874026198103 1.0368521142858724
P 5.8320156618087715 0.8301391913457521 0.5279622671939099 -1.223461496180422 0.1945414922574327 0.3277758009649516
P 4.7417103936130545 6.890851257461189 2.426718294635908 0.22885723482016715 0.14579954696703923 0.037140356495723136
P 9.105710121927153 4.363281753562741 8.207531167455931 -0.10786857624922068 1.0123142770455082 0.7608102513601026
P 1.4294597569119927 3.6348917061360977 5.581060175340516 0.0500740338382557 -0.46470272803270934 -0.4712356440552207
Ni 1.5566065583343427 3.0183285573203547 3.1764778814802503 -0.6096548393977889 0.7152400189294714 1.2045548890839062
Ni 1.138409576536719 4.551456408850541 12.176660633913615 1.5654878935271166 -1.0513791042574538 -0.9810720312017749
Ni 8.635660444125593 5.309656394979681 12.601154347524124 -4.245976324817074 3.020711456879327 1.2822245731522435
Ni 6.242659922196003 2.715576320932684 10.608660655466483 0.10708387556439622 1.42498790439612 0.8936750925433448
Ni 5.951022307933254 5.919561959737376 0.5649799264522501 0.807298367619313 -0.8149291446916933 1.3916877475820937
Ni 8.960819087364092 7.3692275775090215 7.113973566880037 -0.8309944256846721 -1.8766173441846392 1.221290456671032
Ni 6.568685729744585 0.9817045937922183 4.532141955604263 0.8132093337871091 2.3745310117516785 1.2140715703250897
Ni 7.849962957454173 0.8780504856951552 0.46300979549928184 2.094849495190792 0.16359260928440214 0.992601114887297
Ni 4.331495053207154 8.670300394791772 6.212757672454045 0.5709391679951458 -0.28972578817076555 -3.0761768369364826
Ni 6.6053397394535365 8.23437782854828 1.4788433657190512 1.944063036532123 0.22565646849468235 2.887972599750987
Ni 2.5635801336354027 0.6673006528682195 11.780157678823914 -0.543091292544942 -0.5126008372655688 0.13138902796866406
Ni 0.0864422951940479 3.8859311117311344 0.826786156013435 -0.48103154709972 0.006983887517000876 0.6076084983917213
Ni 5.89971042407969 1.6209352311865566 6.949129361272411 0.8628339387927721 -1.5929781285275855 -3.1167341895335547
Ni 1.159156249546746 8.03487409114489 11.667240763999589 -0.053297682981875955 -1.7516601878842475 -0.35060334038242846
Ni 8.218470491849354 7.9062726915249835 13.738151285426676 0.7046473310152896 0.5498304110409886 -4.118325166624288
Ni 1.4775920382952554 4.71241329401867 9.596576405344392 -2.0219610345611825 0.07169752564530232 -2.398312173331676
Ni 7.211832593055423 6.5521536617685046 3.3603997019096803 -1.4372235272303635 -0.44284398028640504 2.1019143724573732
Ni 2.9203856120181864 4.134732673945315 7.3313175782025635 0.39855055768566844 -1.1743223154516098 -0.49265499027126125
Ni 6.646087137679971 4.060315057184404 3.7117718830506927 -0.6737416425753687 -1.3763824846835908 3.724147798305651
Ni 8.1053288602522 0.33497624863726744 6.827997696370857 -0.8514850894388561 1.087913965958694 1.136716589283694
Ni 4.417045940787826 3.116485962613188 5.005465411785068 -0.4291520846216093 -0.9351737260077635 1.4619693667164757
Ni 5.1682060446146885 3.049164174239078 0.3171909883679076 -1.8253801432762176 3.7947271511861103 2.116464502357407
Ni 2.2185792790866388 7.525932560253522 2.161950652334056 3.58259211421663 -0.28395006202925294 -0.34850866263692887
Ni 7.1260206237469825 3.174576647041264 8.258898997394018 0.9522052275687537 0.5439734380395793 -0.08959780296449087
P 1.0145449454062925 5.308994366312845 2.4668129885429266 0.8071047635512681 0.3264732801034442 -0.5931812672227977
P 8.02310676470055 7.63568945373713 11.575436969038904 -0.5841978327772649 1.5365953788624827 1.8017776733659292
P 2.777536609540158 8.182142834300112 13.119049116808405 -0.16894513184556711 -0.05620277244381288 0.4508725070178364
P 7.926114902835248 6.01579854946164 5.651451538885368 1.514313941756463 -1.5360675313834706 -1.1866916356502404
P 7.453109406901472 2.851460035887796 5.652802636826561 -0.8740123240070947 -1.037851244974348 0.9313908619265637
P 4.274998832187938 1.0092393917241778 4.527174875733502 0.08331685505178553 -1.165842817225689 0.10013624060196948
P 7.2840589881725775 4.512415366202009 1.9732790093287573 1.763363849474421 0.5431267737685679 -3.573369310066781
P 4.114125866146591 5.977568725038668 6.648674644089087 -1.3671468250179357 0.27756369888693483 -1.0638936917846968
Ni 1.2538822949889326 5.558112956339313 6.303156288258499 -2.29623115029851 0.07537780271036695 0.3300537983658509
Ni 6.303109666521399 1.1665411327035737 9.129654113667579 -0.5289497109372374 -2.217811989658658 -0.4538547295746119
Ni 3.3705837541620634 5.255519233857786 1.823364948810415 -0.18239020160687944 -0.32711785566597856 -0.008665646094797978
Ni 3.9379329972937955 1.8458198422678294 9.86865899819742 -0.8795386531419627 0.877428034556863 -1.0227203028701806
Ni 4.414276609604016 1.4730417567541798 12.700356079728024 0.3368767348249553 -1.1540352830677996 -1.1988642664570321
Ni 1.6779536156613053 0.12141512506313032 9.712795071590225 0.6433535172018146 -0.43298714209698336 0.03485773110913352
Ni 4.787073343812507 9.399128686547165 10.735988349228789 -1.4570318202055423 -1.225530720004625 -0.009324876945351683
Ni 1.1561444853300096 6.643998483857838 0.2869838324653083 0.4331172399169444 -0.9629436970321804 -0.709196898059185
Ni 1.4549711714537608 2.583207884955001 10.35045735374848 -0.22076777294381333 -1.0982814252359472 0.8373399082867257
Ni 4.471798508839457 0.4468572284632055 2.247599445562642 -2.0228112983766198 0.6611033849860678 -0.03445509635407615
Ni 4.740843229302972 8.146887476704196 0.5174938223452099 -2.8242148977780523 -0.16686330961587392 -2.068708575129366
Ni 4.217038688623746 3.598629319018796 11.2505533940493 0.308757607991236 0.13611857223384946 1.6780993837779614
Ni 1.3545945714749108 9.344954228035592 3.2804956391267024 0.2592618152539535 2.200469127504836 -0.3328169629332849
Ni 5.909584907997722 6.854038733846093 12.085907692907192 1.1290243628457588 0.2835101462783569 -1.9792676094577137
Ni 3.9283755411880525 6.228272454126578 13.00755230009618 -1.683980525149087 -0.06647201558030487 0.6044609539016751
Ni 2.3446071588185604 1.5918152941931571 8.135106163738726 1.2171072718276201 0.131806832232373 -1.1351075929253613
Ni 0.27145692914112984 7.370887311349823 3.011047174419892 -1.5624596482237543 0.21147709167050677 2.286035954933063
Ni 8.582250582102477 2.2316426898223907 2.6982824537723706 -0.41317319269484976 -0.31806268744224575 -1.0505128996024167
Ni 7.704810841163346 8.088302601862848 5.243225081784204 -0.8056868001578189 0.19955488631162405 -0.7699119565510547
Ni 0.8171997944306894 9.057027704046098 0.5311334777515324 1.2019925276733685 0.006623161743472464 0.38411381343504813
Ni 2.1264920239643796 7.380743146573014 7.2527506268396476 1.7526510910426072 0.7938291294882844 0.6053394998518864
Ni 6.147719416763151 6.666721918520954 6.484841197741815 -0.6357096275033117 1.8896764913614426 0.02418405344537125
Ni 6.838308559748154 8.248681377490922 9.811641546157414 -1.6951367988762225 -2.391679755616823 -0.781899210819918
Ni 8.398374450975405 1.914652174924018 9.830242686826043 1.007761367567503 -1.116566339588064 1.149835386053839
P 4.550682488014662 3.547130948216828 2.936847747388615 -1.3051261603407653 1.0426643500922754 -0.08802403071946775
P 2.5328564088857224 7.825673032424456 4.769643341179857 4.2362184740993625 -1.3247071677964861 -1.9639942282384113
P 1.6891987786501108 6.977726202375536 9.37007495242045 -0.853370222276711 -0.2195966354538476 0.22008643060607258
P 1.1531886671977944 1.6148837297108232 1.4498157397651117 -0.233313727929624 0.5160587139071823 1.4729904004173278
P 5.645304929065948 6.112035139185904 9.768993845926735 -0.1427443050804832 0.5838833868606396 0.7210959634896161
P 6.538083221511368 4.509543467196576 12.5597216097623 -0.6254663525087486 1.331056764163598 -0.9311705183856415
P 3.003819872734466 4.270532469773645 13.102713792562891 2.236810385138032 0.9373223969196504 0.9522466223296503
P 4.578860665918617 2.7496474864062295 7.916751393155846 -2.0665028257272993 1.0133725431066936 1.8404516928973593
