# total energy = -340875.53360126 ev
CRYSTAL
PRIMVEC
9.16600807475244 0.00000000000000 0.00000000000000

0.00000000000000 9.16600807475244 0.00000000000000

0.00000000000000 0.00000000000000 13.41537933169406

PRIMCOORD
 96 1
Ni 1.383343104582598 5.611081834784373 9.384044491375333 0.1789184410081951 -1.7165366047082373 -1.081049377628377
Ni 4.727057020049688 5.655060341524901 11.119176236047439 -0.8527966091614281 -0.8698862176538631 0.36232962768042115
Ni 6.297579175517725 0.4856215239824759 1.897900799454856 -2.474768553818202 -1.2146233290635016 0.19201975427684348
Ni 0.17361244233465542 7.659794631489044 10.292708452414562 1.041182109119794 -0.3995512310360409 -0.646617532665067
Ni 7.219477935615449 4.909873051091757 2.427740979589407 -0.678023300669858 -0.18271390349488534 -0.35202027533461305
Ni 7.8222804566222965 1.6521912874101181 3.8260393429460455 -0.03982278842389271 0.32234537397799967 0.31582274236813357
Ni 3.47718932504516 2.9419769475782567 5.998646320988712 0.1719476661173168 -1.0023990748143252 -0.22743104389660188
Ni 1.8039345510802829 0.883824995758664 5.168999765755665 0.717676653395422 -0.6105336424583163 -1.356649525031038
Ni 7.34576719486326 2.420742732424673 1.2492517392619351 0.375553839680179 1.0430852396797776 -0.2500624081428725
Ni 0.8035628460559884 5.541887639831423 11.706957503022112 -0.64865487481007 0.456596296875491 0.18795972527485696
Ni 2.485078943098239 8.697515069613718 9.20497552443404 -1.0770433417927774 0.9170081108423304 -0.622681847785076
Ni 7.052794078784162 8.312148592145599 3.96302350041496 0.8734394822227602 0.7813487376330865 -0.615104035437818
Ni 6.093782151993566 2.090748109733446 5.512460170908858 -0.19437179944878782 1.0387976680480173 0.5992303016303551
Ni 0.5795263601029513 2.802021170291652 5.6821908088240445 0.37612693857482965 -0.7252639788243767 0.4697973689467974
Ni 0.25706711264961246 2.8350921274237546 8.192034472537449 0.5093116249913359 1.142385100423381 0.3457958916914561
Ni 4.516009684138753 4.385733211378617 4.300018203472536 -0.1592818977241902 -0.5389351042847235 -0.8923319482518889
Ni 7.522066194164496 1.4491917065884246 7.493576407867932 -0.19319217731838986 0.10261247005660391 0.07904908091436709
Ni 3.3788472244159125 6.636345667936065 3.870631972227553 1.3204242241504163 0.9217039736561028 0.5947339564218984
Ni 4.469263042959784 1.9834141551833024 1.7436643815884796 1.5543740430021424 0.7714636173088907 -0.9688163537628736
Ni 5.907024737479547 6.480147724341787 4.61695676426272 -0.8918614363733737 -0.6872617885489907 0.12574879896375118
Ni 2.252097349865485 4.885748117840178 5.50529601899798 0.10538977569142495 0.18315021970135553 -1.4459786477151741
Ni 7.475713691332721 2.074157635118949 11.361014942882395 -1.5210355767510129 -1.4964422036823646 0.4095661920698817
Ni 5.987584782444637 5.155586229539724 8.755708221675885 -0.107847236092982 0.4840142838771277 0.8964876222914754
Ni 5.504847801203146 2.6915799390043182 7.9515367526837615 -1.850110813253678 -1.4282956286131143 0.819605210011124
P 2.249109231233261 7.098083324679316 10.545038572091373 2.048358036497472 -0.5762685506278592 2.426726462808311
P 2.04368982427995 4.03760822471641 7.53945686128388 -0.19581727364606277 -0.06181317665205483 -0.041224553867425774
P 4.77623265336835 8.590410265265433 3.470465141521848 1.3327647479936402 0.051626208816724 0.7251192257163963
P 0.35780887419271395 2.3008971768530997 0.17444288266618768 -1.484270344206521 0.10887002093054154 0.2377051721291003
P 6.14279279716689 2.931995164785336 3.299820652601653 -0.8396449022708184 -0.8680026274779051 -0.9782551305782702
P 4.028588872771291 -0.04947719498430573 -0.07606228480302789 -0.12372302678297402 -0.36813363595670795 0.10003956712310512
P 8.437466254537535 0.790988916179653 5.755868098326138 0.5215359349716695 -0.8789845804107055 -1.0914780291608688
P 2.416214724435965 3.2969489422719724 3.6570594010921456 -0.12430641009026978 -0.21115621799597828 1.718699673797827
Ni 1.7378659648806725 5.292453062105287 2.880054146830656 0.35710977404237854 -1.3625568916544082 -0.08945999183504592
Ni 0.042586190114041175 0.5569294003973604 11.966142880137697 -0.3501803939123969 0.7834477862539604 0.1614925322222638
Ni 1.28493684189683 0.4671428517046715 0.5922451129068605 0.8383120423920079 0.685509067523942 1.6583098598558603
Ni 6.826723655639436 7.123702317247006 1.4635108444021083 1.8252204777699017 1.0402169169930473 -0.18170963060008705
Ni 5.951278224462304 0.9407624047146489 12.71905436557506 0.00568702308244827 -0.19636568995036502 0.9012996989681381
Ni 0.4998664171307576 2.8434881908198206 11.165472826229959 -0.4758502600090967 0.20422220988030637 -1.3295164162596715
Ni 4.255997533094866 1.6647670504880685 4.061452678120913 -0.5725394226027302 -0.3715742862071407 -0.024551721197435136
Ni 7.130760143464224 8.371443498378296 8.499393638289172 0.739314800490488 -0.8023932170082118 0.17673068932825692
Ni 2.2632432156838433 9.02494321004414 11.859208563539593 1.693644530601412 -0.8593374956037394 -0.18081257270711443
Ni 2.7808476916400013 1.9983730803605726 8.039676169725498 -0.6970070408612126 -0.1734507330254045 -1.339342658321474
Ni 0.8517962137446105 1.7708635939481805 2.94902194138417 0.011505943757070505 -0.766997354007421 0.24186958791943505
Ni 2.3529967667474647 2.8132311981665308 1.5956516832045584 -0.4207003543098303 0.49832941494821914 -0.992267385696962
Ni 8.049964097188102 5.96848282161778 8.011798672768299 0.8140976499293334 0.13511275667715442 1.3651099970935652
Ni 7.129834376648718 4.227793726250221 4.681457963081622 -0.5079219437326608 0.01151802794192855 2.1644592850691304
Ni 8.371095190071472 7.406876970694671 6.1148236401289475 -0.9706647198255218 1.3963897810434531 0.34552052654288234
Ni 3.799182022687517 2.081591267667213 12.601065843239342 -0.17554129700584606 -0.9989501970337763 0.015333802143592947
Ni 2.943434342862072 8.344055466252264 6.5392061475661665 0.19323691451339625 -0.18432572806669545 0.18585193490323476
Ni 0.0665488850227039 4.280104134330295 1.1449865642150698 0.9299782978497532 0.45129108261249373 0.6068698204534839
Ni 4.063383039421362 4.032456928178648 0.4312533470897196 -1.0917971030631841 1.1081482907276978 0.7105436418950666
Ni 7.448004848924088 8.463131077145597 11.022410688806971 -1.709080405540508 0.9389056822463702 -0.19628752841426195
Ni -0.10598655136322035 5.027399606620531 6.160704093544895 -0.7471103852755069 -0.3304350929646696 -0.605424603366525
Ni 1.7757490762517862 3.6424982806653 12.790839791010615 2.105978001003786 1.2161809033586088 0.6445575648122447
Ni 3.1223089904321872 0.16474891252679982 2.23918794409363 -0.36954877113667967 1.4948895144832641 0.17184302221865244
Ni 8.368501209786444 0.04181441223418446 2.1269144277922423 3.007725071921988 -1.169344145510728 -0.9498277284755126
P 1.1875205080830875 8.790568383584091 3.2917719809116037 -0.10114411304119354 0.8398940421671469 -0.6943932573874493
P 5.743338165288559 7.132437522941823 10.044041069564246 0.2636869409048426 0.9538257938913122 -1.2192222612880939
P 8.193806261898212 6.135221674497512 4.1503427912239355 -1.4630507727061126 -0.5573830265772658 0.2722026916853376
P 2.2272666339921856 5.479109650530489 0.6837741197344753 -0.08091030249282195 -0.6576419088000287 -0.13401875228202728
P 3.8986332102937555 6.366782536478748 6.259388086275314 -0.3033276952249163 -0.4387656964519734 -0.9620908621135819
P 4.299187763141004 0.8556990999826508 6.630041287582555 -0.17563205694743944 1.557266791168905 -0.8096203308842701
P 0.29534069596469187 7.934509059484121 8.111622916903162 -0.6753210712473466 -0.8061884223845858 0.0030009916098528958
P 7.677237544854451 8.733739133523384 13.318721195219688 -0.20724402742576564 0.16451897775341345 0.5606239021120667
Ni 3.50274415555633 6.976917863945043 12.894004128487756 -1.1272261332947553 -0.25642897379084867 -0.5618024958012002
Ni 5.919857148783578 5.351491320111903 13.652160403745238 1.0209105033549515 0.3185378273064514 -0.6763628822482997
Ni 6.144286856483002 -0.22750123700512545 6.049759648414281 0.4032610757874604 0.564649221221376 0.03223212056082836
Ni -0.10637885650880072 6.6283162448629716 2.1767527634946755 -0.7036587418497752 0.35525009512582045 -0.5121832901121759
Ni 7.274712300271227 5.758480410627315 10.89244311051894 0.40806132538958106 0.4027733375177644 0.6063466009601621
Ni 5.948381765910823 7.564220665298237 12.34582459939813 -1.3290695585302401 -0.9021615327478012 1.9842727759817893
Ni 3.790740129251079 4.222083303219927 8.997560677522953 -1.1999747259123914 -0.05911403255333691 -0.07141264741503185
Ni 2.102178121802108 7.363402594398228 1.818159279010801 0.05064636140195794 -0.1098912631062043 -0.7872270507907345
Ni 8.435358072680444 0.8080129429760647 9.554164684633676 2.3317902783500424 0.6551744210961427 0.14124200950334384
Ni 5.801395660431224 7.036478584411895 7.10644822364793 -0.13289209487675177 -2.0748997915417426 0.24266688700974984
Ni 3.6746526369899715 1.7920554046159798 9.975528825612024 1.1542268302533154 -0.6581874968908535 1.1380255379031046
Ni 7.9257188577408595 3.912217234259879 12.59429124667162 0.18892774561508105 0.7425595326800308 0.2626088773493155
Ni -0.019993813412487467 3.8541689051252885 3.6653363063832454 0.7984918250712764 0.43678877523126064 -0.5766573014258457
Ni 4.531225257542104 8.917581757469774 10.873580382502821 0.6874543641757709 -0.2360421826043806 0.48592358508469863
Ni 5.240940096727678 4.543251060135596 6.59940115579176 -0.20115642647078905 1.2739448496419545 -0.6908140246766231
Ni 0.848718268233258 7.08904564071805 4.448713769457993 1.9259516716433929 -0.44190758451506473 0.8743105719738038
Ni 4.8043997961806975 8.840788941823224 8.462434460531949 0.10731244663543454 1.2598230655285916 -0.2997034682087677
Ni 3.78708289202943 6.676676103463018 8.578933506555593 0.12326794152342643 -0.6074758294685989 0.7474808812410482
Ni 7.338095246105064 3.198790161804211 9.402799060496172 0.33928148761170596 0.6319128794650407 -1.656138049015522
Ni 1.682567438168374 6.3550317141274855 7.251495718419813 -0.5575115817353302 0.9577837500977956 -0.7863955560283746
Ni 4.6325096467632045 7.595971717267639 1.5258919455534246 -0.6173964310164206 -0.4361871370915198 -0.09662257102175617
Ni 0.7567318776027353 7.6633235445976515 13.097541753983412 -1.300572993752444 -1.9624147995664332 -0.15164109334948078
Ni 5.357577549473244 3.3221921285086164 10.660155384097411 0.8033121292780552 -0.10971745653250135 0.8235251138908204
Ni 1.0681057548910062 0.6066889084303547 7.338226320020527 -1.6931364806167422 -0.3327197752337882 0.1827586406898917
P 8.812236826671755 4.519593593295808 10.035803578107865 0.6136361926430399 0.5451877700626546 -0.1287698451782621
P 6.184268983703133 1.2194640462220498 9.614266199576912 -0.2079942753282289 -0.47802232795975086 0.29397299348289374
P 3.210165177824427 3.582864232133854 11.069968521700517 -0.532703778663031 1.2917618232187171 -0.05195351024915569
P 5.860892218841555 3.26387798513987 12.84258282319089 0.13131163776350932 -0.8445063441281778 0.37347947364965356
P 8.264971148587138 5.98456916578819 -0.18464281645127734 -0.6035353567636123 0.28390558194456267 0.8948279752008653
P 7.261357426506961 3.617447580598217 7.0332539827713525 0.6080728396226496 1.2045116945507965 -0.4427128540251795
P 5.004832894741584 5.491062125059387 2.3962823232775756 0.02607355715860026 0.35313973365103696 -0.7934290658363884
P 1.6668294023047876 1.248089489438113 10.380726878149718 -0.8765194066996647 -0.06019081055728343 -1.3136575948505438
