# total energy = -381169.62390910345 ev
CRYSTAL
PRIMVEC
9.22802296997629 0.00000000000000 0.00000000000000

0.00000000000000 9.22802296997629 0.00000000000000

0.00000000000000 0.00000000000000 13.50614439941257

PRIMCOORD
 96 1
Ni 2.910592240702804 6.18971480316253 9.98295820436533 0.3008324396068884 -1.5082142566166283 1.4623190367464105
Ni 7.2980557192516935 8.700576776749333 11.051038179429021 -0.19673258637148056 -0.8384742790014851 1.8116869620598413
Ni 4.983510704425325 8.90539274458274 3.2903263050389797 2.251218075922929 -2.3592560878704787 -0.43748682973954983
Ni 5.014830614081851 1.9263590043339136 1.03072401564101 -0.5083392337757374 0.18069198796885008 -0.8877178465186453
Ni 3.3042689248091754 7.927877508870877 8.48081879426777 -0.12075031730789526 0.301873479276893 -1.2448795568448818
Ni 5.8370659087830035 6.798625892934427 4.688118000810348 0.0005332467956506946 0.1949122453332901 1.645802728527785
Ni 2.123331152718867 1.6696354077975164 6.242783317143893 0.0857833143144071 -1.661178696763223 -0.9102394246599291
Ni 5.3972398822510925 3.464845750953311 11.72614280012526 0.6076174972527858 0.11898859742178215 -0.13308595605511273
Ni 7.5877418135173516 6.767878120696494 10.004730801549657 1.2718275461886355 0.1422894769312517 -0.7341885350075161
Ni 4.90100295185049 7.8020534168948235 6.800897832167614 0.22628047523192643 -0.8201919357525295 -0.8425201669360843
Ni 4.6356603819436755 7.625438286984324 10.375271909492247 1.0251458815925376 -2.486858395103201 1.3710515593889807
Ni 2.9349819051760497 7.451813036487116 2.79265164867359 0.842553077056549 0.6661370907552334 1.0603738515568963
Ni 0.2630697078713391 5.628761748300756 11.025065909031765 -0.03326956068640722 0.3196624278291979 -0.866278702808263
Ni 8.059210730506607 5.732595461752502 4.6544735521902165 0.44227190983301895 -0.07644069675724255 2.543443490587097
Ni 7.156682408721945 6.109172619461247 12.359837590947404 0.5789931486478738 0.9611750351675318 0.2242084231942461
Ni 0.3944066207162213 2.8792169629089956 13.10868518808655 -0.10255410601484274 -0.1698182784791398 1.5492760596539448
Ni 8.945230119357996 0.5729882423025626 0.2961290998408446 -1.6008742434462109 0.039589846477480206 -0.2786229933893847
Ni 5.719104092301165 3.665287635941344 8.05198518859115 0.2338426038499005 0.7364449351418606 0.9188143108131338
Ni 0.9636639733681849 3.773144767369001 5.958640496222571 -0.5170588730369224 0.28427016437283303 1.740097679857629
Ni 4.203484386379725 0.8195674732863912 7.145344859810924 -0.5609342342636339 -0.4546497146720815 0.5759895859348597
Ni 8.465216053181368 7.751880656493372 7.528189690660127 0.8627161822679851 0.7949575866657728 -0.12305762528483324
Ni 5.720958924900152 5.439734927615942 10.06653456198973 -0.4901445651445816 -0.5468240201144969 1.031183088925553
Ni 1.80779736636484 0.7480373767302362 0.7869168827304932 3.598217222348397 -1.7817935169345185 -2.2762487936393123
Ni 1.3243781597452962 3.4678909985038864 11.06654310347289 0.5159391576101824 0.1744292948885899 -0.8363685455123918
P 7.576649730014952 8.26953582799969 13.215437725175406 0.18682921121483956 -1.2868777556535385 -0.33910022483883534
Ni 3.131843317286437 7.097936815064479 12.426976071414714 0.5486633873160809 1.5597509910433396 -0.5924986393334764
P 4.56027666303261 5.748301556695167 8.316421566651096 0.047200054724570326 0.5851792228539278 -0.39933191593638323
Ni 4.1953637262448575 8.570415514019432 1.011049870859716 -0.7628779325224088 -0.7593377805796342 -1.3058039031340802
P 9.019977104690303 2.72765591511914 9.742630036080774 -0.2619946408040843 -0.45114607239419724 -0.5425009672591108
P 6.214768885283174 4.4229452265245355 4.566616314751537 -0.0787336065564773 -0.5525928042774741 0.5007081995930409
P 3.499404696640903 0.7922635991874735 2.220018685251928 -0.9855259532080705 1.9549148916449621 1.099424280591139
Ni 1.143407403035185 4.385156472828757 1.5349865575408115 0.3843051035102478 0.34200968517614644 0.029030068683762903
Ni 3.6840297504117046 3.980046268373407 9.571304408885394 -0.044084391913724076 -1.02181116079235 0.09528354049535848
Ni 8.659078357855583 6.535534960610463 0.9748640247382864 -1.014147473599505 0.3379614832487018 -1.2780732699880313
Ni 6.746053846584037 0.23841704474599817 1.2831455079105034 -0.341264836590322 -0.18067167625387592 1.1163483100399871
Ni -0.009241864914852694 8.915054484538656 9.865509465955649 0.5584978569079994 0.3506802163669509 -0.6138933029591686
Ni 1.6788634306780483 7.575846892024346 0.9305067643561457 -0.13117228397216765 -0.32847925478987944 -1.5015047058069366
Ni 6.526583778416347 8.444397633562888 8.683451411887644 -1.999786298236356 -3.0980692661341998 0.04614821642128826
Ni 4.830611593317792 5.687774954621759 3.013450552136077 -1.1089905841233352 -0.5371361034027716 -0.034307515032618335
Ni 3.6299166242402654 5.70827039343942 0.8642200304007089 -1.7031229024054926 0.04652514014473278 1.0316955097855973
Ni 5.867601436494684 6.965219389996669 0.946127038686022 1.8445852554497586 -0.11834222208703489 2.4928804329275644
Ni 3.2568645712718833 2.01599079057252 11.158114620120985 1.2380972438157258 -0.9573361210374158 -0.8847695625235988
Ni 4.05990557838153 1.4082239756378088 4.2365262451057575 -0.6202557548420866 1.2172803070703746 2.204159946092862
Ni 1.3786204782370626 8.912867443115971 7.446949868429075 -0.18733674697887737 -0.3196089488834431 0.2575255492891371
Ni 9.189440516868391 7.8166060089774225 5.008685673645704 0.39556550691541553 -1.8186803626585388 -0.44382691302496463
Ni 3.3116421150907205 3.0437341548231185 2.604686973422324 -0.30625078240898224 0.43361269149612425 -1.8125056013063945
Ni 1.0906969363415868 6.975951580606728 9.12369731346062 -1.7440813470957253 0.849829556113304 -0.9879589881295954
Ni 7.083153522409867 5.1870532051012175 2.7513636287015144 0.8032159700198231 -1.4672537550438667 -2.031486971773746
Ni 1.0410963133587279 1.0472144925285205 11.795537532186861 0.8742154411568364 -0.5769977154843998 -0.5396190177256255
Ni 1.1800426538708966 5.633735652633364 4.662644966450927 1.218393080518579 -0.0897276436741358 1.7139354196399643
Ni 0.42606058480102177 8.924706996471693 2.5817128876589517 -2.3464368246186234 -0.5473325843197993 -0.5646697900466663
Ni 6.025299119500094 1.2562753508869708 11.727574066474032 -3.9675276522220253 -0.3781434547842262 0.37785446278889767
Ni 3.036563981044945 3.358917276307685 7.314454838712687 1.5222044002481332 0.9715700052486106 0.18874185485652012
Ni 0.6873575894770106 6.616584685570174 2.8403282288858582 -0.8061873939433213 0.010599115672084974 -0.3327899663500914
Ni 8.024836345276624 1.7629122630739327 11.75805791725758 2.998555746717894 -0.4693898490957335 -1.510638806897721
Ni 6.726748822717965 6.179563977993945 7.642195453733082 -0.6659095481254597 -0.9062799257915488 -0.06396416155678662
P 7.203763781458419 0.3822191708979028 7.17211350858277 1.0011762581508177 1.3011201245051658 -1.5762772708331372
Ni 6.107557715457155 0.6605898635074519 5.216153775254975 0.2612078832367308 -1.3913735587757845 0.9079349448964685
P 3.685570830232753 0.28783587567811064 12.566494549345474 -0.7476112361713253 0.42644779831656876 -1.002570567395183
Ni 3.500235218700151 4.662836909326843 11.932665029389277 0.22567420910649522 0.12203535466790598 -0.5833485974030921
P 2.64663387422807 5.344778572175269 2.933696441588792 -0.3120781877240367 -1.1784036846098351 0.913838197754781
P 8.934341052358969 5.759947321570398 6.978665542135892 0.08525649527665961 -0.3407416170970003 -1.1971889356371381
P 5.408451930050939 2.2402502026152065 9.558433162571628 -1.1947391885450651 1.8394096247860903 1.6076084768462509
Ni 7.929012555685182 3.772766418430899 7.089996101375782 -0.20616750653213528 0.6148708363810894 -0.38329414574723025
Ni 2.027636555447751 1.7333272217189475 8.55252237765408 0.2973483377130299 -0.1325056580716105 2.5393652067526653
Ni 0.7044091301556576 4.728438923984543 8.555682975490662 1.240943197904953 -1.5768922787093165 0.249367438958377
Ni 4.6673863246069445 0.3377364094045868 9.68233874859082 -0.9295913468239798 2.1594451196839906 -1.0401834926519506
Ni 7.566258976251473 2.5576295935453395 5.046530718281054 -0.3569899606350626 0.32769275433284206 -0.2598593396286364
Ni 5.379282149725578 8.1149572167279 12.53489041658423 0.7606528998466319 0.5017615805582197 -1.1214043844066557
Ni 3.2898362970240234 3.6183815956396006 4.8071474995394645 -0.6960991843349624 0.8970856608867904 0.6587600815648719
Ni 9.12678224150958 1.7391593321794436 7.539818845094173 -1.138850090686929 0.012822605685965015 0.8531599060381178
Ni 2.0012905501238327 0.41896331240360474 3.9059230973878223 0.8442883145801008 -1.1864700065577374 0.9127516495588216
Ni 5.240114336664276 2.558395519444424 6.120862678846305 0.025296826893575788 1.1122579420206973 -0.9930834538403543
Ni 7.8008999140347575 4.592897723915291 9.309920660794328 -0.5491891779125638 -0.9459232512147837 -0.2680202781728739
Ni 7.7830806018524505 4.047217046920798 11.546592236136464 0.21642029460839501 -0.4972279543539243 0.7883984453910164
Ni 7.19735953357933 1.082963853167701 9.435581416765396 1.6546684064485309 3.430243196166847 -0.15121017645964924
Ni 9.166047478866243 0.7086337190303651 5.388208416257916 -0.7435923448199194 1.4331033344144029 0.08977109531756151
Ni 5.714342432494809 2.6982462061988848 3.18220986616838 0.23997288511735443 0.9311913443212478 0.23225649030970325
Ni 1.6426803529634828 5.424001148604636 12.809132491757028 -2.14375984773825 -0.37773387805063335 1.2685930984117377
Ni 3.385281737677365 6.515657799325797 5.146394536289594 -0.14864498683563432 0.778572203329214 -0.3247087320038537
Ni 2.6691502500565676 2.7138323368441033 13.222259079688698 0.7526243731152005 0.6430660678683828 0.9928525687764709
Ni 0.6372466568288583 7.713252152715466 12.182434387882905 -0.7063689416920866 0.36562218238876387 -0.06635657304836313
Ni 7.349298930307287 7.4267958664579945 3.0961077986815773 0.626632862013024 0.7325098617535126 -1.240595070536915
Ni 1.0212468361427038 2.0152710047878384 2.233848723142981 -0.5159648686417952 2.353590147833953 1.6750770520118698
Ni 5.765714835870732 4.524508846347668 0.9615184580484611 0.5981668933628472 -2.300123286264064 0.09565635045374495
Ni 4.827206452874876 4.873854108535965 6.194944323728928 7.81615361030912e-05 1.178121377482726 0.23242978266277392
Ni 2.5975961606409235 5.61788190932461 7.508443567300364 0.1267168193039753 0.7459119940920315 -0.8245869794964314
Ni 7.250042316204286 2.5199792601927697 0.30259056146179303 -0.4747603693790275 0.8124585716640137 0.07068939609576214
P 8.492761701479756 4.46535721968346 0.3367268637014566 -1.498248403653168 0.7237755672043084 -0.14514417277122746
Ni 7.975531019025943 2.3220935375426435 2.542869370947929 -1.2519292646028117 -1.9401253920406134 -0.41936235222469714
P 5.1213681382375915 5.726089705621727 12.917883818601808 -0.38479901242753084 0.01975147159531437 -2.8703258332035024
Ni -0.1411610660034964 3.8323886742620155 3.6721182184775136 1.111795143451666 0.8501748552678648 -0.08724730045444329
P 1.210827338200351 2.302050271846128 4.461282124779417 -0.5763071171752784 1.185349776910365 -1.5368044095494953
P 7.52143846912073 0.15634116364197137 3.7037223512387594 0.8640590694491248 1.461431749045451 -0.682441998562844
P 2.762583981721953 8.66946911161906 5.836315670522816 0.9175017626492973 -0.6630707931250838 -0.0368675624503107
Ni 2.3019395355715617 8.643999768468793 10.428256448465396 0.4674545797462336 0.5643478879308732 0.9843288475761757
