# total energy = -340862.3156523633 ev
CRYSTAL
PRIMVEC
9.31744777941932 0.00000000000000 0.00000000000000

0.00000000000000 9.31744777941932 0.00000000000000

0.00000000000000 0.00000000000000 13.63702664723394

PRIMCOORD
 96 1
Ni 0.15642317176052037 6.939504437809349 10.999065990026455 0.8821110418548291 0.13893984373272847 0.3067657743721878
Ni 5.64165854361781 2.9886644532412356 10.338883839397523 -3.34913466162029 -2.1909994974515037 1.329123294586311
Ni 1.3773889433164939 6.633929430300621 8.98981434594754 2.2445748595747985 1.576065411932647 -0.009958396764292528
Ni 7.050717490914123 0.8087041269275836 1.868013116474298 0.048776912293386966 -0.1936907142213632 -0.5825577260706806
Ni 0.48625615377982795 1.2971004983932501 2.924214737286893 -0.8919223715182962 -2.2458604111554417 -1.2256407632199278
Ni 8.929878933296587 4.568232689396243 11.959999505604435 2.702410171063714 0.5746832084186103 -2.334014025474238
Ni 6.015306822405314 4.725930487971839 8.67834418941909 0.927588714571654 1.3539077006198423 1.930144626678818
Ni 2.3880245189796603 0.38790490517453685 1.6107779582293833 -1.2676330484913136 -0.4980993012152841 -0.9199021445606737
Ni 1.3638227397876275 1.029689755756938 11.702941378861613 -0.7787215844228847 -1.2603465421322295 -0.44599409587961253
Ni 4.864294583029303 7.763641984740515 6.600988526484719 0.7225159837655943 0.29714882010771404 -0.7516625234225636
Ni 3.4778304458686358 5.014715455124098 5.81860525693948 0.8786961026360092 1.499801864183217 1.6459258843692104
Ni 6.103626907055126 8.639985189894372 3.656646239154517 -1.15890263846243 -1.760799945401987 0.22960928249484325
Ni 0.6037445077614509 2.05962176514832 5.0724556771490885 -0.5638321246367193 0.8436236844129084 1.3012232257419332
Ni 5.751157186386518 9.150954009621735 8.976395358088835 0.5536479850148658 0.8064468182522949 -0.8268588062497436
Ni 7.19378689694829 2.918606565649513 5.530332749398544 -0.9800263635460797 -0.8931762985300552 0.43512861392001834
Ni 7.038520952164614 4.400239111356776 3.2375120452658988 -0.03211102160193179 -0.42855970245324904 0.02804147951824848
Ni 8.321170089518528 2.84633112555788 1.0113856301851947 1.048900303699658 -1.4970680101918217 -0.6799043197426549
Ni 1.467050740403227 6.330059515680481 3.308056303616005 0.45230641125088555 -3.1734380699835025 1.8423692216350462
Ni 5.208518362679335 1.5490256433201006 12.966466455265667 2.1542725743441156 1.1043808532654658 -1.2695310368449748
Ni 3.9826963374975057 3.629397364003301 -0.10834980149459521 -1.2091985585035046 -1.3972744976412517 -0.8416125675201507
Ni 2.549719502523582 2.52197214393226 3.020600936218944 -1.939842313582556 -0.5882218663349934 0.41225402331469
Ni 1.434514213807896 2.1141661026881446 9.351509271364726 1.0628099718022148 -0.9200299283877896 -0.44885393392591083
Ni 8.841297960117373 4.676930031681791 5.074200835061833 -0.47177506149845855 0.2708160957504562 0.5705123648703724
Ni 3.1456168560185414 7.4193063957207395 4.862077030529392 0.9953390826437505 -1.2200478425131827 -1.2145973609215728
P 8.133330348349606 2.3303402016395416 3.77448306567184 -1.365641187006687 -0.169688694879811 -0.9819207523553154
P 0.5025803217623652 2.8357651401171284 11.12106305684298 -0.5802475898802653 0.8446500687948936 -0.15589035554413797
P 2.972088714176776 6.548879769715804 7.307537091001492 -1.1375306005445571 1.293798651143088 -0.8387414166199426
P -0.11937234186179929 6.796770459884413 13.217033116350136 -0.9100990424273229 -0.2893030988110501 -0.2550030399775995
P 4.289585105100719 3.336773608489851 2.5445874524523595 2.9063834981580077 1.6109779075391157 -1.1780401306228292
P 1.8363664061131744 8.382832956932017 3.2100060085642728 0.5045774527404601 0.9240711883366988 -0.44502530420844005
P 8.157434584976789 5.655793111442872 9.537068101390881 -1.3265609331757733 1.3403513020916464 -0.0847705567791766
P 3.746359282202382 2.665199946573563 9.354618503588341 -0.6503615730885316 0.8458559161775369 0.20471123370158295
Ni 8.608958089790576 8.663753998412323 8.973259105267532 0.7622048177147841 -0.5443043390164368 0.5786833307169389
Ni 1.6132694436851656 1.2592343918401498 7.082485328092468 -1.6143339684955422 2.3745063291613295 1.1953516253180834
Ni 0.43151055937446514 4.365643428868671 9.184836907377727 1.1849327439776045 -0.8423885264542267 0.19984182142442355
Ni 9.009440617316498 9.280382672547207 0.2745628153208986 0.6446138719714769 0.47806372272064773 1.8868673040474213
Ni 2.8861352611865323 7.786302017008511 10.874614707544062 -0.4785447761221242 -0.8624865827556825 -1.4787524997120856
Ni 5.969325219098339 6.5538552866693855 2.3460186705118105 1.699740873307137 0.8878649136194708 1.1710811828064929
Ni 5.723372558005282 1.535366265316448 3.699779498767279 0.537870410465635 1.7924787645625067 0.43682554200646706
Ni 7.7100107570535945 0.13961356476434716 4.958123142628473 0.2723888395542147 2.5002540996838167 1.2235373437236798
Ni 6.213144184718793 3.033565232640692 1.2859484455060932 -2.5182775328444307 0.48462055000255894 -0.16955525462574025
Ni 3.5547646096995775 0.3845580780402176 3.9013075020270374 -0.038589687347739994 -0.15772355209813482 0.1321541882694627
Ni 7.901288636342126 3.7108598073088506 7.5701586656337945 0.30805415416630816 2.0450935068135876 0.21354425861218063
Ni 3.682618624001162 0.7427738685688888 10.392572835258813 -0.7763176029670824 1.0526569425286127 -0.11185815702458798
Ni 1.8264340071009688 7.93852115646668 13.372276699259862 0.48257780854091725 0.4576905583809343 -1.5769606700534067
Ni 7.1700180884303375 7.105792922960229 11.058182399044037 -0.4168071899030112 -0.7021536180591584 -0.6514995433477166
Ni 0.23037388890880892 3.7351224405431696 2.803772752454548 0.6349789199848741 1.0548590923862542 0.8187567459678997
Ni 7.619351993086649 4.840451234931521 -0.118121008665421 -3.7545240966046634 0.40657574198299007 2.1370675233197387
Ni 2.81493132755494 3.267619513303554 11.351160217561675 -0.12159595313764221 -0.9651209071891572 -0.018733828964077413
Ni 0.7598294561784975 7.291266032469582 1.5817037951171065 -1.0091099111755977 0.3053452398755773 -1.77908511686442
Ni 8.57126901473957 9.09473253153576 11.71982366194812 -0.3106399126156134 -0.3747981924610771 -1.3011221813876948
Ni 4.336237564626154 5.354410955299522 3.5737600898742343 -0.6790939080262176 1.433803702915537 -0.9810419492947879
Ni 7.126459021467802 7.222615079447132 0.23210227541609238 0.5243224965778712 1.6589498074327043 0.3406624271196327
Ni 4.16067821923405 1.5021681999501348 7.622524583953118 -1.835605934769284 -0.217116035123839 -0.9686060375242803
Ni 9.223397163767984 6.281543566659321 7.472313354426592 -2.469802725172495 -0.268356321356054 -0.6426138108223126
Ni 3.4951236283889493 4.737428218160452 8.346201412169833 -0.18657415778123998 -0.8949904689206587 0.7235099722477475
P 5.736500841502654 6.807448254694908 4.90567429902659 -0.2581323296352006 -0.20182722728556857 -1.432110117263198
P 7.341505709274286 0.6885994336939651 10.215346598512783 -0.8911870360141684 1.160340142239905 -0.7941281487859421
P 5.873075986644224 3.9005537205260166 12.330094109923593 0.09329093554536191 0.3606175300853208 0.7239509164399079
P 0.6568455726868379 3.731153207917279 7.059411601156421 0.2779791891577987 -0.5199043129055174 -0.7917938442258106
P 6.932935637336924 0.3912340291586468 13.20950555053216 0.5600117224493645 -1.7503941766876308 1.1359935950747402
P 5.204139162364384 8.453999620773695 1.6889187315088063 1.0986820031084756 1.303218401795091 -0.5739252472066632
P 4.877599898028769 7.1779938234720335 9.710271996060392 1.0371598753342783 -1.048624424330452 0.18363153021314826
P 5.877921059333105 0.6418817520361787 6.6774521592179905 0.85543173279143 -1.1728896967701414 -1.0322017599980546
Ni 3.6652043146636264 8.374484523991176 8.386348429865699 -2.494447006083736 0.14823463877109308 1.5321856798305613
Ni 2.1199895073622805 5.444631799234972 10.803470405576332 0.09711030929145212 -0.20771171109080355 1.0695382916649838
Ni 6.845528662540017 5.712042541871284 6.4103703224776725 -0.2359578504206904 -1.4431928574399209 -0.8044061336731825
Ni 8.240741882883105 8.220066466928055 2.617667920006145 -0.25321355217734454 -0.6675190587044245 0.7271352277051606
Ni 7.625725127162024 3.5123236364344765 10.288236058393258 3.292272144105291 1.097547118173084 -1.5885290916172965
Ni 3.564436120182382 7.25327879909926 2.174546889328575 -0.8749829154504802 0.14677553772706337 -0.0058608296561511964
Ni 2.7735898130923164 9.066780189099909 6.316057255609614 2.0827773945176067 -0.9994567043565498 -0.6792785132331978
Ni 8.260056951506279 7.24600187261846 5.34845524287119 0.0818639246553429 -0.5844415733569548 -0.8389429911077875
Ni 6.7820675277631555 7.2969403579840595 7.978969127716105 0.7721711848988766 -0.45715628314401907 1.349412640962966
Ni 4.632933044687761 5.155287785233995 10.696133410622663 -0.3124959919877457 0.5351540399757364 -0.013971117468111425
Ni 4.471256696038796 1.304088584002213 1.5389245985085316 0.25331948162758955 -0.06570788372077072 0.6340186129541339
Ni 5.374713673355429 6.542283016900942 12.579815678521753 -1.0635051980970265 -0.21016968571299288 -0.12074157555714689
Ni 0.4826102365814451 4.62302859801799 0.6402661066433865 0.680028504025345 0.7575727182594114 -0.47302950273084987
Ni 7.5120149981329805 2.1197938409652295 12.17186428509697 0.9049378099413578 0.7893584953114406 -0.2819800827870756
Ni 5.422679892975349 8.717366591204287 11.185143801877171 0.3385188984140686 0.2914548550467303 2.203860155464256
Ni 8.634581070356774 1.6194841811534033 7.942531385861477 1.3478787208169432 -1.2763917685205501 -0.11668463187895389
Ni 6.3956543459299455 2.0369524154328444 8.212749475423095 -0.2653890111976139 0.7816238456713442 0.3250928548161498
Ni 0.7825733454738019 8.94286745508178 4.94512623514055 0.35446616577194434 -0.2500390111041048 -0.12622059639384714
Ni 5.1267950308443835 5.1503774904127635 0.9042191445203838 0.7309682282980057 0.5799827662546527 0.5291589987345662
Ni 4.988309808969697 3.631344710526332 4.739316864764367 0.31992776567544257 -2.0152589399506584 0.9080593862894748
Ni 2.665507422340357 5.007932353359665 1.5924225866965076 0.4379450003228909 -0.532902010716766 -0.20982387233779995
Ni 1.8035783084359207 4.123576143374197 4.8103931493655026 -0.208646307089931 -1.5715618676353387 -0.6787594075049342
Ni 1.2590480428905777 6.237714293719906 5.5785524035898835 0.5088305715898592 0.9251214839780841 1.4495252274158519
Ni 3.1365137098319322 1.1825145293012165 12.984576777929854 -1.499012278402386 -0.8873614916204912 1.1220782705452288
P 8.514786648124193 6.036122000072545 3.22887943017696 0.12353070826650983 0.12188134558854494 0.33951262978590563
P 3.813239920203896 8.19570134177147 12.652406048338163 1.1739165953727588 0.9058214980978916 1.5088621746132724
P 5.302708439240675 4.197519406564503 6.895412412851037 -0.4518600677420863 -1.1018627148293023 -1.9191426191413594
P 9.16622530603919 8.81828386484519 6.843236570460277 -1.0965184197982536 -0.0688968229717136 0.40239898489748116
P 1.016980757396104 2.144997536394889 0.9484835422570502 1.081579539100234 -0.29119543073775656 -0.0452123348705802
P 2.1626540993668684 5.030163783043646 12.95777979898135 0.9209449840028914 -0.528537048879851 0.0700659035791503
P 1.361008870649085 8.960524018053759 9.837859531364089 -0.1576461618929801 0.24296230676298158 0.1884045261217594
P 2.901164303969542 1.9582479365809655 5.347037127364944 0.32421199487309327 0.00309689375776886 0.00047205454041209026
