# total energy = -381162.55279413087 ev
CRYSTAL
PRIMVEC
9.19361896122920 0.00000000000000 0.00000000000000

0.00000000000000 9.19361896122920 0.00000000000000

0.00000000000000 0.00000000000000 13.45579065501197

PRIMCOORD
 96 1
Ni 6.783594487416459 7.364226686044209 3.4226960776490745 -0.7548617470861515 -1.522288218211191 -1.328253490386848
Ni 6.738637690733804 2.643018351230294 12.368535968017287 -0.6762620950043772 2.4991184434174767 -0.645721760323675
Ni 6.185623123442391 1.9780530859420136 2.779360639672712 -0.17429842573768048 -0.08456486852627372 3.0060695385964356
Ni 8.641735201347867 5.712455136762195 0.30411664072498645 1.8539942074684845 -0.7364693606218929 2.062061502126494
Ni 1.5865520164258289 6.377383627574662 3.8150530730898304 1.5521788351230363 1.821921752413972 0.7952967151727464
Ni 0.5916001860392862 1.1341799958184677 4.7745451151726925 1.2346193125694545 -4.462142594433135 -1.1369688145038161
Ni 7.876918040605537 8.27268494931615 1.3325029051597517 0.4052541949580891 -0.5717372384164089 0.41281118136974065
Ni 1.7604493189314325 0.8834497809946068 1.6901953603363058 -2.2278400633186215 1.3400126878053054 -0.9184808387331149
Ni 8.597339215421377 7.524967919827343 12.48436361512685 -1.1221541180884866 0.8350225730074586 -1.164725415791794
Ni 8.714925601836745 1.9085769075103536 11.142430815006483 0.9444212127479608 1.2832512146445447 -0.556195691137384
Ni 7.019364845479171 3.156518744259529 7.730822241815341 0.18767381860332194 -1.0623132346714543 -0.5190982720644544
Ni 1.2734265484882998 3.2477378315162357 4.857110248908462 0.6477603880202586 -0.5697389770394575 0.40275302580279027
Ni 3.8123639395459294 8.488330475489633 8.566332816138775 -0.6818982102442321 -0.0051586613828040195 -0.9834839830773772
Ni 5.1983387712630735 8.997142122852578 10.231406612684621 0.5819578877031526 1.0216126716282987 1.1098297921951787
Ni 8.690222347708668 6.959698258470904 4.618524804722185 0.5167989345073165 0.04737103308479584 0.9995976008097882
Ni 3.0364408871077613 7.246631106009889 6.423296560628479 -0.5880634863802582 -0.6097029190269048 0.1429646486214054
Ni 6.8371932859154105 5.298429700809916 1.9378089383349275 0.047376175291118414 0.3980242528685532 1.6976896472050633
Ni 1.8392386333629962 7.930222643297975 12.050198637495015 1.2024383569615356 0.3233992691638108 1.5424376965758726
Ni 4.5555117404148415 9.19490606016149 13.057633563696632 1.0853397774736147 1.0540419958015976 -2.7646218687057678
Ni 2.740158129093059 3.681704226978674 0.49471874886911427 -0.9986365224480994 -1.361497082931326 0.6786897306092634
Ni 8.384111611032665 0.17890874419716102 8.488921625188343 -0.09271937931260806 0.17686670068548893 0.153824988374677
Ni 6.554719343568877 5.477769625735996 8.073891326684446 -2.0908789405788184 -1.0674600689797165 1.0633686725191622
Ni 3.070714698566439 6.96982962655767 10.387103307747966 -0.3745912186565936 -0.033245906537323386 -0.7705696447397117
Ni 1.0608792719021485 1.535518237614906 9.13833864210245 -0.07221791692514659 -0.6825553842122567 0.04400828726015001
P 6.345426608092267 4.619885460327304 11.018785833700756 -1.665663214897138 -0.9412572131976823 1.1932086108331517
Ni 4.729988240914516 2.472274460025743 0.27368300390318895 0.4120907582639483 0.5414843530691383 -0.46402987033540083
P 0.9474300140158598 6.151312537507899 10.89754866119895 -0.6471371526139629 -0.43897112759456014 0.7849796495174545
Ni 1.7116495895262123 0.8197600663322849 6.895945107837803 1.984115167358002 -2.0486596268982913 -0.5388548858660913
P 1.8658817410902624 1.393780214208673 12.680198731179313 0.1463207095778319 0.5315408687031813 -0.17990291640865147
P 2.9821065990925293 6.648990712318148 1.7726657997968542 0.009893090743995865 0.4086583355436317 0.5596934198779975
P 3.836561544631562 6.123161676272258 8.2876641126771 0.6081849397204816 0.6467517442500861 0.428879547686513
Ni 0.38517310159048507 8.926296095196847 10.866533068297395 -1.044291344172737 1.547780963165657 -1.8475772481985473
Ni 8.566531398308172 4.406280917561499 11.999793702220513 -0.011481004056406034 -1.0062302756349573 -0.1346090775678585
Ni 3.4769347520271903 3.4826256021594113 5.449285955494238 0.43712918928981487 0.01037517258673697 -1.9950847789956283
Ni 6.842240582720885 0.5723395543316869 11.865988852609263 0.23492606672206637 -2.3142353001854143 -0.7886864089450805
Ni 3.966384637874049 4.472668040024781 12.153162572964828 1.2542067477830787 0.00402660466088984 -0.44868475533789826
Ni 4.959267903996053 2.156666714970767 6.720777247192824 -0.12335381636901335 -0.12569017781167385 1.0982819394565795
Ni 7.99976317706231 5.127897262841296 9.963191973334977 1.2218625271244181 1.4984898302400127 -1.4324003948101074
Ni 8.26540360310497 2.412975617775616 3.9505798875310734 -0.6257419747676385 2.1726485057481417 -0.2669057049524564
Ni 6.641341621348829 5.241953299578516 4.309041848614036 3.334761937838386 -0.5567703326939315 -1.5672092470935977
Ni 7.786351700294529 8.712378969386622 6.128991350050677 0.3219052011167875 0.990130027638985 1.2053624725868661
Ni 1.910213371684078 5.777729831332102 12.970103875725966 -0.5073413886388424 -1.2933440801041727 -0.5181559627558431
Ni 4.0371387293402465 0.155468693313297 6.153682652474114 0.2298820765402557 0.44835951078799563 0.9140531419790645
Ni 0.7841412284207089 3.7350731850037877 9.559007387110535 0.14563962435040725 0.5146019268559976 -0.45900953430267405
Ni 0.9840298110697752 2.8984722474724665 2.382792047389354 0.26512418757200146 -0.020782226852673884 2.155813179358358
Ni 0.4770752747354371 3.0871161147794974 0.29777488237085664 -1.2273351202032154 0.5163194237677365 -1.889006461877611
Ni 8.884520290672105 0.8995671143820018 13.266225745408983 0.20084995097396374 -1.207600103668133 0.9234001304116033
Ni 4.092125764301177 1.4636792991121943 2.2273371445044874 -2.0615655363266816 1.6124902304185842 -0.043863277041853485
Ni 5.350217356375027 2.8682068538775183 9.31109777458161 4.202654522100987 1.4721445074772646 1.2948954837516924
Ni 6.5567879078334155 5.881847565980579 13.276814955719635 -2.131835071276206 -1.1369716427172936 -2.9208315552625375
Ni 5.198899582019239 5.1760626325387245 5.837593161785974 -2.6695967240781187 -0.21267085486829182 1.667898789095876
Ni 1.7265616394688021 5.130673735765256 6.114136300545598 0.48594595368220184 -0.33568142896527353 0.43129921287159917
Ni 2.733465174494905 8.690286703041343 3.3738641705775163 0.7811039686121322 -2.178678513992306 1.3850648429489372
Ni 3.475960228418118 2.2433625417023473 9.109946908050228 -4.4471474065758825 -3.0027574435040676 -1.5361058408205739
Ni 6.9338549955925926 3.1856625163421493 1.0902473682872345 0.47572016218913554 1.3171797490711896 -1.08303889725458
Ni 1.6900997466991894 5.884826298521516 8.86635645770566 -0.03678528714914955 -0.7714854716857616 -0.38072998456447976
P 6.0934203189576595 1.0035662513459798 5.1083433546890795 -0.655441044493968 -2.640173790831311 0.45743884738144447
Ni 1.2561149639988443 5.191250491049919 1.85691244643922 1.8415793787438994 -0.5430077316922002 -2.2210253543896328
P 8.229162357190242 1.6914236278284946 1.9313099690966926 1.00003314568531 -1.0423403910939533 -0.9574358798400736
Ni 2.7867881644252517 0.22328726224763945 10.318142891339596 -0.6286316376106077 0.565863039023819 1.4796719262025615
P 8.123831064839901 3.9950319545331796 5.7943059263052765 0.0400655005623181 0.3136717574634017 -0.7230338039422775
P 7.164072407807387 1.7613319063509694 9.683150662563543 0.005282331444861871 -1.1938465015274664 -0.5752753334766544
P 1.3049974359746463 8.190245768160043 5.422050778706366 -0.4211086454918425 -0.05715639460633382 -0.5987291936242205
Ni 5.434651552844044 7.368538493333404 1.215906671505677 -0.1582161754638372 0.3530800840576951 -0.02276403316939305
Ni 0.5186120451673862 8.476645385799724 3.0543702827908925 -0.9339182563341076 0.1639710756697434 -0.21643854944084012
Ni 8.829358576951059 4.726632569996486 7.741035433110794 0.4732249065711076 -0.793180440160692 -0.8586013887686632
Ni 7.564068381236614 7.848951051748966 10.196461667042337 -0.7839740910710756 -0.5716809312571768 -0.334336742011921
Ni 6.897264392157631 6.602471000413397 6.038770689812322 1.514731488909856 0.09358764085017432 -0.7750482493363555
Ni 0.1873907770436675 4.715756518774485 3.729971645846486 -3.947666908742356 -0.14008372752918455 1.1476373499612558
Ni 4.345161738758578 5.135583128286428 1.129387362258004 1.2670596924863469 0.08443142827220297 0.28775298071511085
Ni 1.5103277216822941 8.432028753018349 8.536367134521711 -0.5442611444833272 -0.7862538882441878 0.7566283520682711
Ni 3.841204322203084 4.10117228535143 7.487474503011146 -0.5497157398399952 0.4722098350430319 1.2840649687950918
Ni 6.253793807982652 3.0149278187565525 5.057897048129286 0.6617615873953571 1.6800966167136486 0.7046696996127929
Ni 0.46378773726193195 6.729085520641109 7.222489581999872 -0.5156157128324926 2.7924856849955715 -2.1499325522078654
Ni 5.990010492968602 0.2859620013774942 7.868892930621019 1.0547732175406674 2.4493817383139818 0.990037725035495
Ni 5.258161649793551 6.572628513290311 10.495395864763232 1.8168286541617809 -1.1046544186418266 -0.03479859573642394
Ni 1.0116750232629736 7.686518192078386 0.7912984607760148 0.7530658315279933 0.004739057346882161 0.8618314656701866
Ni 4.013060641301009 1.9084298096070973 11.506261849558296 -0.49476098087067044 0.3105542948803426 0.3164045830135325
Ni 4.914154815791189 7.820230186138207 4.8271436479295025 1.200245720185591 -0.7141537278438281 1.6195785047239335
Ni 2.909081683744815 1.308049717467211 4.541557665567207 0.26975860102021926 1.7360461354960746 0.012178544344062897
Ni 5.373118661188214 7.545524851807387 7.295433593500795 -1.0371429060534139 -2.316283698074011 -0.2168319282245169
Ni 5.008122795114994 4.0139708095774065 3.486274549522059 -1.9655633724977437 0.22113569780619335 -1.9212388395487556
Ni 9.187992458708452 2.1251693764360486 6.593243365069761 -2.964658579749817 1.9286688134642396 1.8163555711801043
Ni 1.6967191523457152 3.6167513090721397 11.60288770412156 0.8049866887670006 -0.7929091887771764 0.9075392521199468
Ni 3.5691375565119214 4.353978419334992 9.77392293993911 -0.30464435715381083 1.9819752381968636 1.677860271183962
Ni 5.114989421830571 8.865645790960555 2.9694102113177343 0.9897250788910827 0.7822828194115817 -0.5459696425340017
Ni 7.664812057729153 0.11023884614772371 3.9473501691927058 -0.09435691491603104 1.2110728927080818 -1.2057134281683815
Ni 3.9737487266558085 6.836807153919362 12.554817994615163 1.0186476754627038 0.3864311487143151 1.1635985012762025
P 6.07835197749286 7.744125408441067 12.37744366542134 0.11901430845339503 0.6525485534375213 -0.845922250639098
Ni 6.315685250777669 0.7288195457298698 0.9642405462723492 0.05470716173489288 -0.2877136428367432 -1.1382955037350395
P 8.811872313701485 6.411749375222874 2.3627159416805785 -1.4133120107200885 1.3531278850310244 0.6729065482685831
Ni 3.309132818887762 8.754311065433573 1.2107747934058288 0.3443069658507554 -3.3591061710107053 -0.4508560519576042
P 1.832049223341353 2.8465283003851467 7.485631182410969 0.8483627417597905 1.9692919863022407 0.6018638825984602
P 7.718778600986245 7.15813332996342 7.97726547212118 0.47058721183794433 1.757225340676851 1.1368654561567322
P 2.9922839352740622 3.1940011287329813 3.1837070335907383 0.3722461154631847 -0.3343215725032694 0.020890984516396278
Ni 3.765513257358853 6.145686042708352 4.076902970037959 0.5335617557879521 -1.259975789056372 -0.9949552169417704
