# total energy = -340857.8682112671 ev
CRYSTAL
PRIMVEC
9.37666788385125 0.00000000000000 0.00000000000000

0.00000000000000 9.37666788385125 0.00000000000000

0.00000000000000 0.00000000000000 13.72370125613165

PRIMCOORD
 96 1
Ni 7.527035606168902 5.025912640537538 11.7554063988149 1.3282722594399252 -0.4935777591958468 -0.08152299637615638
Ni 7.432049962367861 9.07374507328766 3.5371603564725045 -2.210028489058497 1.015043245940897 0.12055234236447625
Ni 1.2569423051855346 4.285906025653223 5.419612662591145 3.663540983256871 1.2239767452539438 -1.7254321074256544
Ni 5.834106382936282 8.847926785068463 5.874443869714929 -0.44317051038788835 -0.35606359216605127 0.4241826564314759
Ni 3.5985400232367306 6.655568110130531 6.837394824168388 0.08472633380480248 1.4472881105552171 0.11424105543446776
Ni 1.3074169074146562 0.5417107216981705 7.004426094242409 0.27198980434358316 0.14714706213386916 -1.0095068895037
Ni 1.544740366901757 7.226175846346574 12.633572586258152 -2.1155265639241696 1.2888621330734191 -0.1799661655464191
Ni 6.055827067370576 5.553612745358363 3.8946495632022367 0.16446884124176836 0.2120447912485187 -0.6388643710822095
Ni 4.493908645242412 6.689408503859846 2.4868854333956776 0.433536329732234 -0.06464293279136608 -2.739815351185049
Ni 4.895501946165882 4.902665720288685 5.848890574898878 -0.1493417557923428 -1.770890753979086 0.7490261142409809
Ni 0.7352957770318328 1.4417939322234135 2.5615283966215596 -0.9174565112336587 0.13250642940255888 -0.9302186959953334
Ni 3.390640546992242 4.295442096704127 10.416316045576401 -0.7789887220413423 -1.5857345595912948 -0.028792498751660088
Ni 2.400651971225821 4.605378470860059 12.549061617944789 -1.0544708558089002 -0.5588817226099794 -1.7014933372218697
Ni 0.49107577845137884 5.647060615656602 10.834943938710468 0.9421761254675258 0.7797243146557863 1.1660896431291723
Ni 3.287515955627598 0.11624161181017945 11.23894235489899 -0.02196544852749765 1.1879175376375413 -2.7201086167847413
Ni 4.496234058832012 2.887901131588828 7.691846481331562 -0.6699307534697106 0.6576557927570996 0.16270866401755205
Ni 6.738523489272466 1.8672789824464944 2.7327322838220827 0.003017960890717383 0.06430560405660539 0.4488899293701688
Ni 6.037036225299768 3.2781580412629943 13.451820929431612 1.6701531323476912 0.6909798608305261 1.3289073219207628
Ni 3.8286715785979286 1.0945290439537656 6.121168376238054 -0.43474963331404476 -0.8807707257768509 0.31579266046114646
Ni 0.820630016769259 7.579235515254824 8.174138197481577 -0.5866007857918026 -1.0959882583263962 -0.20184805322117497
Ni 9.529319850160054 2.556285901710487 6.013959308423288 -5.154089961383252 -1.583711615623995 1.7417326443578907
Ni 4.653293242807079 9.063299465469855 2.155842180247037 1.4763611166617736 0.4541398649151985 -0.5376881192514997
Ni 6.810676947223997 3.535988273010004 7.130601347813973 1.0781013507436463 -0.7463711931166372 -0.5229484990484801
Ni 1.6333498766667947 0.9897354057385209 13.698270699591127 -2.7351943074732703 -3.846253858310493 -3.918276114285065
P 7.699791331873776 7.152550251566143 3.134356527748963 0.575590293613912 -2.568830563201634 0.11320207264699214
P 1.779597762783757 5.198780886254811 9.103946382282603 -3.627341650518179 2.0611808992937535 5.416390049242898
P 6.240491161054454 4.360544300545255 9.067811517967096 -0.30342848246883874 -1.9614488361087383 -1.0032508812916592
P 2.2543478251026587 6.874803977624325 2.9447077975157625 -1.0518269904281499 2.041767270653832 -1.2902325310583844
P 9.422988438442008 5.579914298256873 13.123288747893032 -0.43981573498304255 -0.44469388901095025 -0.09289909942358195
P 1.6903225096120191 2.8616370853611173 -0.07846583064717337 0.6773638127089883 5.142992308808194 1.178015705142797
P 1.6959203802289213 8.236614934366703 10.859989955803949 -1.6878217532720479 0.48039339929508873 -3.0800424905394763
P 2.3424228648087966 2.617449905117613 6.718602758743808 0.582034763687675 0.5399386058485734 0.3839577474731581
Ni 4.761903184776226 2.7444943757849676 1.9334773187417524 -0.06968435187001547 1.7850019965694872 0.36245921127974995
Ni 0.09804243747124171 0.44826660206701063 9.02946751074147 -0.26010847952496496 1.0240796451115526 -0.03955102281974479
Ni 9.323230070781666 7.190131935707758 1.1574155412173823 -0.2158222560130799 0.055744087639839485 -0.43059704459825204
Ni 0.6598914283887107 3.3748127319146355 8.128740123145237 1.3921094085005445 -1.186837417199485 0.36704683065043237
Ni 3.2782611846076946 5.412118829765302 3.8893376809501845 -0.59881224025633 -1.5717500723867446 1.02486280313448
Ni 6.1916293456697336 0.4864446422743469 10.857190082828728 -0.3199593902443264 -1.463007063952371 0.843560949495773
Ni 0.22956239163180764 3.1507009972168403 12.13176521162412 -1.028643610333151 2.867728247679655 -0.4970556904421182
Ni 8.319054596785138 4.829462075554755 4.065317105010319 0.8668291759950942 -0.36534090370291916 0.374430010488381
Ni 7.5393846775298075 5.78151265380696 1.5739299334518695 0.832236011401257 -0.027556312351713835 -0.4831043704683487
Ni 0.14124637156578007 8.030346998302015 4.028235197257113 1.4734660545021656 -1.3873873204345268 -1.2269905923796032
Ni 8.381615723679566 8.972045735413417 6.203263914951899 0.46198275799838506 0.9983675850574291 0.8563426746414735
Ni 7.508029100740994 0.19286211425399205 1.2279899683282323 0.1828774256559431 0.43185482826475297 0.5791109051726607
Ni 6.234077520347652 8.122088315078855 0.20649485142302781 -1.7083730950608385 -0.4647932308639866 -0.8033221565803842
Ni 2.7705896419940785 4.721583513666209 7.660940046925579 2.194038284277828 -3.2717884223296427 -6.175486403235687
Ni 0.10623858270781518 0.47073872387684024 11.61383278154639 0.4699318376421326 -0.6278520791321057 -0.3366651330347815
Ni 1.6965673703002218 1.8958965722669066 4.67846490724774 1.476551892516341 -1.2651935858118857 -0.9802068549880023
Ni 2.442828222540439 3.7715864256403044 2.0508694476787226 -0.7907175804424962 -0.6005773025765527 0.6822882465937993
Ni 2.240189056875653 6.080722120114087 0.5809736423583971 -0.7817611425801568 0.18806154096004388 4.077878628573467
Ni 0.6573634787767896 5.353186473270777 2.507663191352117 0.2096210122983745 1.5608290545988668 -0.08031380655940362
Ni 2.889495165097829 9.608271392194087 3.460266055331852 -1.178519384252093 -1.2261359576887916 1.4566183868172076
Ni 3.7857264405319104 9.318673010279463 13.207511852508008 1.4531610243962265 0.17080198254864778 4.107979818834222
Ni 6.693112287601347 8.546560685190336 8.210492475821262 0.6114985774747469 -0.04361002338046683 0.2996335342027807
Ni 1.4203963765320042 6.744730843289869 5.499457801056989 0.17675280081544398 -0.6381588603747526 -0.005667996919054755
Ni 4.088508417232739 5.9561343363841335 9.058493923273602 0.7000903077722266 0.27600972413625363 -0.5559792042512038
P 3.7618909512385006 7.229738980072575 13.320800751659457 1.1436495689581012 -1.2599189676765075 0.06140334280814587
P 4.392387464054469 1.699427253948723 10.067596836146482 -0.48658307304556847 1.218748921196101 1.5078507026296226
P 9.10059047291277 0.6600386420716008 4.292540018050976 0.5137753171896441 2.2792832095902615 1.3210564584177764
P 0.7430755982225261 3.5045951895503906 3.483884943601392 -0.5168449572539033 -0.8730548451898319 -0.40065140607875516
P 4.871253883493671 0.6264382910354065 4.231332881972429 1.1339642233495375 0.1642952917783816 -0.30290217765172345
P 6.836415900060508 3.4821568237442815 4.8396357600092585 -0.7657794224399198 1.1243285000319863 -0.15315804421463944
P 7.871768794159548 1.4670734283426239 7.387770524488133 -0.028230712710919124 -0.542077506568447 0.3163665306867455
P 0.10200595490803338 2.419967906687829 10.03756993317076 0.28948718979739824 -0.21373092070168997 0.593561533380352
Ni 5.6827763429259175 3.7349705382717886 11.052148819980442 -1.0997487538100932 0.9371683878402891 -0.28756940394939506
Ni 3.253506781879684 6.614863995644813 11.197016460611964 0.39268818536762046 -0.2792007202697256 0.17868549906178258
Ni 2.563740352531991 8.897210550499684 8.718914151850878 0.4510493989153329 -0.34268331420440334 0.8346322795475756
Ni 4.146559366963464 7.437272766276763 4.649096246344557 0.272227374275686 1.337932922458141 -0.09681411820727197
Ni 8.972223892099716 3.8876695717663536 0.7259575536693987 0.4900543194236206 0.0265299279697285 -0.039096966001461696
Ni 8.148277347964966 6.774314229883382 5.569805312809499 -1.5969473975879789 -0.07972219572199173 -0.480659765582598
Ni 8.669066848690887 4.77405534611543 9.150757520441331 -2.674133692716523 0.7926592775498994 -0.03331866875678778
Ni 6.273440771352268 2.0296641136751634 9.203580040262535 1.203766845964972 0.8192169734337696 -1.7562372657319687
Ni 2.0980012678727924 2.205654789736538 11.40568576127462 0.9654155556114405 -0.3037961502209026 0.0052028843571781365
Ni 8.48527478510311 1.711223101915328 13.413627886555956 -0.9488951893589141 -0.4419512932688066 1.1273181787879296
Ni 4.554894491963237 8.100381329353345 9.833456755343532 1.5712571919107263 -1.6381038172216302 2.408217862481162
Ni 3.5671750697802174 3.3371279044283195 4.588231358637062 0.5031209227995915 -1.6707593984731226 0.24320193357761338
Ni 1.901822626253309 8.588999483200553 1.2141443808024066 0.7677594289844261 -1.8752240633815382 1.7513750525436613
Ni 2.498469368672263 1.8817378040399004 9.095808372385768 -0.3181678455615424 0.5270568647898988 -0.9786449098175212
Ni 8.222774972841497 8.251158145969411 10.284102218006035 -0.41932455700822624 -0.6234737475587521 -1.4857631267019638
Ni 4.429284651453984 2.247596624358656 12.333778015886546 -1.2396992981955233 -1.3664852801745369 -0.43289766770697063
Ni 6.342715592319898 6.269577584259867 9.708406701895969 1.4237797430206316 1.2627237841151544 -0.1340804587578981
Ni 6.9539149230092585 1.3849807026290892 5.1128606047861345 0.48443568768526246 1.1603188020836661 0.8623225463739923
Ni 5.765675462061653 5.94746091876163 12.990059427210756 -1.2339978769353714 -0.01735134679425399 0.20627369309269636
Ni 3.8307063154888294 4.593216932853154 0.5192385998883409 3.3597623165374655 -0.6534024167973844 -0.21751892698921246
Ni 2.8575019749054156 1.4776596861759286 1.5651740011536057 2.5056773275819166 0.3692908894896027 1.3396229085660543
Ni 7.5439886213705085 2.566618989515892 11.256783340531788 1.024157035316707 -1.1431636304606183 0.012988184729551827
Ni 8.046803050115523 7.307565321982608 12.339638433199049 1.5990739570126784 -0.0064838079521307695 2.5423271175944664
Ni 9.182861355312605 5.115694233765076 6.713771899544766 -1.5855124162781598 0.6200030154013322 1.6989924251768869
P -0.1537698489459054 8.990808447481124 13.754441627448 0.05412480686886162 0.6551546236018007 -0.8637479659666092
P 4.638234314480873 -0.14628445512099222 8.25472409269572 0.8320069261095865 2.1633498540550353 -3.830834695541945
P 5.80896753683257 6.727055824675361 6.002320988474043 0.2752944432367839 0.614530165212219 -0.3988197521866551
P 8.192225789474884 6.825735875550203 7.892651570794227 -0.13001940131464704 0.13921880842572798 0.3704573989938781
P 5.781146963766659 4.851103424606364 1.5287512731397104 -2.588029504727588 -1.5079167799808675 -0.3601860989748571
P 6.257594202939262 7.6075249217057355 11.32968411889901 -0.5873325217515046 1.1442411797955132 0.8140279730336626
P 2.5894886820362015 8.496873723048013 5.879603849950241 -0.12803270990192145 0.4760572338135801 0.4856613325622475
P 5.350879813016577 1.1349424817407827 0.6584108525588801 0.9724225830568932 0.17789745594284848 -1.1066981885447327
