# total energy = -340894.45517131913 ev
CRYSTAL
PRIMVEC
9.03517180667073 0.00000000000000 0.00000000000000
0.00000000000000 9.03517180667073 0.00000000000000
0.00000000000000 0.00000000000000 13.22388722822967
PRIMCOORD
 96 1
Ni 6.37544299936164 2.001922983693263 11.212203493941155 -0.08524826774654351 -0.534811311924337 0.8488929032316477
Ni 4.637880103134557 0.4188452594650239 6.077764812898905 0.3820471607140066 -0.08546706862556894 -0.35870000134763386
Ni 2.7411265175104793 1.6092815290633125 4.795986571932897 0.15870134263037183 0.00920120688329383 -0.09173901767720975
Ni 3.408292627718965 4.253921448465473 4.559780982862199 -0.6240990398475769 -0.030377326740276718 0.6605670528666236
Ni 5.0775315558877 4.394427402879039 2.6483741558473484 0.5340060424142223 1.3826423495503737 -0.002562618520853651
Ni 7.027032473636169 5.8746324696729015 2.621397843835736 0.8871465473962077 0.9808791984646784 0.4281226149158305
Ni 5.199036544309901 4.343252190622692 11.957025097493718 -0.26516069723689173 0.04399748862687262 -1.3949021407543332
Ni 5.618205262920189 7.916274067963428 12.514597286073354 -1.0487131273895163 -0.31586079469492057 -0.12309902004572994
Ni 1.9544521918156426 6.528607229264463 0.4051154126174349 0.29186108934621346 -0.26285955990754084 -0.5310407891383112
Ni 2.653675091057588 1.8253666943745372 0.2166336002307093 0.1087448082065869 -1.4123828140375998 0.2876948737836658
Ni 0.7230106991763576 9.00423522768018 4.4915329102457555 -0.6889396904720457 0.30904402888340327 -0.35088204796511185
Ni 8.688347556263093 2.1469194184195772 1.232828391488393 0.45057425905112725 0.13515672254121242 0.6195852111376232
Ni 7.050894361978155 0.8357280796464887 4.784111645826168 -0.3428149546862612 -0.6663296663820137 0.8623855384014439
Ni 0.9229789252886292 7.333894008569482 2.4926231562995778 0.2801296598418982 -0.37120918955823806 0.22772492098793684
Ni 7.619152448074667 3.574449434462293 3.7499504157316648 -0.7247610710460293 0.7792016093830967 0.5972770345587262
Ni 7.424272830638731 3.5237621214753396 12.846966917624272 0.7887118628663772 0.7117967975758773 -1.5834339364825762
Ni 7.82521760802002 8.726114573782784 7.107654213834721 0.1063102306231653 0.6884002730288079 0.019447310091334248
Ni 6.7774539269982705 0.703321253104848 0.3953429709549236 -0.14735969236530752 -0.14786311436428728 -0.40207733989200434
Ni 1.874843294359663 6.530107067759264 9.384662033749157 -0.49092463784371576 0.18587327505947343 -2.29529141209306
Ni -0.013988252756934196 4.7547139078109 1.3338542598363998 0.2777593598375087 0.4330146529008091 0.3763400830269003
Ni 6.168058704354593 2.1892763031402254 6.961913280964 1.387837520598068 -0.8443469357321781 0.8769246125578833
Ni 3.3106856683253727 4.205158627041126 0.42444345182272725 1.4393542004201212 1.0239822003017396 -0.3492702233933017
Ni 5.891853506848148 5.58258861625449 4.8788074729123805 0.023534592786830438 0.8202400153816455 -0.2553555382210118
Ni 5.377092672123428 2.8975072685226335 9.183222881691382 -0.32407546929522896 -0.12514767504464253 0.14923376945956882
P 0.12610931189780697 5.61948825729526 12.299404795721685 0.0828165183765993 -1.0388192653145722 1.336320069445066
P 4.070498428688621 6.165330082514655 12.676444315937042 -0.3187555997442123 -0.6474945359533816 -0.478498239154905
P 2.561263355365867 8.452231415391783 1.3649831367408471 -1.1000521439831248 0.06895955788884899 0.1100694405552814
P 6.384514311703691 7.717753276350356 5.831059450847433 -0.3697205208278536 0.3902461515850311 -1.0529353930009802
P 4.614795239554937 1.0124361598490255 12.585821544233095 1.2698380265624325 0.24802069512249544 0.1290099862135262
P 3.8353851918710644 6.293394605558696 8.228179939231968 0.585941812051565 0.3307269131734755 -0.7038811422732264
P 4.694069835659666 1.1606852563712942 3.871954145629245 0.8914516025294648 -0.12465685145115306 0.4762323259388637
P 0.062468273308466174 5.412673178102505 3.4701727113526633 0.6538796135441189 1.0799893117949786 0.612990588639241
Ni 1.7830188448255444 1.2885510056389162 2.533300402609482 -1.0995399802333967 -1.0726560113583592 -0.07064285912854285
Ni 1.8790265788361262 6.361799890161945 4.804872663256011 0.321122300204176 0.5036294870048938 -1.1589872277564361
Ni 5.824957095911357 5.405083633911945 9.392847899268975 -0.2371994361372754 1.3648104635752754 -0.0026238107760922554
Ni 8.63524785244414 2.3607367556452896 9.929076301846992 0.10474288613604543 0.5882100392604515 1.091483171367191
Ni 2.2646115644031872 5.3381239767735655 6.9804399004434545 0.28925527629225023 0.053052399740289274 0.2629996850298309
Ni 0.34365094687988684 0.12069905111053646 9.484554891571571 -0.05620071556128385 -0.4664824456409515 -1.0388519183247207
Ni 1.3349646824328518 1.3555377682922622 11.359054849408329 0.02067012675484182 -0.12524254875129398 0.36576436439358295
Ni 4.3131018228085285 6.759853412613496 1.5658801784992968 -0.2880864527951296 0.9052512274167183 0.8085818623174267
Ni 5.691588927105578 7.574636157328371 8.025286124537669 -1.8539646397821297 1.6885010387272599 0.7713211781937555
Ni 5.310648019769408 3.0477441028090966 4.993194553104435 0.29600647897315474 -0.7641534568007227 -0.8114087902432606
Ni 0.5940634398615806 7.3863883558875205 6.569971148620179 0.1340472915271175 -0.20719774756886253 0.6222542733293541
Ni 5.180424090699719 4.499587765776569 7.2142123177873465 -0.8146419524685777 0.14462326727075092 -0.5208998440495675
Ni 7.99309109737788 7.119209294864848 9.218570280241748 0.2255500248238051 0.12179187119853219 0.3871189188099591
Ni 4.615093400219566 0.2750568271890402 10.446566661928818 -0.09892833633679737 0.050404420594480935 -0.03327624555462656
Ni 8.208408273098394 7.232772367401927 4.467677346523928 -0.9496765476096288 -0.49356850322446616 0.30044857390490837
Ni 7.074159928990883 6.085712149887019 7.152522876275579 1.9186507671066055 -0.877268111940231 -1.337683011230864
Ni 2.31697941931805 5.227153998501594 2.5926090763900445 -0.15951715366344785 -0.34964046224852685 -0.47654188675948256
Ni 2.3209820003614046 5.194997822579925 11.331918614858415 0.7374841750396525 -0.24167264141728054 1.3042360444263281
Ni 0.9700250640984448 3.3737692368235734 3.8886294584365033 1.5170377684455292 0.3970927421932194 -0.2315190979230464
Ni 3.831201907394601 2.5908896832240167 2.578789781343067 -1.037983142566522 -0.0708439193957554 -0.3260901857324126
Ni 0.9995700754116955 3.4847121095805784 8.008160860181968 0.5931514424261268 0.14310811617780514 0.660325626279779
Ni 3.5867734086002976 2.432765144082365 7.176854593543647 1.4134673053510303 1.4268131305303169 -0.6789054461644952
Ni 4.06771559581875 7.069280936296951 6.033464462755173 0.5139043865683408 -0.8427559370959744 -0.4013034378404573
Ni 1.0174597152894438 7.292314148611201 11.400789210801918 -0.6824615389468698 1.3244302599860158 0.2456210845420673
P 0.19946044946523658 5.75931657383467 8.051311032973963 0.4536336147027413 -0.5890237934109984 -0.4531929276208969
P 8.54045986660704 1.6595170834674944 7.914244768409619 -0.4973714219103241 -0.7219845367421566 0.4568973730556777
P 1.8538184499174812 3.2965185191696613 10.446658820679703 -0.5334979924295522 -0.34440183955740683 -0.9536409315740159
P 4.024301596014416 6.1939986821773285 3.80525289440021 -0.23400509756969376 0.09884451837373945 -0.2786564177304814
P 7.036781423852375 3.925294185014232 10.367408619538443 -0.7190812470524325 -0.1483577946125187 0.7767773162123203
P 6.133101625219742 7.689500294583832 10.32331969241145 0.36383629413293467 -0.8030958995021911 -0.15784722216019267
P 2.342919397140785 8.472840641937815 5.661780992297155 0.6246770238382338 0.24083806133112715 1.4133055829621852
P 6.967590079315105 3.85691600592595 1.6569926565069675 -0.633819095348818 -0.08182767210076874 0.11018591152848765
Ni 5.366530556458232 2.7038112585735603 0.579992967042582 -1.042329849570992 0.2695863371084131 -0.013647158469789398
Ni 1.493920457366803 1.3020405169204712 6.945899342721918 -0.7402833350513444 -1.3998638556349827 -0.10509564148977384
Ni 6.927464881993347 0.5490800307406994 9.236752659681132 -1.0485331501682265 0.2773461835594901 -0.08926870175984626
Ni 2.739120709402974 1.5898288044891753 9.168517236305004 -0.6782665270289158 -0.10376483849349226 1.0943314394492636
Ni 6.46781859436674 1.6771266330239243 2.5793716463976764 -0.0803387462600681 0.6634713709976122 0.3502287306518291
Ni 3.8685081311598646 6.905066691459541 10.562222280221294 1.4430966981816888 0.1160256581387163 0.11373377678074607
Ni 8.150592209675308 7.132030203443901 0.30713891470313526 0.4677659403390654 0.1396003601348628 0.3894370254201745
Ni 7.7030169113803515 4.0129985962734755 8.247804332067558 -0.40256430683075184 -0.517895767115921 -0.5248570289251026
Ni 3.003020003114726 8.617114262931695 12.248638876741328 -0.22119226207574164 -0.5620747756259804 0.5679877986763057
Ni 0.10186071820896832 4.840746812313889 10.217383208268718 0.0893571477085945 -0.010472360286233577 -0.30446669392536596
Ni 8.578516009619706 2.4755376466991623 5.9400778320418315 0.28120335252205114 0.13638750962451995 -0.6167963355385765
Ni 3.714313891688324 2.590690909447597 11.438649290589659 0.11240220245351609 0.5718192566072539 -1.0025888222276282
Ni 1.034572330404825 3.5971096449741076 12.724076837387296 -0.3376971738437216 -0.2691747034922912 -0.955764919895554
Ni 2.967123266127709 8.452132028503573 7.796182180388136 0.2733406619445228 -0.23825050310960902 0.9950387777945121
Ni 5.634748662221279 8.224219823495392 3.5508784786476117 0.8129082576069225 -1.1513078568343074 0.45847114530070077
Ni 3.2393710584490765 8.364183667609634 3.639901121451382 -0.5368473685177593 -0.23817388423540267 -0.32803548238424146
Ni 3.5647004842460857 4.493172793901215 9.229797384540783 -1.044943375934439 -1.5200220478848336 0.4755543260352327
Ni 7.123148629706614 5.9091648957399485 11.428558810884876 0.4907207493630258 0.1763185414915028 -0.03129623901012029
Ni 0.6880418743183532 -0.01555946910781319 0.15903438092735347 0.19271009547564877 -0.01649285544870063 0.4292775544558801
Ni 4.4759607918976245 0.4721310878200781 1.54568747336658 0.16477428829732912 -1.0652532911363848 0.08784482482912613
Ni 6.148018693622853 5.695022292334642 0.38365236234996486 -0.07334277455820917 -0.3082246183059015 0.6838087970033836
Ni 7.85494332276638 8.503984878634077 11.490592492436717 0.1286104367822624 0.38575340592100016 -0.3390223204130484
Ni 0.0874649792103743 4.924222763238392 5.730293795443103 -0.029496466797220167 0.1983079012784004 0.3433988522141892
Ni 8.20495683752602 8.81389126641527 2.2981130773843503 -0.30984801284193736 0.9363376644088777 0.705769617545191
P 8.695846748737099 1.667043381456466 3.6310412321260688 -0.2968294890950824 -0.9611740067262673 -0.7273211184637216
P 1.8590136736193525 3.2391632495010017 1.5832430678695335 -1.462783377977339 0.5866146697488737 1.0294817899637303
P 4.728204714173874 0.9417720823319202 8.38662884103605 0.8855074691308878 0.030758107118463156 -1.4204100552174506
P 8.275982321909341 1.470356729689446 12.269082759646068 1.4877431332464701 0.3989763323691774 -0.23591517010821306
P 6.420682103840371 7.837053682888632 1.5051827988352946 -0.4739602420752353 -0.8052425135315486 -0.22596808619783018
P 2.0099462161232835 3.3213381357071228 6.0130332290907536 -1.0853793724622987 0.4871026929944643 -0.4488554765878076
P 7.074349667595646 4.09030352495732 6.01753003402366 -1.145922424152678 -0.11771255892283598 0.05868003033971185
P 2.311811301131145 8.633296255366567 10.087432141383024 0.4791348442976393 0.045720641965566425 0.29586609674054853
