# total energy = -381163.168088827 ev
CRYSTAL
PRIMVEC
9.30213854118336 0.00000000000000 0.00000000000000

0.00000000000000 9.30213854118336 0.00000000000000

0.00000000000000 0.00000000000000 13.61462002960279

PRIMCOORD
 96 1
Ni 2.1062924959699942 2.6067289366437265 4.150770421964059 2.6689886581804747 -2.297975643793442 0.27641647265636915
Ni 0.7527755485616889 -0.02921243537476834 9.94219898955288 0.33819571074669497 0.9869763125013518 -1.8332322923307849
Ni 8.109464709333977 5.241410799125301 8.455795414074968 -0.464434047752355 -1.5048448259237632 -0.9397986263742846
Ni 8.381645278390696 3.424498526080306 0.46550691104939884 1.9354202732554602 -1.4559383300310473 0.17192915417455554
Ni 3.113025724498105 0.5413267805732371 8.771682080319419 -0.04260986425072662 -0.6503541168893638 0.6239987668242866
Ni 5.098167170181199 5.503210181747731 2.4421220166915703 0.7031985143839051 0.6504453910515895 -0.013283347372467445
Ni 4.380879279546762 2.928629435352126 2.699424745620152 0.018163044062271944 -0.7494182074730771 2.94147905630956
Ni 2.4642294787701826 7.456733659070476 9.487470466246682 0.0660557539784927 1.655380344913891 -0.09737821824085811
Ni 4.422785412957579 5.479210664722224 10.18240159749387 1.6236344199608619 0.7128419510109401 -0.27424209071286965
Ni 8.140533851529788 3.83674139275449 5.861406694208776 1.0496862899360633 0.5115564551614544 0.569639989567748
Ni 2.265210228087732 5.281121627877972 13.236964312475072 -1.3627371259860144 1.151595049057423 0.01745084848659575
Ni 7.399116213932496 6.312914817207135 5.2158020121597115 1.8746743615256551 1.4192345468521106 0.5729284305110326
Ni 4.378311889353335 7.410446218481747 8.651301247090545 1.2352222362607759 -0.736719528959486 -2.33295730207495
Ni 6.473255776497314 3.015278854380265 4.291246664739522 0.09186680150432565 0.18153428136448735 0.35097589323049877
Ni 0.5875900356021739 8.310642056121047 11.848871316700947 -2.1822083815224356 -0.9129025733143891 1.5261862677140168
Ni 4.314089925964149 -0.011173728624433745 0.0875191689668539 1.005469486209533 1.7561297936198272 0.6426976287853705
Ni 4.425510939503499 1.6844219160704612 4.9463274351583095 0.5937312261889968 0.037655862679560954 0.4336653991109306
Ni 8.7163455195127 5.01767576676193 12.451550350972532 1.0025114320224733 0.9103587238466128 0.14376657569741047
Ni 3.4660976889245183 7.130972772933556 11.785168412633476 0.7091004816906368 -1.7229772181272582 0.31017325739184004
Ni 0.8732968440801296 3.842350582198824 7.7334583227267935 -0.3702298563641043 0.7325731108912803 -1.7216227609818928
Ni 6.280375937146971 3.7667055928765665 9.097615986230245 0.3255749366588909 0.18697859230851024 0.0231934073973278
Ni 3.9836221578059465 2.0210197934223886 12.494177400107953 -0.5771391261582706 0.04047841973002061 -2.090402515163032
Ni 8.986767984415225 7.6378648976443815 2.2251189418752384 -0.8116368470936668 0.13221280942154004 -1.5402558584332053
Ni 0.5162454248539059 0.01948332884105601 0.9779040412546799 1.038480908138547 0.9740904576776191 0.5447643093719907
P 1.28624388262983 2.714122124263679 2.0951810916727203 -0.8865623927579633 0.23613139988407716 -0.7251469936305383
Ni 5.960438189637168 7.972965130716809 6.568781295969538 0.7367341842475054 -1.03134866796914 1.316468324826462
P 3.66737735923379 2.8695329502114104 10.362809129701654 0.553158446972957 -0.36292663783447177 -0.1851633934766424
Ni 7.025793494248513 5.457834350720435 10.847311937540894 -0.7993680570286427 -0.2233051946536864 -0.6415056653597984
P 8.223750781494976 4.70968196493459 3.808240570965943 -0.24171377906786115 0.46602478927824253 0.2172124514923872
P 8.571390297106314 7.536304150789929 7.144502733210145 0.05187020650673003 -1.800005926177487 -0.4801141774917732
P 3.785114524734504 7.827870376234693 6.398354028031778 -0.10619967318723002 0.48108502604547465 -0.11520187668584031
Ni 1.686440480099351 2.4095794157760535 9.414754720300909 1.357537841173262 0.9506702789814659 2.2028466265980775
Ni 1.286281091183358 3.1570713497367784 13.246480400039838 0.15592146589238953 -0.10941380924915349 0.6525110153313666
Ni -0.20549446921014677 9.107723689796103 5.70278290966391 0.4873065814751543 -0.8341869644800408 0.18711614632763904
Ni 5.936085191353146 8.76010277846153 9.520349804571627 -0.4925182075830808 3.6981745141703404 0.8688492917489166
Ni 5.40992833805324 3.9771571716304708 11.905005070767002 -2.64138786574407 -0.2749992805938683 -1.6973083526062447
Ni 7.7925408546599355 0.8930880737016291 10.45576911940813 0.7399269801531903 -0.7991860229248235 0.16043040950633658
Ni 4.5616756411389145 3.1930892295518025 0.5945331516904834 -0.17848443879457002 2.5562822942229784 -0.40656700023224174
Ni 0.5986986492579338 5.252945450718955 1.686933493433596 -1.1831661389954848 1.2202216490868856 -3.0728806826837145
Ni 6.421982389735844 2.2750239840807205 13.31961846306815 0.2927134100441798 -2.260423139460965 0.7458883399429476
Ni 5.616863708498756 5.131040927223115 4.757411236972527 -1.4758777492674515 -0.4793168784014584 -0.14293842336916027
Ni 3.0494270043805116 4.864832331007626 1.8351146974308525 -1.1829856475535625 -0.1727385374497283 0.3032374495039552
Ni 3.752789593857125 5.114464516626427 6.466481959327558 0.7981745509411737 0.11325580870306301 0.23012504578899723
Ni 7.087950382916901 8.961680117199027 0.9987287384504173 0.5548952271584056 0.5169519151454129 -0.19616103013872668
Ni 1.735295310881507 1.0059146403504964 12.278807780791496 -0.22172962263645038 0.3399867412088467 0.3965651518245235
Ni 5.299977062378244 8.10886937247753 2.1476386406502166 0.6930596261776902 0.7382627050768897 0.8151425462540801
Ni 0.15482572144350457 4.388851212140118 10.058604088837294 0.5004204931492929 1.4150521333396466 0.7408196671707886
Ni 0.9647619801486192 1.1760786577720468 7.8123274332122445 0.7231507891361159 -0.35661715067667615 -3.0149069343824078
Ni 1.7435184012111768 8.129455004716851 7.188491615404687 -0.27293391342440737 -0.5884679209075284 0.6657421693096599
Ni 6.956818138146136 3.7483803802640674 2.155562202123987 -1.1953796503425413 -1.0863013700559356 0.6054711403337443
Ni 7.437124751361264 3.0517432368376243 11.446532436762057 0.010748496765755683 1.2519097242187858 -0.3067878858593749
Ni 6.552509995511779 4.638948504678019 13.61570924862191 -0.03971428787048644 2.1131837747236055 0.7008228150628769
Ni 0.5198890724581273 6.950148504926257 4.184779970102414 0.5673609637255842 0.09334647137364568 0.5242937002224648
Ni 1.540871316559754 5.792720634610078 6.03005167243255 -0.3569390527924692 -0.1408494020506155 0.27605960353758263
Ni 3.825448596758767 7.337629079227612 0.7934937989011277 -0.7031861730887309 -4.0824384800300075 0.9437213584674586
Ni 8.556758033431459 2.588831622396798 8.784560890909269 -0.5382946424872471 0.09931785846573218 0.6840227127864026
P 6.798263189425296 1.5429642976956994 8.187301282459028 -3.1588540015217403 1.6601703101033667 0.39315278370886486
Ni 4.243477393506543 2.739572774876775 8.197539215962234 1.9166432497582733 -0.3577972870277064 2.3496928696620762
P 5.632184330413876 7.342856880998284 11.064261059954612 0.13277356702101648 -1.347390468326615 0.07598355461516591
Ni 8.056926231752557 1.5172438850695262 2.1133565398572696 1.0660199940990802 0.09673441400927212 -1.752092647435976
P 8.553772047010844 7.125242655690256 13.490427118679573 -0.27706619042522607 0.2562489965695587 0.21871757528300395
P 4.308397017274378 5.340125091634867 13.430863666192081 1.5915128568359687 0.2877961752482205 0.5605130875658153
P 5.49629869292992 1.3368010047358885 1.6558234218289039 -0.1989419353179735 -0.6399596610289173 -1.126459173221744
Ni 7.955039910054736 7.575075463566019 10.716434571361795 -0.03606100738861532 0.9206932730034013 -0.13102393131976145
Ni 6.425424180937177 0.9245116273697941 3.5376636905662773 -1.4157154779552585 -0.8422607426271107 0.5742204098495788
Ni 6.125727886546562 5.361138622239759 7.2111599964277335 -0.525645586264669 0.25190254667540485 -0.6256689554378579
Ni 4.936868090637675 0.581858057931198 7.290043060120758 -0.12020138678296073 0.7924430477740352 -0.22018413252620145
Ni 3.375755320958733 7.344903351442319 3.7065123856206155 -0.2678259027738807 0.14681101895068913 0.2933746977772625
Ni 5.597208290097634 8.095446386792334 4.419931516901988 0.11363093265429461 -0.13631654717726846 -0.5695168337263224
Ni 0.14887607373439052 2.46901077789852 11.295056415349903 1.9205742093815632 -1.1516333584945262 0.17762928988312637
Ni 7.44697571590778 5.916597211442899 2.179238004733801 -0.12432055115765686 1.0766898151081006 -0.23192301822968445
Ni 6.31524035180263 7.183232186363517 13.387324077281386 -0.4390958260978825 -1.1666593995897132 -0.5566032109884479
Ni 2.8789746206691196 4.536541263230807 8.656134638193823 -0.4282953930482688 0.8273928243763429 -0.0646475607770564
Ni 6.875926742776442 7.1330657540695 8.583078433983271 1.3887001257086793 -1.4474529182678555 -0.5604817201072476
Ni 1.2216312294286005 4.522541544965927 3.5584939690450437 0.6477621877924715 1.735353480304424 2.5733096820189103
Ni 0.5669820782307365 6.597699783771436 8.711913980787525 -0.361337696080797 -0.038580431376359366 -0.2675600507070037
Ni 6.063664019261995 3.0534269238847624 6.589884127102898 -1.3217848519433686 -0.1422866487177743 1.0327290932564341
Ni 2.37121739708877 0.1993178493245124 5.425970805906803 0.8035635831672291 0.4708018989519117 0.28952524212418523
Ni 7.137381946278739 1.0435883007975133 5.934639639048586 -0.863297765803068 0.05249935545029668 -0.5884244692641029
Ni 0.6902484347856993 0.4742611534806797 3.73206722018359 0.13348833369985397 -0.7218523820396665 -1.686250037909554
Ni 3.322519182998665 0.3559063259914021 3.2700551225243006 0.5055524150592197 0.6616739127775573 -0.9726755796079635
Ni 2.1138923430280716 8.196123430500498 13.359590681909355 0.22667899622192575 0.45625613992725295 1.1505702073373345
Ni 8.264754607482741 0.19511700363121048 7.939528594302785 0.3966284009622911 -1.7302225868357624 1.3275382094873782
Ni 2.510684357849788 4.538894704241447 11.06530941095026 -1.0792686315788702 -0.4985060497353996 0.3064166185628852
Ni 8.490601225258821 0.7445561790873719 12.980845745762517 -0.8481100023190361 0.9645534647214614 -1.5706277858568434
Ni 9.079482397668414 2.63320282247884 3.8324745018786763 -1.0109690758715233 0.328894230840111 0.7670009535518468
Ni 2.726903262400519 1.5841541664511047 0.9428461421206756 -0.41981512349139954 -0.16443258868719424 0.3937173979630832
Ni 5.918420430565767 -0.05135524557923229 12.030790446395807 1.3031793210270395 0.6322905745194336 0.13350401742913784
P 7.7837038231970554 8.61038486120357 3.7240208704831774 0.5759219659217178 -0.4977596584876782 0.9330937035502833
Ni 2.9563125991768966 2.7419076116106518 6.5582029042015515 -1.9276722538789255 -0.1615105299443928 -1.7595313631022085
P 3.344193165428677 5.30245143118785 4.328032901184898 -0.37863016461265764 -1.2173738952254454 -0.2661312886802772
Ni 3.665628557217978 0.05805929671112489 11.403659811173352 -0.2771037285313808 -0.14020765470155855 -2.05076895993181
P 1.8366979213834655 7.317452741077098 2.15658264670449 0.2099495992823868 -0.2378877204535516 -0.6964948771114844
P 1.4133389993428154 6.581793127138251 10.95808087117967 -1.1336628900590346 -2.0137044509793447 1.0801050114372366
P 0.8071874768132398 2.5176702637746544 5.885449931284679 -0.5886473839081862 -0.16835712055258104 0.801154459505104
Ni 5.709894394456933 1.8887433856306406 10.446524654284119 -1.9057762251367827 -0.4932959662893698 -0.2936395214028749
