# total energy = -340892.26293420605 ev
CRYSTAL
PRIMVEC
9.07501208919526 0.00000000000000 0.00000000000000

0.00000000000000 9.07501208919526 0.00000000000000

0.00000000000000 0.00000000000000 13.28219750881888

PRIMCOORD
 96 1
Ni 6.172287614207909 2.15936276250118 11.54588162314285 1.3989979080902615 0.2959152048109291 0.21076669586704347
Ni 4.6754007145604275 0.33589522749282896 6.143029776100507 -0.11015325851833932 0.19789755321385918 -1.5321460848418773
Ni 2.497053027331988 1.437863022770763 4.749500908573569 1.6652060727550613 1.3101287557616792 1.0628580514313308
Ni 3.428203690126051 4.214698664510689 4.780648164141876 0.6253961613924455 -0.821774963968933 -0.4367298969688672
Ni 5.211443512739089 4.403168509986656 2.7542896823745333 -0.27397598153567654 0.3098665247846986 -0.28727244153426656
Ni 7.132160689411999 6.1922344901880795 2.75820736497719 0.44626509015281207 -0.37402660440237523 -0.7311934569349342
Ni 4.880568581785036 4.666942803544268 11.33745764167726 0.16224175168346253 -0.16718675439356367 0.3139522648182981
Ni 5.451423125304886 7.899589063962998 12.478757445683879 0.20176577792001382 0.4596474249969891 -0.08917048561908514
Ni 1.8280522309797715 6.437867835117682 0.21702437016732568 1.4928632280818548 1.5141933570181987 1.0636352959169877
Ni 2.7360616136330544 1.3329014360616414 0.5038455637427894 -0.630093823978431 0.19940961898301143 -0.4125124191823993
Ni 0.6420117111997932 9.213950250876556 4.8728393942180155 -1.719512656617426 -1.4069644712355058 -0.9943808324955392
Ni 8.935274787910647 2.6547041326675282 1.6494360333378664 -1.9359414358662528 -0.8237876235235877 0.17344687637066258
Ni 7.100525198207779 0.6136595592720188 4.965802000298847 -0.8579095049079611 0.3497276226456945 -0.7845158225071586
Ni 0.7191130116217799 7.521242746178978 2.828536891579157 -0.6493099918955656 0.42957914485669885 -0.31493648310843825
Ni 7.566835605562225 3.8997140792533056 3.9143693158412844 0.8230139785823568 -0.36361363659916734 -0.19424375851135578
Ni 7.793692751036426 3.8615264295151093 12.780833734128619 -0.2099817380719029 -0.2813581329323606 -1.632690873736175
Ni 7.959284491714391 8.821083914180674 6.964891886549713 0.5690558349295038 -0.7024150992506613 0.43662756706304806
Ni 6.685996808297762 1.0691997425985897 0.5829079742190594 1.896475773671463 -0.6823473819665088 -0.8364199675756177
Ni 1.9462361099105074 6.7314535425037105 9.13038118953052 -0.8817945390556751 -0.5591151787770242 -0.6038405467088568
Ni 0.19775086006419298 4.9646848663438155 1.034895290418134 -0.44111465630012414 0.17371349976848793 0.9991913665103049
Ni 6.547475827878601 1.8586803958719802 7.089133335870242 0.6379056067133658 0.010339434252795097 -0.016130072792643186
Ni 3.489596145087767 4.508493097168575 0.7569095283505383 -0.4554608977194672 0.039214722526248594 -0.6321424789773435
Ni 5.823235434578569 5.3232295083367855 4.932384176773197 0.6855633178006452 0.6610411642895648 -0.04382008250874389
Ni 5.381917609776167 2.935448698328378 9.36465261966159 -0.3662251060800854 -0.6255851374748 -0.5386813364027045
P 0.290688056111929 5.776635248883312 12.243728252065846 -1.3446563572249037 -1.4436343158527138 -0.7197247941737024
P 3.946032939582145 6.261395155267642 12.617608756533286 -0.22516667334245738 -0.5944999860342213 0.09710593841607792
P 1.9709201420606726 8.435423136869801 1.4195079038638054 1.5614602604249626 -0.2973375390797524 -1.4920954966778948
P 6.197207596665392 7.7199401299759876 5.701701968785103 1.9139268792683746 -0.6827415320811338 0.6359855068725176
P 4.744134854084454 1.0418839570206495 13.02612948861852 -0.621742109579626 0.10099010396183251 -1.5911942971542854
P 4.002352462936529 6.31295029741657 8.188394962623477 -0.9715602350565976 -0.8193110758094728 -0.4616418297191985
P 4.503229590313025 1.200052338029925 3.9607117712008555 1.5565890483755902 -0.6271010598986942 -0.8779826215087524
P 0.1988561965038585 5.611297608536305 3.684800556835292 -1.0868397590579089 -0.7908193961276831 -1.1609595209914587
Ni 1.574414725625004 1.0900178197134718 2.6149192808490267 -1.252849462424236 0.4028589552530353 0.21659230140988506
Ni 1.7771867897291553 6.531304156815514 4.873703335343271 2.02941800505986 0.18598666070888614 -1.5396272237102708
Ni 5.834524749282542 5.565786424259438 9.092607360331309 0.8633733562360099 0.8032781907163262 0.7863359064350328
Ni 8.907568776824451 2.3346556908146328 10.162249056005528 -0.2078001570395518 1.2417356118992615 0.6108272624393352
Ni 2.476734075867201 5.227215883282098 6.766217190282253 -0.34220637456798486 0.25206889704994007 1.6121724420678492
Ni 0.5501816665940866 0.2646981297608782 9.343706584880046 0.4847776444057134 -1.674001559559504 0.36066046750811437
Ni 1.4220180521331938 1.0454232116304158 11.630170332926209 -0.09291735425602708 -1.173910681835488 -0.9844437758874853
Ni 4.365371085756717 6.726126510565421 1.6205212306772576 -0.16395513483014346 0.03069151554658585 0.39370094290285096
Ni 5.777424774911645 7.920969791810715 7.844890337719652 0.24154228648700335 -0.2642173594870159 0.8418311112888598
Ni 5.429370846582495 2.746879027722392 5.168395286670147 -0.39088018562460425 0.20638245075641873 -0.772981596615314
Ni 0.9410696507132286 7.408413124221991 6.745948151382476 -0.9206493071393435 0.2898607710867331 1.8162085040792788
Ni 4.944502040056328 4.557244060665152 7.150922368848488 0.8434637617962764 -0.6098430441491949 -0.8023091419348376
Ni 8.154560596055294 7.419493713654106 9.207351809782297 0.3170787262624217 -0.8150957521765446 -0.2633341855511142
Ni 4.699131870469501 0.49856027685887166 10.499709723037293 -0.09600704892494433 -0.9002707434829914 -0.34834951135124526
Ni 8.24330513664223 7.18031270212846 4.861058213873403 -0.7527750397604519 0.21517202402359073 0.43244078267521013
Ni 7.425083920935172 6.004127645184908 7.136418684957902 -0.8962109715913211 -0.20562680353731683 -0.9034144313182957
Ni 2.160932739546025 5.454318054075438 2.633925985604654 -0.06331598644982644 -0.6611188116050356 -0.45232183786985325
Ni 2.3100987088299463 5.042557542770495 11.400109708279578 -0.07172040846343776 -0.09071931816344377 -0.263487680409843
Ni 1.2150079575091428 3.308023308594934 3.8457803765063767 -1.2269839075113838 0.5186948659784487 -1.1147969063924672
Ni 3.7893256354758758 2.3894596871950915 2.331954967297026 -0.07707858745155759 1.0578107188154102 0.5403831495851598
Ni 1.1531436019327912 3.5298801225563636 7.961907170130346 -0.33250585945076927 -0.5113674790791 0.6641604266448368
Ni 3.6209841662164775 2.540894409433991 6.953243201377672 -0.2634187748451205 0.15056534378679876 -0.15635135434095654
Ni 4.243847602476253 6.722287780565598 6.02297190722896 -0.5264233449709579 1.5609851205607568 -0.5197482469436274
Ni 0.8915817962568752 7.599614548255753 11.296362358151962 -0.9822753074812567 0.15248827184112448 0.03834646098868234
P 0.2623368116853366 5.722484653353888 7.997981249615685 0.7493397888266579 -0.4622380685423007 0.29990067182123836
P 8.665873987024689 1.5744601006841037 8.037561913668238 -0.4230760536308585 0.752879169438484 -0.7671577908446853
P 2.0536570248228254 2.9950261509261114 10.421756279005416 -1.259375950688844 1.6597766742093736 0.25886740802901226
P 3.878868777102964 6.058895341518087 3.846577162544165 0.7007873338392511 0.9746987806855795 -0.9157770666487067
P 6.8514887238457085 4.09481775836963 10.412006993807283 1.0576145436442044 -0.36296134772714905 0.6791499580751336
P 6.182124927020695 7.645334457804477 10.138062334503095 -0.12109947311719788 0.6826168335778114 0.39221741637878904
P 2.5872767948455695 8.460497394528224 5.6666234180964095 -0.010527896114517352 -0.13227605855930769 1.143965043315991
P 7.073853738469054 4.112768131749419 1.5368831992413872 -0.11557571508549126 0.26732659453995894 0.9845743879280784
Ni 5.38795249263641 3.168912452407477 0.45368434340939856 0.10057667057349776 -0.13180117580541817 -0.2805659760483684
Ni 1.4212376011166812 0.8144641608136127 6.976288286393161 0.24360816787709658 0.7976521027788005 0.9472995627370203
Ni 7.048198680054157 0.6390441823346813 9.231007643093267 -0.9723071405249513 0.23066857699729304 0.18369709334376105
Ni 2.735054287321044 1.557380928439026 9.048164304945645 0.6772164884978465 -0.34282292510606116 0.1351829477934575
Ni 6.277893526756245 2.086009441960818 2.665564199312419 0.6292731278493485 0.022796171958909126 0.818265665264094
Ni 3.9707260467441303 6.879512360345601 10.322485632208563 0.8617299070953159 0.9486391074840501 1.0166355301286814
Ni 8.12442248180136 7.368918672781726 0.09572050217290351 0.07030115951840796 -0.8841095603420968 0.03506470491361703
Ni 7.702171256832597 3.6283984508733464 8.341392401897767 0.25500329708791564 0.6167140602374154 -0.010805575255936228
Ni 2.9597969550412064 8.429923679706935 12.41902662538639 0.967371908006863 -0.6989091429799319 0.046818760125751625
Ni 0.041735979359783 4.8972030784509375 10.03661277736828 0.1391550450673281 0.19085453032414873 0.8387025929622072
Ni 8.720505558180571 2.2979926430621815 5.867689379978416 0.45862386882848116 0.6466049342595768 -0.06733230669807114
Ni 3.707732204203032 2.504648812225256 11.708482239924972 -0.19469730110900663 0.4824248279028207 0.2595397515056885
Ni 1.1228239874424597 2.998374830287659 12.647480972940896 0.18857241915819137 1.9141649634211095 0.8092907154589933
Ni 3.3842080328231092 8.470189507151892 7.9761449561746085 -0.7182960321469758 -0.16360443635894406 0.361899482121538
Ni 5.474319380126529 8.045170403578053 3.7245808711478836 0.3344154177686563 -0.5915319045448328 0.06942055668566753
Ni 3.179239815858539 8.520074847125956 3.5197161093180602 -0.9642223066342878 -1.2756867720337255 -0.38348800692559115
Ni 3.453096447548074 4.251770087795037 9.053013083761025 -1.0532043303916505 0.3432299307364927 0.4915411883817921
Ni 7.177590198582487 6.081419520855113 11.335013740994155 0.7178296340335185 -0.0327198588305243 -0.2680102508705449
Ni 0.09418773267652009 0.2717938815028687 0.6423892316915016 0.4246495687655655 0.8027467436928885 -0.27092999562050113
Ni 4.765134431435734 0.11329698506571233 1.7299930982608764 -1.1675410308637182 0.7878526001898755 -0.029565886582574887
Ni 6.197189446641752 5.698671822338434 0.13600992464859227 -0.6913578129952351 -0.17043842856164196 1.302310288158525
Ni 7.601856076175271 8.78904912245638 11.447553870074087 0.5396881804006641 0.533859489534029 0.27983166898550516
Ni 0.24347258461528207 4.851573919020411 5.684236201036497 -1.1288888657091591 -0.42678229883785207 1.2732496233471426
Ni 7.706826737896212 8.73940880780145 2.7756204976572403 0.5853154913214759 0.812860949308755 -0.02330550749515986
P 8.610053589320401 1.6144355277508236 3.640875684624546 -0.5654061539920586 0.29841765951780863 -0.3402641632399495
P 1.857101343815315 3.246304153207701 1.6574456387701224 1.1018732563522635 0.6038243487589408 -0.7618944855632168
P 4.931969448733027 1.1253649907520356 8.192538613020451 -1.1304721510358788 -0.797459270041704 1.2367970369470636
P 8.388813876162725 1.7215660422849046 12.278540904908217 -0.49032454236587164 -0.9053748974787762 0.850997094058844
P 6.409426748074074 7.936397311904569 1.3180910167715423 0.18314790570851036 -1.6847248595142792 0.05475369870211215
P 1.810991208758334 3.258954719684661 5.878275381266345 0.27049085120055355 -0.5985543586092531 1.2553956258848573
P 7.038325067194092 3.841216553062142 6.21122032241652 -0.11976121392174859 1.2720196075947836 -0.6504232795644024
P 2.4578036012108613 8.682354208489654 10.188627392862472 0.8945798637458012 -0.1310864091265807 -0.05748523870066228
