# total energy = -381166.751940057 ev
CRYSTAL
PRIMVEC
9.30418313091448 0.00000000000000 0.00000000000000

0.00000000000000 9.30418313091448 0.00000000000000

0.00000000000000 0.00000000000000 13.61761249334120

PRIMCOORD
 96 1
Ni 8.389693571947381 3.7971208700270975 4.781865377133559 -1.6598679483715992 -0.725124625033035 -0.9016318854965762
Ni 1.3854486920706355 5.446510628922843 8.829033377328619 -0.3361041183249889 -0.27788637233367625 0.3809639549521568
Ni 8.814299272935491 8.994949292446078 0.7687069575069497 0.26785521334991935 -0.785162454952222 -0.1907187760772328
Ni 3.820474369665106 5.710367958099848 6.036850813457519 -1.7745396635855823 -0.41276490151283746 0.5894608809484171
Ni 2.5082868155027094 3.7709016819872936 10.21598748622851 -0.5595322117097848 1.1301219667853117 0.11988436976317418
Ni 4.731139901166842 3.753214429871017 9.841680199201784 0.9007335420520229 -0.43348799299280183 -0.4559841172127889
Ni 6.393090307278249 5.294731489642032 6.46918270811073 -0.07438407133852996 -0.3198344346306879 0.4637593902828336
Ni 3.7116247313124915 5.280924081887927 8.222736518738492 0.9827992983055268 1.8295191051452557 2.187506910917213
Ni 0.622752236860958 8.135149730076211 11.294611201043141 -0.46494338328860574 -0.9232026696888165 0.1383176367676973
Ni 2.8792166840558906 1.757634625345383 0.22735981004154077 0.5368342558916367 0.6896236039129477 0.24860330709884282
Ni 3.6125444852387254 2.2362418051777166 11.528861689105362 1.2715735211963004 1.4343269224088588 1.458504805206643
Ni 2.1849664519884477 0.5307468916337026 11.737851319989419 -1.3322464135963248 -0.6382755884582749 0.05026686657535214
Ni 4.488700801538322 0.05974495108587411 12.605320320507339 -0.6694712973347889 0.8356784614239027 0.1345226885016393
Ni 5.950257711552745 8.787894001233234 9.44058709938308 -0.3033153539297421 -0.7952324375937143 -0.6857404668084577
Ni 1.4914884671201905 5.480489505686989 11.297116817558088 -1.2548983745334648 1.7642771053173096 0.6733346369449372
Ni 7.996750006125862 0.5129237984438344 9.844975740863848 1.5617165994101425 1.2556568499660439 -0.8124606285465428
Ni 4.781791874086889 2.662773472072228 1.9840723908394629 0.0048046204774949515 0.5171550322951546 -0.7870403887012252
Ni 0.2538385847904684 7.874316260414088 3.1419100599242444 1.5334781733897396 -0.29190376965869086 -1.6140773724000461
Ni 1.9245795831162145 3.695816924187003 1.3102653099292443 1.1268396964896141 1.2646120022768026 0.24183153559264797
Ni 3.5930336132303977 8.155023465226325 5.416364145186941 -0.011563279357567182 0.49215516781670715 0.722313380836485
Ni 5.74505395278132 9.182075023410073 6.036129739265508 -1.9722796081756548 1.297585628989346 2.273383042055743
Ni 7.460373153284607 1.5774498149909317 13.228421464235398 0.26048103237303527 -0.06412177018057344 -1.2704687181678957
Ni 0.4471469454395058 2.8779513151512015 9.319621553768071 -0.44575909705067096 -0.6372522894000832 0.35954178052263885
Ni 3.1521921126931542 8.041893902637263 2.7939391936446687 -0.19099979765276137 0.9406519755135154 0.17290257383141835
P 5.277388492301296 1.8549284682595881 -0.07446602962262992 0.03179117636866783 0.21863915663658473 0.15798349062774084
Ni 7.853456281852966 8.553977533345117 6.912313968114472 0.6452700174982371 0.5928814765941919 3.2791420344812368
P 0.7906452908919936 7.2160080877496835 13.448917578387315 0.08029066663095205 0.46673492797138966 -0.07432339330392361
Ni 2.3978647702023563 8.82444083253925 0.3432331762334906 -1.7236174228144185 -0.32148045487454313 1.1108402357375644
P 5.108089576200419 8.60094504974857 3.9512725760041993 0.5831853323523504 -0.3819743984945422 -1.0516827515408016
P 2.6125680999420715 4.209063577785196 3.6135558499441647 -1.0361530313363188 0.7694525004161329 -0.5516201559515596
P 0.05834094985265679 1.205952391267265 11.609845299005453 -0.8537556306405878 -0.23561486525897488 -0.03933196483040323
Ni 2.795469731768355 7.311013101615702 10.896717809800338 0.9201340580658219 1.1175631562836945 0.13917998476799257
Ni 9.348936243532801 1.4711309144476954 5.603620134714654 -0.07996490786041713 2.59175580453924 -0.07491834657544517
Ni 1.161348137376981 4.333655893981439 5.440317764636365 2.258047954360569 -1.246725094694053 -0.07122804220805153
Ni 0.29559668906351466 7.404250320688404 8.306239701428211 -0.5704182624946692 1.3120442276168371 -0.5138143979576958
Ni 6.378910732199236 8.336976070374092 0.20206452738582215 -0.012987927619235696 -0.5379863672182089 -0.8676521861170218
Ni 8.276312796414008 5.571521633359608 8.055471497068238 -0.9772207757764847 0.4743898734134863 -0.13562286354435352
Ni 3.865720612190857 0.8888267528761057 7.486377414694275 -0.7444786040796146 -1.1392678949506378 0.01833659352565874
Ni 8.61445472364275 4.966926509862624 10.287262181040049 1.0160794005148952 -0.7667947510783117 -0.6612445385496225
Ni 1.399572442050913 9.422253206539777 6.885881714281159 0.28744341989449207 -0.7139758075050672 -0.2529574703024805
Ni 7.5081966545353485 4.108327187115586 13.71906360493696 -1.6769773543583764 -0.5900486351310871 0.8192020610354342
Ni 5.138402604814216 7.090113185916261 2.068624154967113 1.2375244020313914 1.235720001832801 -0.9959569187334075
Ni 0.0017650035383785713 3.87701589050183 12.408273539079596 1.7757413972031677 -1.0823698962120134 -0.4619015111384883
Ni 5.940497623457021 1.3211846992420597 10.797228179669174 -0.5171146659755224 0.12146842642084243 1.4145250571915833
Ni 7.10884250654228 1.8511323615455213 1.8081060971128495 0.1701620349718037 0.9082308788703325 0.849667319503827
Ni 4.235496762036822 5.161886363015943 2.4359319050306225 -1.2537640038187052 -2.009854481105635 -0.5038290046102097
Ni 0.08377672567352837 5.358744269526294 0.8865695580505356 1.499166287481747 -0.0851305112217566 -0.7314600803327596
Ni 6.747719247000438 3.8598403684573026 8.707250924435435 0.9097701983329944 -0.017357260331524946 0.15941302398541576
Ni 7.2199995823093275 2.2737376631622483 6.630906158313095 -1.9728851029701377 -0.41514471459892377 -1.0768579652548487
Ni 5.769570475309668 1.558152939194426 8.470986080727146 0.7747345747506788 0.7060041021535003 0.14380539935514586
Ni 1.742124552079821 0.3370254252540168 4.4929407177873415 -0.4092116369439404 -0.8975777700318606 -0.9369333890113477
Ni 7.7449881150083835 8.767080543587726 12.051873082890841 0.19104016397239357 0.7554209620237313 0.17469668961736365
Ni 2.2069801492567858 6.247070457350398 1.7395686929760121 -0.17459410260122835 0.45111033406025536 -1.0552249603661052
Ni 2.4159241896435417 3.6144611469620047 7.607847247034537 -1.5056914901947747 0.417332723389178 0.27464986767424954
Ni 1.3731020410667958 0.3299607590089412 9.176023582707062 -1.412321107561729 1.149647438412749 1.5753478170403319
Ni 7.2400500969387735 8.287487120344384 2.754202888364188 -1.2189114149158944 1.1763131206293935 -0.6767110096163377
P 8.779492323873423 1.2988267471981816 7.711599123454217 1.0071221913216075 -1.3684483174381787 1.5887517491510637
Ni 4.527462028427542 3.9743283417822806 -0.1520638472843649 -2.2583066073385942 0.6507351543778663 3.5268878786757902
P 7.908248616262621 6.630132980695597 3.827312013841987 0.3024905440356016 -1.3281210785740416 -0.7021443620877779
Ni 4.463737678220084 3.4471440218662646 4.133190755674412 1.2483955404179403 -0.6400365370134395 2.0061886022182738
P 5.2375014592542275 1.942946040600449 5.914306347966584 -1.4179302262183902 0.17309309257566963 -1.1415047547009567
P 2.623239997983823 2.0820156657356335 9.023642462778211 0.4235442515165286 -1.4924320540817073 -0.10936727228193421
P 5.61821002426938 6.0406106338574075 13.346717639712502 0.3333355544409162 0.19350276658027318 -0.0778738296593433
Ni 1.945793120635999 6.849237189052355 4.44299121069306 0.2665125832790958 -0.5406508014242496 1.5425125156778663
Ni 8.867388941833688 6.015303255763629 5.64866726772158 -0.8589510587985981 0.9804444249201052 0.7003440756542455
Ni 7.81309473546664 7.514179244283254 10.1860829112538 0.4158234858335032 -1.752368269694866 -1.1345926009621556
Ni 8.946939707532882 1.0253302843060461 2.9652896821241046 -0.6238864096161384 -1.6525598447459602 1.163151643546771
Ni 3.861263908475078 0.5604802696389551 10.04285338584445 -0.24933015796253835 -1.4791764746233818 -1.33416805609907
Ni 0.626988431436729 5.417779311439906 3.2908867792484933 -1.4005907064986782 -1.3373726790792968 -0.4942891834405745
Ni 8.918059523119982 3.426097959642689 7.18469299861357 1.6464509036347452 2.0445479187227624 0.05861600987099582
Ni 5.225182720799756 7.582676640432663 11.35988004564897 0.6668770542450515 -0.6567456222380044 0.25849356962936126
Ni 1.001958176301792 2.671296103812633 3.6376183283361234 1.1576736511513352 0.8477845006588174 -0.35735274329112
Ni 2.449968195689547 7.78634520898884 8.675862332252652 1.1237314898779356 -0.9821953461729407 -0.23239918653515462
Ni 5.832662141064782 3.4151934570228697 11.923458608267788 0.4966900795725832 -0.004950144916423733 -0.8439802964213787
Ni 4.547121767365834 7.618823391864401 7.900911337452049 0.5788321975899774 0.1186864928003311 -1.5228929416747257
Ni 8.642841786350145 8.839039095858785 4.934981527529103 0.3136259918271308 -1.3796076764891079 -0.8457096204076596
Ni 7.6866787993783445 2.769548277588478 11.078377333179741 2.701811875358082 0.0420097687728825 -1.5600906337709455
Ni 8.158996351419724 5.996080813432105 12.291379503999085 0.3374812011781736 1.3899455680800064 0.19866657016939981
Ni 0.3002087726374433 2.072553311499835 1.0120243720222548 -0.8956550990878511 0.17521785222815628 -1.9440488954647357
Ni 2.666839400096854 2.197648053584705 6.006007446405726 0.10812362968282024 -0.8734335686854893 -2.733517948212112
Ni 4.088081284640564 5.321062327879309 11.694710614104338 -0.49083927721876114 0.41676810913495965 -1.1064498199793524
Ni 5.131843155712704 6.150651207649728 4.401865790872357 0.09553242328137096 -0.4051629207958635 -2.0708428478635494
Ni 6.906430002707669 0.9514271577623403 4.413318309878105 -0.500726454425486 1.3068459712453493 -1.1261969206992928
Ni 3.6767433487854424 7.124222321244124 13.35842881500906 0.8357018584626703 -1.1120820785644652 -0.09888385625210713
Ni 6.650341666438129 7.379333718285781 5.39631921306737 1.3806620858955512 -1.565304316761401 -0.5511740695530766
Ni 4.837830969034987 3.499870827622677 7.257043256994096 -0.04365501768578933 0.23346156636139792 -0.4938454110349366
Ni 5.293447512371098 0.32306170722344985 1.5970872238897287 -1.2808899135012197 0.1364402172393263 1.109280090339296
Ni 6.596191320663943 4.519413910026396 2.4323646812213746 0.3235545637947524 0.07900100128525105 0.5550582350988311
P 2.282837154256261 3.9642146947278922 12.495725417086595 1.0448161063279553 -1.2666326322512573 1.3994275394285125
Ni 7.463229537503279 6.453902448168299 0.9032286979317524 -1.2013368963672408 0.33515846658226794 1.0780041630441497
P 8.741112568492236 3.696719429949906 2.147483619860288 -1.0063940549063313 -0.24919466082593858 0.7617088519149721
Ni 3.7269301125493537 0.9654857784607589 3.413077685780765 0.18642143425345958 1.0797777100048047 0.19314872567496413
P 1.4978339200098802 5.935408235288896 6.7161520145016995 0.9170898719228592 1.4042067059847108 0.8881968430375928
P 1.687909077023775 0.870350506031023 2.0595953756648333 1.434159029372427 -0.9965536717771417 0.711898099040432
P 6.187719073210616 6.674020812485432 8.854076516621712 0.6372934270506637 -0.775289161702568 -0.3948396844929845
Ni 6.449780695044937 5.549842886683688 10.649571723930038 -1.3927871512938594 -0.919830410782474 0.25533548361635383
