# total energy = -381169.6631940423 ev
CRYSTAL
PRIMVEC
9.26505214639204 0.00000000000000 0.00000000000000
0.00000000000000 9.26505214639204 0.00000000000000
0.00000000000000 0.00000000000000 13.56034034206543
PRIMCOORD
 96 1
Ni 3.35368942270093 6.183051019466452 10.082478876898275 0.9570000778542356 1.4127201427723606 -0.20347016220563025
Ni 3.234096130766129 5.5811747078249505 7.595241371856646 -0.39413648777837285 -0.09075685626959853 -0.28284037390484196
Ni 6.755816537548989 2.633887528494651 5.950466711691734 -0.6336594298425022 1.915108815391618 0.4794338635952969
Ni 6.1918435538673 4.044575089441412 8.139024880603788 -0.2883080818876325 -0.1541116663771604 1.0050210858182047
Ni 4.0360234463940134 7.898225251171293 6.365630914791427 0.9976397057524689 -0.9755814404008487 0.20634594109152846
Ni 4.794923860275289 4.226966904209655 4.232168304433717 1.2046399925985447 -0.01586859160114041 -0.018213694794549276
Ni 5.292095818635478 7.136035743810248 0.5704168273864189 -0.06367028446545163 0.2446335238178174 0.44225674032436735
Ni 3.750057614695251 8.970812532501945 8.655130899344979 0.32714022426348177 -1.2705160264660635 -0.06551556520430653
Ni 3.7171203546372857 8.433606284209134 3.809533689861525 0.10968608907393368 2.314836166994207 1.5883686547800322
Ni 2.3914952366137823 7.9634141574351025 -0.03855280810891682 -2.443689573025211 -0.725186588619222 -0.8177740703396561
Ni 1.3708107768990863 5.084845869201828 9.730696894911533 -0.5089113042291236 0.3925611728714529 -0.3132462398902089
Ni 3.3468054890235552 1.386088847738913 10.248878285313197 -1.316036636605682 1.3961370416026988 1.216469638243621
Ni 3.35834974388494 7.496279497839448 1.866268700628974 1.098330790416644 -2.305493292326726 -0.12737245061010322
Ni 9.140603876474454 8.273107787448478 12.174772228446542 0.3988999706052872 0.15429858557698586 -2.073158383370604
Ni 3.40173798266172 3.8547990281847864 9.273726923926173 0.1286194356433269 -0.28814713082973603 -0.5383995434962275
Ni 7.261327042759296 7.786748144837274 1.2702164007096763 2.616142203803404 -0.1731242029239212 0.2776457170777799
Ni 6.48784343694237 3.372080551031467 10.660745982891479 1.8556083460331398 0.22898861819170882 -0.9856786767358509
Ni 5.32166986479723 6.6584223103396125 8.598584433638713 -1.272848274143666 -0.4258487312799891 -0.17887421803382098
Ni 1.4385197773220428 3.3986527203271764 7.981467111365608 1.161262396943858 0.169016865623767 -1.1038188101144086
Ni 4.028768910634411 4.9097919756616895 0.39140860962891233 0.903414688428612 1.8201420348057298 -0.06894747370399094
Ni 8.631832072940545 3.6200689343539705 9.204962634074073 0.10705559342962206 0.9866973478083524 0.49641240043116447
Ni 1.4595607105405068 1.1462259150692473 12.551776461644478 1.5318298391530392 -0.05914231468811105 0.4200141268760831
Ni 7.04307021148349 0.05772220081213205 13.121446525835209 -0.636468102935891 0.904674528977642 -1.1310192817886005
Ni 6.80598679443053 7.118358024487999 11.981455990799438 -0.6266917402754174 -0.3481307104722198 0.4198441769571221
P 3.324421123257016 2.3132148117952878 12.484246276726196 -1.3608998156669594 -0.6746654399412186 -0.9936858633110435
Ni 8.169450385049457 1.5542495425496219 4.181398598684172 -0.2820201919963917 -1.9249016331123239 -2.520196090023382
P 7.656083115695927 7.403490001501749 7.010370136758151 0.030643435917469805 -0.2258215333176369 0.8545704132323994
Ni 9.069911529289566 6.042963432384474 8.130969844346575 0.516620242837607 0.1816949753120677 -0.14930653167903318
P 0.5517533065254441 0.6015900215329815 2.6668850113909777 -2.106907711906907 -0.8439707833396819 -0.17591179297138734
P 5.933209625732813 5.3807253066001755 10.349048322118458 -0.593493656256894 1.1663963757363138 -0.2949055325994921
P 1.3130709724880483 7.3183256430058785 10.488055604130745 0.30989326425757596 0.289534755205882 -1.2660729030930453
Ni 5.022139996888943 2.7417512645269526 -0.004267482976849171 0.977945055537019 -0.8144190378244942 0.8709635098784418
Ni 1.094554719754684 3.861655166705994 2.608467005169464 0.13669218534913233 -1.4318720331104628 0.6941970822162431
Ni 6.112988695821352 2.470099938254226 3.513023302418186 -0.36690593419719386 -1.001143090920037 -0.7197458772196249
Ni 0.1381076454576787 9.199260921039004 5.278525296889514 2.011269616285607 -2.458694016853843 -0.7598723129268655
Ni 4.274515151359438 3.435027314697801 6.528449380586826 -0.1202936893864509 0.7506129991121266 2.097704448141084
Ni 2.0985713508212003 1.51926470598735 3.6208685083463763 0.3958778959495118 0.7216770328040668 0.9723372224319384
Ni 5.1787749669423775 8.315717761852579 10.553578978773764 0.45512434031565485 0.6114360996679277 0.12565726769120938
Ni 6.742928850139529 5.335270961214978 1.2132242859995324 -0.3699876584463112 0.5866162124107704 -0.4141458410207642
Ni 8.671505025842993 1.4102984287604219 11.613739972287329 -0.6640239010669725 0.731844974476004 -1.1248064681096692
Ni 1.0537329003973295 1.5987310574689726 9.370005638868044 0.09643873714572423 -0.597800511162364 1.2890251410138447
Ni 2.6547246305678893 3.50290308605776 4.686426394682378 -1.870856787551778 1.4554511059819837 0.0402202809726275
Ni 7.675372954075867 4.960008557803509 6.601471888363719 0.3197963823039009 0.10289991939003569 -0.7298839940948914
Ni 5.790620474595799 6.918084659252281 2.940085454367415 -0.5718609084784668 -3.1835175657066914 0.3139995731164657
Ni 7.426532185964241 0.5513317466569103 6.118290158607616 -0.8482128464454877 -2.0380515123651417 1.2655301432156978
Ni 8.906689107224539 6.161389327760258 11.304388222694808 -1.2681868641122545 -1.3752342300117606 -1.1861596744061702
Ni 2.8043181610590024 8.80582048549428 11.27817553741886 -1.337149250214581 -2.249241668922849 -1.1023681937108112
Ni 3.8597558310345783 6.254290004722626 4.422907931104134 0.3605259988127791 0.055712720181271796 0.0734733865988025
Ni 8.814316538229344 5.671425579899393 3.1383640538955437 -1.1369585300911709 0.3549245934656017 -1.3500057944622748
Ni 4.145573421900449 6.964493304999214 12.355490774813529 -0.7183880776401499 -1.1144230679928162 -2.0294817684182593
Ni 1.86148793376824 7.516180829655062 7.973995773387902 -0.09970403816055731 0.1905241435679235 0.03562083452740317
Ni 0.3018387188805638 0.6993548508245846 7.483274144268881 0.5801352326721171 2.51482479840914 -2.7100579174169583
Ni 1.0544185142494504 4.983208248150949 6.071303373612407 0.04510332009654168 -0.5895369856019912 1.6087873276457003
Ni 8.244969824355358 8.015909942382622 3.596120627800432 -0.6666551680422325 1.4717961229989103 -1.84244069830293
Ni 5.867974394208725 4.684530765031785 12.493575257641067 0.9461127415177705 1.6830976083235014 0.15696224845207807
Ni 5.32592252369079 5.597944452045743 6.463671842634289 0.031241217402468775 0.028077732072822614 -0.744255432325215
P 2.1191305013327684 7.181249197841997 5.496819188373543 -0.5840551365518135 0.3902194121121538 0.41839047522973105
Ni 7.400034137084977 1.6518105406960002 8.925483265319498 0.28173351399390834 -0.450307892763618 -0.052579830979244936
P 3.3698106132778243 5.008140503232801 2.381344445581572 -0.8252150999987337 0.743599543908771 1.8256935607515783
Ni 4.019781810140395 2.992472838205883 2.068629482092838 -0.2347987971155827 -1.054358498600752 1.203484795948179
P 8.687626216419888 3.8180260365757666 11.448507033926216 -0.11795244284778394 -0.48552403565343477 -0.12145994178041017
P 5.407871909123337 0.28600567142260125 4.930838467911387 0.09555839142329994 -0.022494067337458033 1.4324790705668424
P 8.763859064734076 3.058217647593034 7.073575395376838 -1.3117205257288311 0.2752275945545905 0.11181367693989776
Ni 1.7317216146762957 5.912882101522636 12.100393317048697 1.7227738438672004 -0.5381259781198667 1.5048617952046277
Ni 4.088204219571638 0.10525191785780345 13.011241511148436 1.973299050579105 1.3811146000519374 1.4982638302721358
Ni 0.5976616394613703 2.1002112650350564 5.560715619875584 2.4516605070458293 0.905108531191267 0.5903394268986284
Ni 6.44370472894908 8.79819534765245 8.30325441382727 0.4746536685978341 -0.8592048266806172 0.4649804071741283
Ni 7.402961893534574 2.763301775608479 13.116713937245164 0.243500952875271 0.2914911076013044 0.11350957658508193
Ni 8.786799333623955 4.838617845769907 13.353680614642224 0.222944468880158 -0.4161456450596124 0.9541417824698342
Ni 8.848791796928554 6.682585566100843 5.246482114354923 0.7273350024207926 0.04022413762736944 1.4385545873369612
Ni 8.994197523890497 8.559379365865077 8.7919145688639 -0.9631594125874121 -2.4842566958142958 2.886525582891816
Ni 0.4074010159822327 2.353943980632085 1.023270335743438 -1.0365469243406278 -1.3088180073700557 -0.33081433068095933
Ni 0.18870316822857672 -0.022587270406557957 0.5574939327791474 -0.351412209436969 -0.12586784104011872 1.9976695090036691
Ni 1.3574505718347865 7.634690110499347 3.1503928709794415 -0.27094645068073336 1.65002756524241 0.34281418335531283
Ni 6.402215825843716 7.583611878516348 5.219876590871814 -0.5261166123638166 -0.12112852658292042 0.28554774553367596
Ni 5.504710233209371 1.5903369203065207 11.492185268832339 -0.20506064662120166 -1.6859294213453415 0.22807587656945236
Ni 3.7113482272065936 4.24890654747752 11.575513294010772 0.2942409024322997 0.2528643963680419 0.21029386999568297
Ni 7.591848509793854 1.10631207081335 1.7106908730150931 -0.13709816253829937 -0.5800023066386785 -0.04436875592336229
Ni 6.0891682469861825 9.017508394862604 3.0237664780291693 0.5773005914367993 1.934577722749507 -0.03840353947886289
Ni 2.5144610074968528 0.38894688529771654 1.6401773413348804 0.7508629103394037 0.48767013546216015 -0.6937743928565278
Ni 5.177783606372419 0.9850881297167488 7.0943902613251435 -0.6481563379070966 0.5743695338329333 -1.0548320958030608
Ni 1.5847686240210532 3.169018405126988 11.111613990592963 -0.5888597570293084 0.0059932414689574205 0.6039770722867212
Ni 5.035694768046412 2.1969847337567012 9.157853550391732 1.1655491972446703 -0.10340925492628641 -1.165223181363819
Ni 8.599756462723759 3.6503471244719536 4.538090131755222 -0.4678587571631878 2.8859918218755327 -0.3874431349185972
Ni 7.746973276362211 3.3836526010490195 1.9058110162974382 0.8578141169806776 0.03171687148730667 0.5074172361821002
Ni 7.42159391321856 6.87637339489758 9.551971261241727 -0.31614695847677166 0.07517905643599956 0.6607172052912428
Ni 1.4102706336042548 5.823409493820872 1.3473562976201163 0.47797090589652524 0.5458146050133762 0.08829553921329954
Ni 2.4704705403364535 0.3359841417265906 6.314073679617149 -0.8506363682853156 0.46754456835687863 -0.20807860751191906
P 9.200873040096694 6.949743342126561 0.3337549702019924 -0.3270504927631529 0.2658237847421873 -0.299204159974846
Ni 2.138985507888104 3.6643095579198732 0.5236727867550696 0.1067581167938613 -0.6225064985494763 -1.6127085170769773
P 5.013162161446982 0.7695200165475036 1.514472821064149 -0.7359214585382229 1.0561754972048325 -1.139579769764102
Ni 1.6767983860901865 5.535238579732857 4.015460589861623 0.33976794032982127 0.22828799258025845 -0.6295006704791223
P 6.865338717899258 4.721164780859969 3.3761719980192586 -0.7330865601925891 0.07061200589060743 0.19158678050448297
P 3.084780551836687 1.6139535379964653 7.94315890063096 -0.3534132990273978 1.4597759586095826 0.4545288728235011
P 7.196879340659941 0.11643112966819472 10.608457735110006 -0.41156008257145893 -0.695778310660434 -0.10663444673180345
Ni 3.9934968574584127 1.8638041967821617 5.059363270027869 1.1892845931883969 -1.9472895138892206 -1.0585861635288543
