# total energy = -381171.1190010382 ev
CRYSTAL
PRIMVEC
9.24963415939908 0.00000000000000 0.00000000000000
0.00000000000000 9.24963415939908 0.00000000000000
0.00000000000000 0.00000000000000 13.53777455962784
PRIMCOORD
 96 1
Ni 2.061530665549607 6.430881999796698 8.40357363112412 1.0497212569390568 0.04980432511663681 0.34215058162938494
Ni 3.6235810978778464 2.706544639317364 10.516928145760629 2.4535284134925037 -1.4789543313102465 -0.7573696011096698
Ni 6.1058313635769705 2.043355134840718 9.000981588885512 -0.466287556021326 1.2103218734746704 -0.05658586681484448
Ni 1.0816799428445631 5.385506870200169 5.0339532578276796 0.46347168383908566 0.5314056286768977 -0.5452420203393578
Ni 9.007626525914146 3.8053179056988355 12.458935041427154 2.536105047944155 -1.1494111540322267 1.9856843116173348
Ni 8.640564052300132 2.660102227261725 1.5040598522878434 -0.08190326253371055 -1.5081520359201253 0.7151379461339684
Ni 4.695428679835108 0.3464330150185767 6.504182573948724 0.9643493191304554 1.7178221562888802 -0.7614090612863661
Ni 2.789412109862368 8.931983019482955 7.226328320249993 -1.874659706237636 0.24186598837500925 0.6861521004245796
Ni 1.4039371896118307 8.532324835834272 9.262044182412609 -0.026897081501160127 -0.8428461828169355 -1.626136103336793
Ni 1.5266613328411105 2.7736414839801005 10.99141401812624 -2.606289993599673 -0.5823019013061326 1.0589808278641115
Ni 6.251096864738852 1.4752148688193096 2.0226516791736926 2.0309532107574637 0.7435152117250807 2.714230560737409
Ni 4.632309177770244 5.949975031544007 11.948683609472706 0.14790322357360333 1.7598352674958724 0.7941983399022452
Ni 7.603633838498624 0.31136765271964695 0.6635890886632224 0.8298374292620934 -1.3945735537703208 0.7847991580755322
Ni 0.6460073844538302 1.24081989492926 12.998740903773989 -1.6501849167558806 0.41875480054768527 0.025906949673748934
Ni 8.76825524895978 4.891178683088141 1.2993636030797786 -0.23790391840346772 1.0198887469586564 -0.08961142981124567
Ni 0.23742700389838228 3.941740756805909 3.435643335457753 -0.13551102055683759 -0.2075898408009586 -0.5484373873482038
Ni 7.991970470194289 1.8503060247006597 4.837777771413013 -1.1092047570166703 -0.48931512726475085 1.3826024974513738
Ni 6.270308354449977 0.3140370970771967 4.394930271968395 -0.417232707476204 -1.3893907240178007 -0.39982119686797596
Ni 1.7088698719934758 1.9668699117202093 1.5708958572732317 1.1940290498519177 -1.662402284757679 1.4233130877968585
Ni 6.001412245931859 7.572083337100141 0.005279691057828828 0.8262738802805513 -1.0671067994053558 2.3372173629028845
Ni 0.396199745515322 0.07712899764332773 7.0476300171811 -1.3469392397218094 -0.9359052048571496 0.18705906783745851
Ni 7.757233259848143 7.683846664100396 7.598969248098373 0.24347935560871617 -1.6773833315475433 0.6164865176076415
Ni 4.676337435365313 4.080716506882781 3.479167488002626 1.0685561302573727 0.037020543088407215 -0.3919412798992669
Ni 3.249350157953711 2.2630986885562745 5.207697456953731 1.072014006898986 0.8457376454321176 -0.701537067521082
P 3.893920149291937 0.6313568892427316 9.059667741398838 0.736779435663144 0.16290149675464846 0.1926509601029392
Ni 5.779337784461269 1.6058751979764398 11.65135320123337 -0.865330994183013 0.2485205175770494 -0.8769292405435735
P 6.6697815454196885 5.8212201269802755 1.6547761627356017 1.7792555810040132 0.12868756987710095 0.011274287362238648
Ni 7.007901914408709 0.28786618278318676 6.767885013004735 0.4753722919314136 1.7717083647843745 0.23444449909995752
P 3.2404427604612627 5.6894128432135265 10.118037681729675 0.32543789686039437 -0.7730330186785397 0.8016329418034194
P 1.579818979143392 1.2560632916764602 5.870290360040697 0.4996579039516556 -1.0147406270988137 -1.522429885995378
P 8.672160801868358 3.813531580645143 5.5093465192836435 0.273179196665994 0.8218420697614426 0.6632487134638448
Ni 8.393016098935252 7.2484848934103345 0.524321975116972 -0.6087783503301064 -0.20856248912687309 1.3191934370671088
Ni 2.7630229042071726 4.65939210597158 12.143491999989777 -0.4948897931390509 -1.1448883264612089 0.18539762097463552
Ni 3.5986810832883664 7.835947644750251 10.083110138976581 0.08092264378799612 0.19702697768344776 0.7590444177089315
Ni 0.8363722508220214 4.937880084894339 10.670947500491412 0.27147404104942924 0.9172274259419881 -0.9946798517931966
Ni 7.242454132075884 4.4851197527470665 8.165769242160637 -0.28645508783929374 0.26241810149474804 0.39683460343582627
Ni 3.483449143557407 3.760336935807067 0.8618827412521054 0.9278067441197311 0.15481589153303657 0.5159507275744083
Ni 6.91635828721997 7.6960839298143195 2.938184147254142 1.285623057310831 0.4206314487451078 -1.390622796652689
Ni 6.717518906228123 7.0187609846643 11.405723621949418 0.4184305844390472 -0.07690426665722239 -0.460521085851194
Ni 2.4796788674614287 4.002575599285482 3.234282504251533 -0.4035248709718082 -0.049110384373405744 -0.2559263231228173
Ni 4.997891709952491 7.91523550695717 8.270510247067158 -0.19949266561512097 1.3809407934782347 -1.91862788428847
Ni 5.317133576052534 4.359555971895583 10.555808982063333 0.4076075256816141 -1.9022242461194658 -0.23602392777193545
Ni 5.85968935457227 6.250874873524086 9.468888196623526 0.8317037930468709 0.06357875319290987 1.0447623702718845
Ni 1.5746021855964132 8.325614016352214 13.612773228631095 0.790582854636845 0.44693563385727547 -0.42480280651397806
Ni 5.754382272068098 7.688036748279087 5.847329993690225 1.3571015249667917 -1.2781133791973471 0.06434777014845046
Ni 8.522538723116712 0.43982564403362906 9.158466781456815 -0.07936301261036009 -1.6606271951351272 -1.2154602231425002
Ni 8.768948971505921 6.307380887315741 12.151384712638071 1.7611992377229346 0.45365444063834776 -1.7989330048282828
Ni 7.213965259514369 3.768717104164448 3.683343907782783 -1.3188198557777737 0.8108806856539326 -0.5147855036217134
Ni 8.347202661988115 8.28771826606503 4.954148341083037 -0.056701052236470095 -0.0075209909673934995 0.027869986937390713
Ni 1.8295498461201274 1.542875941152908 9.022818124711234 -0.718402475817853 0.08040970870731959 -0.7037245620907041
Ni 8.186545769935858 1.9802726313116494 10.610406796371404 -0.3248069481446148 1.3319715626683835 1.438446086783555
Ni 9.101898795117705 6.617040132645092 9.335500150414969 -1.0991944239685199 0.45558559622278955 0.8003527895394151
Ni 6.097821180577531 6.024388336660041 4.090127084462029 -1.191898119551844 -0.3210081432238149 -1.273700337731316
Ni 5.03098690022038 8.693092723493912 2.2879922284019907 -0.18502789634004263 -0.14663078461908297 -0.8878664562813677
Ni 7.159503414825343 4.963057588502275 13.026722896395123 -2.6950156783718557 0.44430488110264776 0.7483064624661371
Ni 1.8884700143723516 6.7222917173455725 3.146625573247973 0.725406417939512 -0.5161008799990273 -0.5589313449009923
P 5.90549354188546 6.0903567259810565 7.387224777821518 0.7450416756719362 -0.05170231347029806 -1.6828281567121985
Ni 3.9932797171671957 1.8232785943030145 2.8540874003573764 -0.14509403625958237 0.05587752789391022 0.2679261757971708
P 5.629632459004087 2.2570956761236696 4.471052909438121 -1.0388277499550043 1.7756724916384452 -0.4668295445677251
Ni 0.6655019129637813 1.7054937556022571 3.758857919338695 1.8000660899914611 -1.314495517370807 -0.5982193438673374
P 0.10482702650224228 3.341411764643568 9.10847158500154 -0.34811014164692955 0.4057614736118109 0.4081543993240196
P 3.748848890442976 8.384062453273064 0.2560289427322988 0.1847859555325656 -0.2188669563766747 1.236438110945748
P 1.1513851842807896 7.08094627370036 6.461241148342609 -0.08227118739609056 1.6198975786262488 -0.4936134975297885
Ni 7.626887418245263 5.851901162787596 5.800719238296723 0.6530110948962367 -0.7216394946979121 0.5510467999465929
Ni 1.954123916139116 6.967296021374602 11.883580060925881 0.15083788072189505 -0.5293212353440433 -1.3450173401087482
Ni 7.736042348472029 -0.16319869146131794 11.928471309368348 -0.5239268038013493 0.5720889653288729 0.13818676761678783
Ni 2.3184392484704124 3.9397243366051264 8.991099279974888 -0.8585931612385471 0.569276178470426 -0.2665773750787602
Ni 0.3459002361031406 8.693962189085076 1.8774860740584558 1.2038473214939203 -0.20101295891438928 1.2566438964696616
Ni 0.4687954975604684 5.205379498686226 7.275389303676464 -1.975527168578675 -0.559500587140901 1.0163241695358498
Ni 5.833623886105273 2.526371019633678 6.61539554772904 0.17011601222521672 -0.22649464812526152 0.154432797162005
Ni 4.627998848350223 1.1889664470137231 0.6328081568092582 -1.0293120971550853 -0.20969814539321305 -1.9049262184316613
Ni 5.9912098996866145 3.676618498938797 1.3448505279485325 -0.13032459125989168 0.8009071193809884 -0.5011131483409434
Ni 2.907326443438405 1.9956547725680778 12.779130544787291 0.3047597996857526 0.16493729623775466 -0.2234921138535119
Ni 1.9573520383871577 0.3998746250830785 11.130365719154847 0.7518355586653181 -0.3284448020075182 1.5779142922159275
Ni 8.204739799912643 2.456147798696333 7.419228511283479 -0.20080572799958965 -0.6489829475734501 -0.11889320949449847
Ni 3.5474566104813303 2.322879072765714 7.596545844003854 1.166516960474578 0.13014872780365971 0.2244310807280135
Ni 1.23745302817199 3.0379127755239472 6.8865171181751785 -0.6096687233548597 -0.8201484841091037 0.3100727272582337
Ni 2.801011150833842 8.980460351007272 2.2210609521869324 -1.1879761587896185 0.019181715134773417 -0.025199382083763055
Ni 7.759249680048926 4.291376920060866 10.835634458055052 -1.5937579441164036 1.1874264569337358 -3.032888715671809
Ni 3.5198187042430815 6.866715501818136 6.445632391054441 0.16350287778407324 -0.44175280410475537 -0.32027435038158386
Ni 1.625586167920787 8.628900263891019 4.479622695291446 -0.8066692186757463 0.5738779389084956 1.118327545253545
Ni 5.2735678001548925 4.595495634655039 5.689858675569846 -0.6818578439245999 0.41777186780912573 1.6073531663023348
Ni 4.642400528408106 6.128298724437983 1.763592556359851 -1.5420299196144927 0.13227605855930769 0.34563236953039833
Ni 3.99648934014734 8.43444520939078 4.426026616340004 -0.32316889832055956 0.4988500633383796 -0.5301349894945901
Ni 8.727547609952238 6.234318028756193 3.436834688310326 -0.2337148200227846 -0.12046466774667638 -0.2661605992563158
Ni 1.7599186017554893 5.796338611658693 0.7283846243995618 0.01865592453829045 -0.1393692179606632 -0.2684805056387441
Ni 4.408347790974152 4.715500385503447 8.191747764068518 0.7611758622296375 -0.31900808207465065 0.23120413778578888
Ni 4.871754451796199 8.600004407435767 12.03888511477551 -0.7729281176695592 1.3192469160128635 -1.9050763708562803
P 8.10921883012603 0.2612790349614923 2.945481183476148 -1.1397988277534434 1.8379240413794995 1.49674070875939
Ni 7.372134000034469 2.2317701783725563 13.135648435699963 -0.6127789868490673 1.1241431234940575 -0.5337165361982614
P 0.14367733901291613 8.349922054368987 10.906179566253805 0.09691824788530407 -0.9936254423867533 0.402566620823597
Ni 6.2997684385760895 -0.0321054794353957 9.79577118532846 -0.5596350558362361 -1.1924930728233658 0.5787229257056227
P 3.735335175244153 6.302571077662498 4.35474986209592 0.26193550543137467 -1.2804553970669623 -0.7591444336219054
P 5.294888206406286 3.5688695130722095 12.613157888104805 -0.48291102351061993 -0.16343551488124758 0.8792586600076986
P 1.357032295858765 3.473182049874523 0.3086575099727236 0.081514254625408 1.669659737651041 -1.076912472641868
Ni 2.7793392584924037 4.622763555535347 6.544498953440241 1.018120085094008 -0.03922937781426793 -0.8274987538265877
