# total energy = -381168.70157570986 ev
CRYSTAL
PRIMVEC
9.26652168259604 0.00000000000000 0.00000000000000
0.00000000000000 9.26652168259604 0.00000000000000
0.00000000000000 0.00000000000000 13.56249115684085
PRIMCOORD
 96 1
Ni 8.78404160164683 0.13041331811946288 0.8480377689444208 0.8485080090884032 0.03257639127412454 -0.5827325610856481
Ni 7.449171368368707 7.457501971269841 4.042096559585154 -2.31532210549169 -0.3777361920434785 -0.8665065025483529
Ni 2.775276880839909 3.6220238233281252 0.8077978989798228 1.5257005863268498 0.44960649582121925 -0.4932818252219827
Ni 1.8675654928716485 1.6449095123283295 4.303066826908582 0.9603072878505978 0.06882431786256535 -1.248063353889502
Ni 8.166557669589038 6.648488304658617 1.4036231901468241 1.1486051131911639 0.946993344350511 0.5422947647855757
Ni 9.199191034987983 8.723735079199022 12.176051826296485 -1.513294242242697 -1.8761375763347432 0.15823777273039202
Ni 2.835907731543044 1.6666673050000338 8.75153649724572 2.6963917327837756 1.3765737747587905 -2.1438063847054694
Ni 3.9357419114459073 4.67041027541442 12.360651129359642 1.104679358342491 -1.3481494579798268 -0.1325007729756041
Ni 8.20626471456274 1.879778768315135 2.4937349356071183 -0.09060079030770848 0.013247351928209444 0.1983598375622584
Ni 8.308641244987353 6.5352143448549915 7.3010552874212955 0.8215636192890754 -0.8035401861284613 -0.46075145669444517
Ni 1.8298600165593977 1.505244499062602 10.626374356253976 -0.5466831236612585 0.3985400161627072 0.7048856722783409
Ni 4.868602638984442 3.987903161424197 6.054133610466488 0.19979682711910104 0.09703240486566514 0.3284448020075182
Ni 6.941690313996522 9.002573980086696 1.9658962599740861 -0.542061308618531 -0.12876624563383632 0.7258707591704402
Ni 0.3600970286296561 9.208300025701902 9.83121877266683 0.09599547896071854 -1.3355147999349515 -0.9249507627281748
Ni 1.254464625521573 7.746246783727383 0.9182835624397881 -1.3629117038906657 -0.7296147995939047 -0.5823610366788422
Ni 2.6761992320980585 4.017046371795794 10.171935798062414 -0.5734675908439543 -0.47903842792909107 -0.07491448992070324
Ni 1.0571525815017255 1.968505712451238 1.2183835704424353 -0.5667071321916691 1.6681199039677463 -1.8410785278480808
Ni 6.2967589450164185 7.792959319016165 6.147755131301566 -1.0401058453364795 -1.2757369085453707 0.38372351997516496
Ni 8.887381850315844 5.399036867312255 3.3136830976836777 -1.0112752942580325 -2.0749684399961494 -0.35748438377297787
Ni 5.005923222290229 1.7138987654973412 6.69253300838429 -0.09503157238555246 0.13331966933247363 -0.30091600045963013
Ni 6.488242346961947 3.968489798712433 12.185816886738325 0.24103140828885586 1.2933556500683985 1.6107495935783938
Ni 2.96960510491074 8.259176552789075 2.2161785213062264 1.3733580960349703 0.48836227643317826 -0.8649021341757104
Ni 6.397152439822742 7.134165233751194 8.642521430760626 -0.11603928498547113 -0.17105549332035058 -0.3578150276395192
Ni 5.295520554733204 1.0420296182818698 8.874344781103826 0.6563036496045794 -0.17877265945895018 0.12538601630769375
P 0.5960337879025691 8.263466952280982 7.775362194534237 -0.5077003146401579 -1.223019780657313 1.3190633392471476
Ni 3.2770126918320015 6.389414894302778 10.704562485396242 2.6452596899946506 0.2963700329601605 0.006325685107711686
P 6.9512904303542244 5.81888442709487 13.290820859031113 -1.4559624984007635 -0.7642848401722644 0.430539194777123
Ni 8.714292493708193 2.1679583229562485 10.051569242640849 -0.7614851659399402 -1.32849774518717 0.14518016821548546
P 4.984017165273232 4.341115164519323 10.429107718189874 -0.15812618685319219 0.7934748314726593 0.5902795201949705
P 4.280873507722581 6.848756369062738 3.4148864864761617 -1.1103620105495653 0.5075139096609648 -0.6082319909083331
P 2.7037949333656637 2.5151007544159545 12.362820422061704 0.6353956958073186 0.01640286683805562 0.13048734209000107
Ni 4.673653557967698 8.227920575497057 10.22716241337963 0.6495915276917265 0.6505268950218022 0.22602105092295266
Ni 6.298315720641992 2.5891958609759835 10.488593226825623 0.8225756054933575 -2.0534974146065665 -1.1295259850725259
Ni 6.822782309071773 4.601356156594343 9.21743496267625 0.18329214459585855 1.329995155668303 0.6599232486350377
Ni 8.97006702238127 6.253502822277272 12.761124245821133 0.8330240545201912 -0.22513350611167676 -0.5187385747321905
Ni 1.7667550045941902 6.558213851418523 8.85594054259221 -1.22783622820935 -0.5739198478900246 -0.6799272025607903
Ni 8.920732061485122 4.161075916726076 10.88621781455318 -0.46160789115746953 0.6428917470740476 0.0742352044654915
Ni 3.330026461795724 1.8242352379598556 2.0754005987986455 -0.24917949131728698 -0.711374365326478 0.9523481809045213
Ni 2.0203426341741997 6.121158361060372 3.3403873595752103 1.1020046397238052 0.02396036747033938 -0.5193129591784218
Ni 7.2623026941704145 8.86758856021927 10.056343354559273 -1.2353415354474597 -0.6116312463978693 2.6063077342114855
Ni 3.843150827810613 9.17769270492054 5.815257510548148 1.6732870499909824 0.5201575665669043 -0.9402866217542968
Ni 2.341455406513455 8.443441334423165 4.391182180620353 -0.8857303837749714 -0.019246506934437822 -0.8254339008777589
Ni 7.9952474851248985 4.057504005017541 1.0545486889375224 0.6042223555283077 0.20281195979634103 -1.1790788562999888
Ni 4.0938287696142535 6.429409201445485 8.218232427184336 1.1759372253472136 1.2995923750067295 0.49886986083272145
Ni 1.8097053321211705 0.33146903685795104 6.729992921874649 -1.5920795279727162 0.6674007879590055 -0.3392768596260157
Ni 0.46583730638809684 3.9102589770987235 6.735486115867745 -0.5053215299953361 0.5819730572118041 -0.5239126627339622
Ni 7.029231143370282 1.834567409522441 0.3162256088575448 1.0168247633213519 -0.30405480319892797 -0.4617742415320047
Ni 2.632887510229428 8.727506553482405 8.951854600866376 0.40192050259916584 -0.5952522908192136 -0.2893871738844242
Ni 5.984690297740018 5.644238294861645 3.6563257062637504 0.04353571849910566 -0.7239840836706887 -0.27696823139478105
Ni 0.2541992200043419 7.432695492998055 3.9883488811122327 2.079307433691135 -0.3038108055089219 0.16740324127974396
Ni 9.606602922809174 1.538344514149198 12.303430358598238 -0.9052296301501637 2.3852635676778338 1.3331915511184136
Ni 4.125242277773145 1.6775832674222093 10.777216647850457 0.17849266632468613 -0.058683115663505384 0.9737089059684844
Ni 2.6373817731961124 2.2947984703541575 6.255482151286929 1.2495093423074093 2.6546622142554734 1.1682719954924718
Ni 1.3265210973338273 4.0237275338555465 12.652786562063595 -1.3781912557575555 0.5337571596282098 -0.9770629100423819
Ni 2.493370761308993 7.50755972084929 6.486722637422696 -0.8240874141521937 -2.573918776357819 1.3688432388837521
Ni 2.5630179375102404 0.4109285327611018 13.226629810736636 -3.208708720260338 1.485578007274351 3.1687859159234715
P 4.887802871699847 8.67003558663832 7.554538205307441 0.24094579055358506 -0.911512892055714 1.6363184431864335
Ni 5.518426731359205 4.255742701195468 1.097664887200799 -0.023000574660231355 0.3285486745752342 -0.10155317555415413
P 8.465143527965383 1.8263109387939536 6.54939490283008 -0.30986575345375017 0.5225229814752872 -1.3669619627006393
Ni 1.5731588357282413 3.6111171274275304 2.769012712251292 -0.0615367830622166 -0.06897806983161024 0.0009729054362305824
P 1.1493266716658839 9.631344535429893 2.4001541874669954 0.35270521721677967 -1.8541955248460131 1.3039395962318316
P 0.5162870298304137 5.685993241104703 5.2914738647588715 -0.23840939728497654 -0.1444810852659318 0.5621007437679094
P 4.603802518291672 1.6109013781268153 4.501648384384999 -0.6736051169975045 0.562425988317812 -0.11040805484162275
Ni 6.748548204688032 3.0109337911610816 7.511355288088784 1.0825897255323031 -0.7949316185238439 -0.4196955671943998
Ni 1.871401832806097 8.332150410237828 11.39517780576966 2.3950936663943785 -1.4199320871397676 -0.7135783149563323
Ni 2.469907928666422 6.176201499250288 13.169639776362596 -2.105387161497322 1.370560221574859 -1.5361711468408705
Ni 6.635515174445506 2.4331939701633165 4.788210004358105 -0.2643921945019833 0.22021755686729816 -0.039057628123094025
Ni 4.070940461309692 6.0758914031381925 5.537402714252354 0.8007250852771695 1.1755333050405754 -1.6826980588922373
Ni 9.29774975852131 0.2808960686786095 4.376751426562582 0.16889422400297363 2.531734172569969 -1.5711438062613134
Ni 8.020647020777854 0.5201456094166564 8.26667687535657 -0.3163657593557971 1.0100218814669057 -1.3342768137627925
Ni 1.252120195561632 5.8435889736292665 11.023524498076595 -0.7792525172256902 0.047705790716395254 0.9234546377986225
Ni 4.190552721874581 3.656439684479194 3.850173924516697 -0.014491508747955685 -0.2954765746116137 -1.2691371438406658
Ni 4.873096901951127 0.4857177017875323 0.9091819849431323 -0.09350999353470348 -2.7753608523898268 -0.5208695050322643
Ni 5.7097062698299546 2.0842260339521936 2.3687564323947905 0.17220194821996795 0.008506494809114383 0.8703284473976043
Ni 5.05763967923264 9.054577699198111 3.4729199311802006 -0.8031779176930361 -1.0523306695374457 -0.49631546984198394
Ni 4.724739891442614 7.126121893019065 12.99646053449561 -0.18347726402347111 0.34684387333999617 -0.6426528915903642
Ni 2.118799425970136 4.292141597964826 4.776668551729227 0.1718579346169879 -0.2583704137879357 2.2155537897521005
Ni 0.8574136354798684 5.083215278795632 1.1577351133482965 0.5455022159792798 1.1249005704853723 0.1095253951263533
Ni 5.93943260633942 6.874776761661608 1.4708796037802272 -1.666256882617079 0.004595075569850151 0.5262587943686357
Ni 6.94365481657165 0.26581295150155104 4.708218610116217 -0.491542988154005 0.5295060976613397 -0.7199870466961535
Ni -0.1843704199801104 3.0362221285550683 4.368003830190313 0.5344310457667828 -0.378838938189354 0.7833315723910703
Ni 3.556333451841876 5.798961405696163 1.4109733950647099 1.297847881511797 0.1254261255170098 1.917006546634963
Ni 6.396809578524252 6.477882375834619 11.118489664540888 -0.41050258784122207 -0.7631445559202341 -0.22065875816977482
Ni 4.436958797229476 3.7140589156685713 8.430349592733819 0.21111765144855899 -0.5028406725550114 0.004613844622927538
Ni 2.7709216156969356 5.054739257977852 7.069733255895617 -1.8261738428221064 -1.816397737271949 0.3143348449686973
Ni 8.417319010086906 8.72289182573517 6.171096572511429 0.6330400510909484 -0.6450111074098955 1.4623221220702043
Ni 8.550831053022986 6.341303114255296 10.018015167996792 -0.46469475761290935 1.0249579339514476 -0.957034530636597
Ni 4.903138964916062 2.2931212299480337 13.195259855229175 -1.6407769931784193 1.2489262161104298 -1.0409368258782075
P 7.131598407273314 0.701415451275833 12.009057060932523 0.9854696460488384 1.2561684994951399 -0.5276801001961944
Ni 7.339187023726263 4.461088819425863 5.199669508805786 0.9551956776556454 2.1146127938606485 1.0074309808112778
P 0.7618943310250434 4.486553220729885 8.850583566466353 0.0686988480282946 -0.013853103833008399 0.7237030620951601
Ni 0.7625281611011697 2.067064435984563 8.127661445253656 -0.8162962002425489 0.3491136432107794 0.15538539088326142
P 7.013987715369876 3.8298348362990122 2.8670969898796805 -0.27972316843209893 -0.31047664756487175 1.1194719432706335
P 4.057670802405995 9.125225659730084 12.185870632563494 3.3391405265220557 -1.7391407152609983 -2.0130781302492555
P 6.428028489729948 5.214345825685449 7.047666888055273 -0.4672506912655437 0.780168087061424 0.7013313792681793
Ni 7.13610193676158 8.002438305871594 12.91150506464289 -0.7517383709658214 0.3527332422412377 0.8497562796732074
