# total energy = -340873.8625622859 ev
CRYSTAL
PRIMVEC
9.23788218234306 0.00000000000000 0.00000000000000

0.00000000000000 9.23788218234306 0.00000000000000

0.00000000000000 0.00000000000000 13.52057435330179

PRIMCOORD
 96 1
Ni 0.8364994512706522 0.1562735543214886 0.31586350827419235 -1.5311533819113048 0.4338284070513561 0.07543128165612169
Ni 7.622388893891777 3.8428572874361113 4.21760767439883 0.19521743527853475 -1.0733563798594932 0.7249330778475193
Ni 5.709731619114777 0.990476468131639 5.4133535753033195 -0.4659725958840685 0.3738327432240142 -1.8666653751782498
Ni 7.622656792469229 5.10860416284059 7.818028758487528 0.18021324856021867 -0.7976567307644907 -0.37042448887341367
Ni 0.18332207276215154 1.9494702344716868 3.2733307778428737 -0.10081346917465218 1.3808549186326478 -0.5790003477367254
Ni 3.380796906505415 4.287245600136962 10.108183766328427 -0.9267258523507265 0.6696556454314531 0.26931277173205237
Ni 7.418915305376052 8.439045374667025 1.881131154940098 0.2065192334445992 -0.6263022181464827 -0.3376542364209282
Ni 4.867717152301408 1.8314008648712385 7.8237479312220275 -1.803714485377326 0.051976135956975 -0.07197031969071477
Ni 6.431247153366668 2.876593307976937 6.592361357846253 1.5780014526130952 2.1958537402200116 -0.794928018979418
Ni 2.559419868037825 2.6196600964365824 8.40833680738545 1.0026369018567443 0.4640154721576977 0.1044423241764911
Ni 3.427873153081104 2.4585237210402426 5.550966608022986 1.513092410644536 -0.8617095953803418 -0.2669617550013725
Ni 3.0452862708338175 2.7544685081867857 1.4021515931610158 -0.5726535795830912 -0.9235826787360545 -2.041349466390123
Ni 5.91504354614474 5.433352666004205 3.9867169759513965 -0.2519143737499468 0.17315634171343727 0.22630541493259088
Ni 4.811319882806787 4.093222364887904 2.1046934416119245 0.08576917324702003 -0.56512513241653 0.1542880440540246
Ni 5.1956804383944455 9.40111535570678 9.446568506418389 0.7605855369438062 -1.6610478276123137 0.1297679474254733
Ni 5.704909444720642 6.930323727395635 8.014198877508994 -0.5045388861930408 1.1485382645089703 -0.3028548693535559
Ni 0.8694712996375968 6.097805803258837 6.66610275076039 -1.038868887605585 -0.7754159170884193 -0.34996030748179086
Ni 2.1087590334718067 7.485705192099411 13.515057366090092 -0.8100959849691081 -2.1294429168949454 0.17363456690143644
Ni 2.125128560342317 4.9595694128394925 1.5753766609178241 -0.33282081958802684 0.12303731356985906 -0.6815295140509037
Ni 1.169035488944335 2.0129621973277922 10.21791687122913 -0.5825052755661905 1.042611642477469 1.2264298347801266
Ni 8.181225326456484 1.802199919928979 0.926784967024742 0.3384623341445203 0.04236586656072058 0.014078332469937045
Ni 2.347789229732788 3.217073924154367 3.4938648868012954 -0.4467129763235081 -0.07138127995646416 0.8888457894755015
Ni 2.394015591166216 7.734472115968472 7.008646185984198 -1.0099424343792218 0.14661278689695395 0.8399984289554951
Ni 7.369233976081692 5.02174959645428 11.59256728973241 -0.6186909814581281 -0.008351457288488844 1.4806893117234823
P 3.7495639173089748 5.6761888696414 0.4579975604354082 1.3268823210709342 0.183515059239942 0.6253681363679875
P 6.0688450432480865 9.183637138107706 7.2708782466289135 -0.2877074721891561 -1.0485094960191426 1.1919379716508438
P 2.7375077568694848 0.8623073221612533 6.9077287918580605 -0.5852378440060049 0.5783208051711975 1.2345768893672933
P 8.649290330674896 2.9241961138255492 7.760619940915977 -1.057805833719404 0.1712598960216728 -0.3652357455836226
P 0.6119136072753198 3.2308845577161125 0.9097327606758281 -0.7122673094543928 0.7351151605868437 1.4860768012876406
P 8.461650471874778 7.895303641259436 13.29035881993459 0.09299320179928501 -0.1779686755004161 -0.5311775718264917
P 2.5795214992287 4.871634014261394 7.873286997133878 0.6059691630160855 0.405957648783017 -0.6729343161827249
P 2.0659784020173295 0.8778020216081535 2.1577484454057823 -0.007136611044781257 0.7317724693668559 -0.7338298661165168
Ni 0.6600623719490151 4.555171891234826 8.81736158407445 0.22791106885681395 -1.7765505233680243 0.005193885496113636
Ni 0.33830232360628604 8.222029051167006 5.00138191426235 -0.8041832190290988 -0.6204694135147896 2.6304434509174244
Ni 3.9230143893861222 8.770980950011937 5.8487303341316075 3.1940387769529894 1.2997191303925808 0.7730448457530814
Ni 1.936454058760316 0.3949841198659239 4.248002153693047 2.27927601050141 2.45950108613617 1.2846146706509747
Ni 7.851839406538357 0.9015128932890447 6.384023100679281 1.7861780191554593 -0.6515093135397296 -0.3696097062816021
Ni 0.424350422895645 0.8984810204228475 8.25221475432845 -0.33111052176513944 0.3312622168516553 -0.4434571883903718
Ni 7.062674862538866 0.4192991490283791 12.705959320351782 1.3734743098978603 0.04690283519912568 0.9834150775126548
Ni 2.7712906912743698 7.4746566852500145 4.6164245914987125 -0.7787156708856137 -2.0350906299646048 -0.19068046664012966
Ni 3.1116881665139693 0.31062932434370066 -0.011713634352035726 1.0492057507552188 1.727281759039883 0.935608499552337
Ni 7.494610510329192 7.4333910664404375 6.542172868831131 0.8967632445503653 -0.3345789399297141 -0.06632931935485352
Ni 9.442685824621734 6.655311980818266 1.4621017520655673 -0.6512267493023043 0.7976857842302133 -0.5271039159777503
Ni 7.173825058535469 3.905887356193162 1.7915708129215246 0.3224515605385608 0.6589403158964781 -0.776474954480553
Ni 2.5823298153509544 4.610562231593506 5.563472852648999 -2.067522011020433 -1.326146214235858 0.8222922699249839
Ni 5.157287800880991 5.791061932076388 12.126278530884917 -1.040840409509659 -0.4505308074077016 0.05272818363165113
Ni 6.693196534822761 1.7292206522782834 2.7698791429076577 -0.2465050298089174 -0.6169426313084536 0.9760905188267834
Ni 2.563013404128473 9.175415423144527 8.978675326804826 1.0152041969987935 0.383791654208939 0.0016521908914423158
Ni 4.864031237390948 0.08047303751376468 11.948496415946833 -0.5227991179548094 0.558918746495502 -0.9467884274285566
Ni 4.953629454725644 6.572226470280246 2.012942797775632 1.0469552641581452 0.5300671123711321 1.2393375439807301
Ni 3.4828570266326158 6.586055579605954 8.966709498274707 0.10562657429257938 0.20499122683584697 0.09342540424069716
Ni 2.8644177795258465 7.965816394421178 2.1805031963016295 0.29643302498761204 0.389170144912033 0.4587963898506034
Ni 4.099790498976466 5.991967389401366 6.121291270619389 0.8301194792788865 2.2308821925790547 0.025786364935484623
Ni 8.440366391790322 6.283542658370849 4.413940380143164 -0.6078231855056888 -0.6747335741749927 0.5186064200297005
Ni 4.528945544290481 7.695118738728983 13.52273774116918 0.4843243589183788 -0.29881900872128536 -0.08629342118160623
Ni 4.084363236068028 2.8822930811592764 12.29686710712432 -0.15405921587267016 1.7636186457977046 1.143964786205675
P 8.271266962126274 5.533232645983865 9.845451936268535 0.4092324628795469 2.1338934964671314 -0.4780650082722283
P 5.112160747403314 3.2243810888014175 9.614683177863252 1.2148925235644883 -0.56456128949326 -0.5848526927524444
P 8.040098203431208 0.7929252857539981 10.657200330347225 -0.7242023703290817 0.5784023091414102 -0.0872681263900497
P 0.9449059963188692 4.330386508988703 11.567689673557304 -0.8509659837105924 -1.3788985662372253 -0.2994939233011229
P 5.268003816424483 2.9290460018656272 4.235712075505392 0.3106759080598714 0.4689327069536569 -0.32409218146577734
P 2.046966840900224 0.6422101650205378 11.639267554511468 0.12721355643473578 -1.4444876649919445 -0.5797115148711371
P 0.1949470234471687 8.17304056302123 7.464411874132973 -0.29899744328067857 -0.8585044581794827 -0.6565985551371789
P 5.559893173381322 -0.014019409694518467 1.1689033872320054 -0.33634348802930464 -0.40790911608243297 -0.01645711711475875
Ni 0.9851184965826006 6.8812982877219335 9.08898949448214 -0.08989810781372905 -0.3711955627114833 0.09628318540446643
Ni 5.036373163630363 4.643670800613772 7.758484142601947 -0.9692560124034532 -1.6753174501574504 0.40005336748344006
Ni 9.465872908394296 4.708742441288645 2.883897701259394 -0.15604642150602802 -1.0510533454869189 -0.13458542341877466
Ni 2.503687726045844 7.602684491626089 11.259839104113519 1.59225924808369 1.4886311922783781 -1.385218337807666
Ni 6.817575377816301 6.36168590204898 0.25093874992281834 0.5687676142651237 0.3316028880205257 0.7594593937591629
Ni 3.4003350268954433 5.427126333548943 3.5631711725763053 0.07973556545843043 0.5285442479687026 -0.23089534829611846
Ni -0.44115967294845587 4.92211903928811 13.35232376089922 1.146628191970451 -0.7166924351052818 1.1722188959553617
Ni 0.4366820715522164 8.779710748484076 2.7778828438560836 -0.8022181248829281 -0.39976617526032443 -1.7763720888086312
Ni 1.7801952850499971 2.3945421504391393 12.907834755284776 -0.32203041384074216 0.44819367463409265 -1.4593722954132609
Ni 8.488578897849687 2.700787175994609 12.082269261126955 0.6338599758890825 -0.2694996909318778 1.396141669588389
Ni 5.351772930229104 1.8956872855777185 0.42787652244783114 0.6920093305363049 1.2352916560461307 0.1666447658471646
Ni 7.59160827113075 8.164513997952675 8.898890511498653 0.6252010146625039 0.4489608918174203 0.5523950864443713
Ni 6.72450371685671 7.738887823555438 11.397627656590824 0.7829726463897547 -0.9581663302481951 -0.21197897100758978
Ni 1.1850262626536205 2.4305883659293936 6.623350756740054 -0.8974332740341964 0.5800727548652979 -1.8821899531764101
Ni 6.083302328548509 2.1220431077606294 11.296520885884075 0.8463935338485616 0.4476203186291259 -0.8627817453985981
Ni 4.1613609823805024 1.243945473929081 2.8290588624549855 0.8046550164591948 -0.8070235166913715 0.7914778556472886
Ni 5.874775618589122 5.329250973959181 9.847750321305433 -0.2508561076887615 0.42041341919703085 -0.08152171082457574
Ni 0.5581897808260304 8.820893226355823 10.145175940933548 -0.6585669917174594 0.4820679587840343 1.9765463538718089
Ni 8.016597031671289 3.2764919810568065 9.978833095252659 -0.0923231723154539 0.4492614537769747 -1.6209046797345246
Ni 6.781113457636896 8.222204570924648 4.454853111861063 -1.0399672628760863 -0.8188981566417703 -0.9276352515388733
Ni 3.6802520888047763 1.7573500029107352 10.45902928608865 -0.5683279556245437 -0.8617317068675289 -0.8196903135257625
Ni 7.159127588303537 1.523465306913227 8.611578525063448 -0.1029531412254743 -0.651510084870678 0.9255806830026898
Ni 2.664103546647658 5.370165553253475 12.230319252908869 -0.13963944090291436 -0.555683784497972 -0.42108267734991356
Ni 0.4748936465788414 6.591783066434236 11.643053238547322 -1.5457955573045121 -0.31819149971062616 0.19985441982991387
P 6.266581907053547 5.518054805888918 6.124752704997708 0.4560167702229372 0.08355571053546901 0.07775093092823383
P 4.595947902299405 8.37506380406592 3.791033693310334 0.2132825203103617 -0.10002953982077613 -0.6367586375931164
P 7.49585762439664 6.036798830655648 2.470858141061408 -0.8894332865478553 0.04195551849617936 -0.2952130365375819
P 1.236250318238824 6.733529127552246 3.446232519730344 -0.4280413680559338 -0.6988566924754416 -0.6868897499215525
P 9.88093094580515 3.7074391754751557 4.888498691606091 -0.47616316326382513 0.04778729468660802 -0.5576365373489687
P 4.727606196294052 7.507728302742355 10.615462655768413 -0.39978365876182115 -0.4420749633308645 -0.330051998593638
P 6.32568587596863 3.864861922315093 13.237953239244005 -0.1581094746826438 -0.37951590965172055 -0.3992319000234092
P 8.176744953695652 0.5143264696033679 4.189079247264795 -0.24868429684842333 0.584590183119677 -0.18576117496164135
