# total energy = -340862.53990954114 ev
CRYSTAL
PRIMVEC
9.36551464581504 0.00000000000000 0.00000000000000

0.00000000000000 9.36551464581504 0.00000000000000

0.00000000000000 0.00000000000000 13.70737736488096

PRIMCOORD
 96 1
Ni 8.977979125858658 8.481166664323366 3.0681903998815363 0.792462588158061 0.07913804108374758 -0.6338604901097149
Ni 0.2705921986853602 4.29067010510437 8.196820270659765 1.5139935823025668 1.9372802092823347 0.3991694222165899
Ni 8.993394763155528 0.6976737200664312 13.384610225081293 -0.8728075050657161 -2.5980575783875515 -2.6074004530550323
Ni 6.062962656447382 6.853093674787468 11.057262012454805 -0.15177581915513216 0.978598887070934 -0.35858147349189856
Ni 8.486533104281511 1.6051836714596206 5.626919273991357 -1.5844034994846972 -1.9058330465166466 1.4856713383191058
Ni 0.8723902075903129 6.603315396107312 2.348101256785743 0.08777463371282303 -0.7904846384960839 -0.6743545935690193
Ni 2.4055886594927 3.256286461793213 7.40279226162756 0.7560236286047366 0.26563917953520705 -0.43163936981983725
Ni 7.540578651345233 8.22195731227872 9.194483603695364 -2.777239300359462 -1.091253057634256 1.0231707601440378
Ni 3.374357506387166 2.198610783271048 1.3686510403061738 0.5424359183491303 0.8073922128846999 1.581102460135922
Ni 5.483209196187249 4.557830779181241 2.129632830503623 0.2003935801628355 -1.121391014670217 -1.1525111331137894
Ni 5.885167724221507 5.088546404151937 6.896976730752363 -0.2517256547779084 0.5127584458893557 0.24271599508013034
Ni 3.5567509063607714 5.498840240323627 2.8846075795332635 -1.814449612406643 -0.20837402726515084 0.3870191600073012
Ni 3.0451128349585606 8.202448945031222 2.161982255040148 -2.27746363988302 0.13875215320195455 0.2752003408610809
Ni 8.535542843026665 5.901988188732552 4.062743445464954 1.51481556398323 0.19202592492443057 -1.0169438053977196
Ni 2.7501459475558034 4.546489140805476 12.888937546692432 0.14410004777742927 -0.5086781051723949 -0.6087433833271129
Ni 1.842646298228851 2.541126389116218 9.53110923730724 -0.08062311026970631 -0.7179990697318474 0.6746474422190897
Ni 3.4650718823637683 5.9269847476300885 7.8977793843359025 -0.2844038617372199 -1.1666321458962037 0.6193442987714108
Ni 6.550503258369126 0.841439054407629 10.579601092054611 0.48560631095459594 -0.5375739622711387 0.9363296939890777
Ni 0.2328323162713124 4.069859363580484 11.045706840342486 1.846670934334194 -0.2687604987730081 1.069994405365796
Ni 6.9011200344827 8.958611241332578 3.808306759742596 -0.03971454498080257 1.321883325194446 2.3226512921632514
Ni 2.79651461113831 3.330302124950666 4.050296676347371 -0.8512999700112437 0.3025442800916725 -1.0887218065719702
Ni -0.02432317838621053 0.1070403413082582 9.772606527835578 2.794052772372375 0.6893178997470709 0.18357496594359998
Ni 7.490576168035394 3.7690671259962847 4.875426623349916 -0.07770413685069844 0.09578516272212535 -1.0116738152480318
Ni 6.078490679921386 3.4968865360074317 11.571767804476883 0.9324606979519747 0.4322857451545845 0.21572378276200266
P 1.6105875734768105 2.2339468704649073 5.679364283550903 1.1164498686148578 1.3433934313520801 0.6667659825884839
P 8.090708988415813 2.3552396521367 11.747647488934103 -0.3395712509379829 0.8496529213261237 0.5006953440772345
P 1.540055881810509 5.423944218778624 9.76313424620614 -0.25403630518895604 -0.09506679649886209 -0.21290739635913009
P 4.366446485036922 6.875683296391388 1.449445463047755 0.8769590653402445 -0.7219719383366663 -0.40198066641313995
P 5.518479724777781 1.7119880017958975 1.419083400743548 -0.5512074938941732 1.1970470107426352 -0.7347552061442636
P 4.979297674462996 5.394676985149998 12.120981257652348 -0.7115319739502649 -2.0532891552505026 -0.03992151878528608
P 8.759107045890334 8.751811309891387 5.225732464373419 -0.7470157686791715 0.2920222975144261 -1.1712560178214604
P 7.714421336341898 1.0052194303449034 8.80921067675959 0.48824966211471393 -1.1470390542556246 -2.0316852038274815
Ni 6.322733939377698 4.239740435833179 9.324950843627189 -0.3477206195179947 0.9724174408505702 -0.5393827333451033
Ni 0.2166084350505537 4.221533875137482 5.735468399727637 1.7283042867671268 0.11089605022163482 0.3029903664901556
Ni 8.662361278407541 8.389028730103066 7.243074645993677 0.6676013340055857 1.0012945288962367 0.7395533988638554
Ni 7.441866125762598 0.7449527116837228 1.727924361713489 0.07873926298343213 -0.8275175228796652 -0.6542922756015054
Ni 2.902279369336098 4.979990722555322 5.651387617856365 0.21624520248311146 -0.7260911027113625 -0.1780581498904288
Ni 1.493743411316569 0.14252440363534397 5.697525889775747 -0.12448792997345658 -0.05705535025209529 0.22405441411488508
Ni 6.679101141554623 7.5823488471800085 2.2351250522218615 -1.3958218243551253 -2.1006833282637496 -1.1664092312521201
Ni 8.02984250798303 6.347749229304758 6.227947437582942 0.11220294195851643 -0.3987603597036294 0.6051795772352545
Ni 3.299601967563581 6.877631323461709 10.136948465831633 -1.279854273147854 -1.078703760214336 0.8619903598455542
Ni 5.948806397023594 1.7725454202415627 3.751517087885346 1.7840229204856695 2.0115907470704517 0.6779225134259357
Ni 6.598482790490553 8.743569656901567 6.076014437818536 -0.9454568531013267 -0.1995309750522241 0.5872841850120725
Ni 3.3403419567746298 9.060161517887844 11.737695692948892 -0.2870731810392669 0.36947832291006044 -0.6941274053205723
Ni 4.576898967234964 2.0643280326255256 10.368150245983028 -2.2422582956264803 0.3121663765624689 -0.7682919044491284
Ni 3.4540393059751215 4.436004163168063 9.998160902585992 0.8481645097060554 -0.7217163706824344 0.31981849379108795
Ni 7.8537989270174915 5.38033838205066 1.339582355590483 0.35114121516376945 1.3904705873455407 2.189993939005125
Ni 2.4593186176774795 0.6203613957130494 0.13653422039410557 -0.5879822395203615 -0.4641309146896394 -0.846263950249233
Ni 2.2568174575116617 0.9164231117913862 3.1600024141881473 -1.2911663557265636 0.863815585979751 -0.44956767216348387
Ni 1.5614654485545225 7.68288764814107 0.2625837470130917 -0.14391210013633926 0.7318076934801655 -0.5972891187435843
Ni 3.932411068945689 0.9296415993252884 7.206516359123485 -0.9027048068457809 0.2816561237887536 0.6239738271236221
Ni 0.33022524082409893 2.368941400232278 4.024499365937754 1.6264407790614055 0.476890785458469 -1.820260305551149
Ni 5.9236787209193995 2.0456812927360546 8.510102358729448 -0.6403581820189165 0.3133927927704022 -1.7584445577959331
Ni 5.893371915152284 6.318847250751815 0.15357102829613303 0.5926297655947019 0.24294379482022033 -0.1587386236262105
Ni 0.02631147717000495 7.065456721996787 9.367142487626218 2.240597620094605 -1.1298239759289188 1.0393052038120552
Ni 7.18989631662833 3.1731206907141054 0.6414450425433744 -1.2638383573355718 -1.1133776574474374 0.6351995206361125
P 1.1540561909292697 6.211321775778929 6.285092999001116 -0.8949339046511103 -1.496024399418656 1.3099091835517052
P 4.5795868699714175 8.38582572405475 10.052374121332447 1.7953979950918306 1.2897427359061593 1.099706844828564
P 1.079900045050399 8.795773036180275 11.631107706003599 -0.21325140996211017 -0.18151551231140994 0.8413125197812283
P 6.742767910900994 9.297146503404255 13.210512798083123 2.089433980602176 -0.26968763857296785 -1.0260532238981555
P 4.809004519560811 7.304970396498711 7.054392302857952 1.729498564185544 0.6447755943603218 -0.6309721128183262
P 6.6140014484497955 5.598133427821453 3.519272925941034 -1.3618842910674158 0.23358497931313965 0.3752414506460828
P 3.171481725630902 8.810561183988149 4.36696533455469 0.7072384887812335 -1.3500515600985459 0.3218671487900005
P 0.8165811051285561 0.28514246241829955 1.6112881139809452 0.01576523325405672 -0.657782548142951 -0.6195075638221524
Ni 0.2398367847611845 4.119412302181785 2.4587332730049067 -0.2627549160088765 0.9577860640906407 0.8347217539375883
Ni 7.594317975044772 4.898173585601823 12.93424041469512 -0.3289225129748851 0.529270841722082 -2.9177804271410395
Ni 1.5300722430751115 8.136562548686456 7.8644437710950275 0.9874082578324479 -0.5001065614533 -0.04525450096242529
Ni 4.744860108961621 3.4972892531421613 13.665487632077358 0.6599222201937732 0.39561255810326706 -0.07202097042299209
Ni 5.520043765742894 8.996831907072876 8.35460578059842 0.21073532840847578 0.15528023276396483 -1.0371195090146461
Ni 3.845958002185414 1.4459043619165601 4.855235510076329 0.3846961683010794 -0.09070826241985024 0.762116628876352
Ni 0.4677035051061295 1.6068226365428238 7.655268745110407 0.046917233376828876 -0.16031496697439487 0.14386042096279741
Ni 1.0944259584449592 7.400751515961103 4.584473795573791 -0.24589824946285394 0.46409774745885873 -1.4252005346275585
Ni 4.810727774276865 0.15819384638224196 2.8104645453750585 -0.45486311623446823 -0.7234063567903477 -0.9133517450366658
Ni 5.18104959344792 3.934743082121218 4.529314659836459 -0.8769747490695284 0.5428745485484457 0.10232939159854636
Ni 4.8349001678754195 7.285368374103602 3.9563334033001216 0.3276557304473196 -0.06799616553431514 0.2720869920430798
Ni 3.6459012413722602 6.90991425284343 12.908511472543259 -0.21860598940580417 -0.2860948762863976 0.09114663550884948
Ni 8.47564101061428 2.831888160391214 9.479474344774532 -0.6575755743384675 -0.6497249679457971 1.4523200165521697
Ni 5.203770332258497 1.4315751243319843 12.458800057844794 -0.40386965590573676 -0.6783624291768318 1.4133760311888046
Ni 2.963155215283643 7.266787192817459 5.945040523538131 1.6951817931815452 1.8676904740086544 -0.18115401520693317
Ni 0.8422669659125155 1.718768634482978 11.624459127074651 -0.49898067537897284 -0.6310466748100035 0.37196252278449493
Ni 7.99272697298455 5.45360480402722 10.553159434229427 -0.8993268915124835 0.9945271282654162 -0.42743407348923806
Ni 8.445231184184792 7.997390999335608 0.7477932723107827 -0.20561883311751686 -0.08265119644332862 -0.41475210714619537
Ni 8.08809600979745 8.387858040757921 11.649420097016094 0.21493291142959112 -0.5712109335992938 0.5404862508219272
Ni 1.3988613812712498 6.505146070380825 11.727113597820257 -0.8820472784964293 0.035328242987648834 0.2258888962204626
Ni 7.8111015452213595 3.3321003037848085 7.28331919947386 -1.007761110457187 0.3593018965976909 -0.37362499808858235
Ni 9.305022901318392 2.3487493504072154 0.8489155448414636 1.847874724834308 0.48987691330549177 2.704992072858277
Ni 4.839564194226478 8.786407521419116 0.014498753401752924 -1.0954532117585327 -0.30563680297406715 1.7254344214184993
Ni 0.4147415191317656 4.21264600162914 13.4555455704338 0.36926697823020277 0.6213708422831364 -0.31199642664350785
P 2.794585315097511 2.389807767120144 11.634945693952721 1.835560683353645 1.151770912513655 0.30628472097071124
P 7.900504749131401 5.9599607251041355 8.361732937331663 -1.492112208848443 -0.9105132471466061 -0.17252025079133515
P -0.002842433730012281 6.295695698262225 13.517447876799169 -0.7035227304925432 -0.47024345534528045 -0.10055790152042036
P 8.00523930070546 2.5119715416647246 2.7642981769113932 -0.9099432335757489 1.3439441616492276 0.01642883497998461
P 6.338393080058358 2.2286553546248515 6.159396552288626 -1.034739953038876 -0.5175584383811603 -1.42469968373174
P 4.492215982764549 3.750738813608693 8.060006957925776 -0.3051907165755841 0.4939269150051494 0.43692478658849265
P 1.940197499981101 3.7954778776227576 1.283594371796788 1.141861109599111 0.39656952269989765 -0.30425277814234697
P 2.4657901883774413 0.40567101808558137 8.965035984458734 -0.32404564449855805 0.868762388462065 -0.5331254395814818
