# total energy = -340868.7905357107 ev
CRYSTAL
PRIMVEC
9.25236767865077 0.00000000000000 0.00000000000000
0.00000000000000 9.25236767865077 0.00000000000000
0.00000000000000 0.00000000000000 13.54177534136285
PRIMCOORD
 96 1
Ni 0.2775608527356202 2.7272556538709622 12.742526383526066 -0.46021358191310413 0.5263822073203773 0.9598074653960439
Ni 4.641080150962684 5.218187332510393 1.6885506245780268 -0.7963200142309382 -0.2341171976675258 -0.12662631647269804
Ni 4.736980941945176 1.6924893574985524 10.03539000317092 0.698815554824861 -1.8097624913436188 0.35818012428842183
Ni 4.614960717007683 2.683260645562062 7.790637921813628 -1.2277858345873887 -0.5679250637591703 0.5181449070122497
Ni 1.114771519684095 0.03964454502670382 13.063953636659862 0.5559807469131006 0.337703858711941 1.0351091634528367
Ni 4.448103518302592 7.094345440784966 0.2696528540812317 0.8040556923122992 0.7834408442754249 -0.5688470613528074
Ni 5.563411675312011 8.764656872959348 11.620414035326244 -1.4068333449742803 1.3411910243841225 2.258847824554045
Ni 1.2988288699025927 6.250335208829928 7.077798506429628 -0.39719275810619337 -0.7382801885783865 -0.7450969543899039
Ni 5.379354325093513 0.4232218023271766 7.811248496053146 -0.2743996993366565 -1.1989645394803223 0.3790243147272827
Ni 8.774344101918217 8.998584484962278 3.5274022611381284 -1.2206579652933556 0.40937593043594656 -0.7049427507685214
Ni 6.6773227248020515 1.5083394836032746 2.684562453694357 0.990518007106023 -2.1854903947078164 0.17171395283995589
Ni 6.317007770317613 7.7998569809679905 3.344331213314106 0.681920064621103 0.9415073815352754 1.0659891408611446
Ni 1.0234691554375692 3.6068967537539876 10.378416908649012 -0.09131247166275241 1.5240926184097816 0.5865447357428867
Ni 5.021148910439657 6.666275397794516 8.141003805333913 0.1291277427383131 0.8799379454629103 -0.11505095293027283
Ni 6.659474907551186 0.2861276199686824 5.03227303209892 -3.2360251486871046 -0.8997902043021472 -0.41103403486465984
Ni 0.2326618881045789 5.674995229508717 9.287720974899846 1.1410712667079639 1.4783907454972927 1.4868771857017489
Ni 3.950474175108921 4.8644138019743 13.014092627243107 0.9836747589319446 0.3635964102079867 -1.5470523125297484
Ni 0.49729995890433343 5.010018312123021 1.4270731625770778 0.617035448132576 -0.33994534644795005 0.18960368863618313
Ni 7.74410221334035 4.745585643885719 13.292322426161848 0.6670943124621802 -0.9016588820797697 1.3895676159152972
Ni 9.149472097055137 7.439838102249246 1.2160016744491169 -1.429134579574642 1.0805819510736552 1.6844854898099635
Ni 2.237166990334864 5.596414870819445 4.821332002355219 0.11586239308797466 -0.20074993506098973 0.30647858214907214
Ni 6.4308211451247175 6.528072781788198 1.5292859187895038 2.2116883932594233 0.05620251533349675 -1.6072564928234707
Ni 6.178620106957734 8.8730668650425 0.43430798927895886 0.6277710893825252 0.7138089429098997 0.4586094706507779
Ni 2.4827248285090424 3.112838824484026 5.819036089519856 -0.01841732616492312 0.7053862660638432 0.4841053009290372
P 3.5752258991921857 0.8266953510824253 11.660349104698037 1.0459422495125985 -1.665045635917797 -0.13889767764088337
P 8.441684474423324 1.0274846830098223 5.244539926130878 3.0580220204043274 1.2560985654891528 1.291845384071459
P 6.598612832965286 2.577885430077295 8.725345413169052 0.30566559932947357 -1.360344971604754 -0.08961477224535534
P 0.4951191758426283 4.232273537477834 5.409411566732271 3.136237292563489 -0.5991953346273616 0.5816917785259594
P 3.037209971084036 4.201361377065629 9.851952561586847 1.3085920074021786 0.5372996255638295 -0.04332103138513829
P 8.061097582356382 6.143766437914699 3.530205728544563 -0.6722678862433196 1.1468086834123734 -0.19484359687888378
P 8.26683323004444 5.194020148135451 7.705039642240592 -1.5161898186229372 0.0477196746734662 -1.2821734081993337
P 9.136731586762528 -0.2591366129784144 9.74365914933644 0.058030055460538764 0.9638081019150047 -1.0533421415210957
Ni 2.1466973391793585 7.082280353332852 0.8400270876696587 0.6658064468886921 -0.05286213810635412 1.528234408492297
Ni 6.402009272175418 6.055868944973678 11.967354692332131 -1.634579606118456 0.29937410989380697 1.7722794067964962
Ni 4.458318132219106 6.0768995767057765 10.455835169957927 -1.6749883489528057 -0.8691208002427483 0.5985168205030983
Ni 4.309068189205252 6.092795144376584 5.85581610151345 1.2775567353629287 -0.8279342987021094 0.4449067763527047
Ni 6.090953923208662 5.055660241878606 3.532887064697648 0.8765476888344389 0.11814527558488042 -0.14996807652243205
Ni 8.090381326057258 7.480409734517287 10.877864342091408 0.4400538191357776 -0.18787822130464418 0.5303658745584737
Ni 3.2087951296725867 7.983571993582402 6.9202945262102284 -0.41604922869106414 0.06515792475457166 1.839702730546477
Ni 1.3052685178064825 1.3037696342426461 7.0416013935997475 -1.1228035787470276 1.6874849387579198 -1.2919029767822718
Ni 4.4967894770242385 1.5380765933203737 5.789975327880018 -0.2536059025197568 1.272228638281796 -0.5949864387523365
Ni 3.464391786777398 0.25517382390192606 0.3704703532478149 -0.15118112299392672 -0.7931902103527049 0.572067368062318
Ni 2.5525061855365347 2.1432369536677855 9.290158973783 -0.7913495575995404 0.002813043968762897 0.126544298281853
Ni 0.8895402080617197 8.514250794121896 7.891672851620645 0.8116738709791893 -0.9933161386764505 3.448271000202835
Ni 3.423237255345644 4.672899043407333 7.721737390189082 -1.3482492167824844 0.8088680260992779 0.2628952982414827
Ni 7.751624388262565 0.30549097504520545 7.474382742211835 0.7808789970855197 0.9274727578190801 -0.9870051088567583
Ni 4.438027689901247 1.1240423920974532 3.364833534851791 1.4601433692513306 -0.7346269080965154 0.2989560485197819
Ni 7.988660795805304 3.769701415416114 9.91741398814548 0.29741338662301037 -0.6997226400201626 0.03604763765217663
Ni 8.1016784669921 0.42576990438569845 12.223727623085127 -0.03568485499611918 -1.5066577107627859 0.042550471767700916
Ni 0.27700015925433324 8.554424574579782 5.892162177462946 -0.21562659506250603 -0.22496252775145126 -2.249028524470778
Ni 1.48909455883303 3.6723480027081754 3.5346746221330383 -0.4804404504829404 0.5550525786718763 -0.008491325300462796
Ni 2.5688828763265987 2.5305040551982456 11.99881181720057 -0.1257948217103382 1.3712099393437158 0.07673663073110655
Ni 3.7979581463047327 3.655055327517989 3.679909962811406 1.2807911831398264 -0.07874749051354826 0.4741381624139963
Ni 7.584979994014067 7.2465931509264925 5.5321673549001655 0.14334825721306924 -0.8450480755642609 -0.4791484711443941
Ni 2.158688407690049 5.737300673452384 11.3995609440891 1.210311331951709 0.45487828574311984 -2.6851544693070597
Ni 0.5408749097206527 6.411835286649456 12.808799242730059 -0.9879846991612082 0.5819136647287785 0.8739650157089272
P 7.705353297504876 7.406159483901319 13.136876172514038 -0.9817544019807803 0.2400227645186834 0.7846901433014938
P 5.798893685084845 3.7776214421484844 12.724746108559248 1.0838292543663592 1.0641428316810253 -1.0177303058547569
P 2.393522751725423 6.884316694494317 8.79924222333972 -0.31016528697204 -0.9154356241488879 0.23117636987164703
P 3.1020598161391537 0.811571430875963 7.7627688651307185 2.639182116342003 -0.25979866159403 -0.2638478919627391
P 1.8236786788049455 4.530060991194335 13.013943664123493 -2.1014826842365935 -1.3990061356203778 1.458518689163714
P 8.793801831145055 0.8780385898011952 0.712016879897427 1.1045826848636269 -0.18492968019928152 1.4740352967420745
P 8.689916246856447 5.400736546797376 11.380467758148773 -1.0897715879927232 -1.632192079722886 -1.6728579328733642
P 2.8114707044761382 1.8704031355788566 2.484211683994897 -1.9873822681450484 0.22589043888235935 0.027989029013758247
Ni 7.095788810142736 0.2195725635505092 10.016430976561924 -0.6458513439230038 1.4878680888601086 -2.044974978957852
Ni 1.2658071696598028 8.071737805186086 11.139085513507679 0.13031867772262073 -0.25785465049378176 -2.035980745879042
Ni 7.016921628055444 2.4740183505240423 6.241999750788816 -1.00996248898388 -0.5655478217762453 0.9377569133539077
Ni 5.38136208887964 3.856756942898437 10.170048962356564 -0.5206440192850195 0.624037590482022 0.42274283866115586
Ni 3.716861143607044 8.255628612786378 9.660459083465538 -0.11255826841540614 1.915494480865811 0.4723003378743092
Ni 0.8423975442687628 7.067744883710711 3.581583201023741 0.17591642095707768 -0.33415753612157933 -0.6908446208042425
Ni 0.6495726504385901 1.4628363393628598 10.825796642983452 0.09666756532707868 -1.9167689767028602 0.7993649717048491
Ni 6.835297650536261 5.751475300735083 9.804258456680282 0.19860434947289665 -0.39292472685845875 -2.3516661913383627
Ni 1.4545924797617598 1.3011512141897714 4.489815967505329 -0.07169289765961201 -0.511589365281919 -0.2766090482831494
Ni 5.342206068866334 3.0372469805547477 1.7149170967500298 -0.7438170592362158 0.6985275912707969 0.47017943487656444
Ni 8.35255641658113 2.6847502767582205 3.9488087489268806 1.0816641283942405 0.8749271225118802 -0.14928364886089773
Ni 6.877506951883307 2.2307273424309746 11.475679247739254 -0.697277778024096 0.7811487058071386 -1.09270855913386
Ni 4.157227583241559 6.886102401456172 3.7031741161009752 -0.7868606685902513 -1.031499077504075 -2.409229077354496
Ni 0.9055255236990041 2.44772312158316 1.726873931500312 -2.537932073850565 -1.5637423715909198 -0.672966454972241
Ni 9.094263219120498 1.9281101527865563 8.73825061560633 -1.519050428000184 -0.7427950457296046 0.39261876558226577
Ni 5.798283028818097 4.540451400096732 7.601309497728973 2.319027065147103 0.6447054032440188 -1.1732817900022374
Ni 0.8447134118985669 3.780175095627613 7.927139027403964 0.6799817099478096 0.6104197425882713 -1.6698908798252403
Ni 2.865004903861059 3.3629580799234597 0.9315959201053108 1.223047805681771 0.23754576373310055 0.73648350168928
Ni 7.173906550448108 2.0836239487184174 0.18434694932681922 -0.3081505705348564 0.8447418571777515 1.5480452725706373
Ni 1.5948953832309851 9.213516986122269 2.367996394538583 0.22062713360089098 0.13862051272009673 -0.8889681739859787
Ni 4.360585372436368 8.664897844655128 5.010104359142426 -0.4593556047881831 0.12526928822417135 -0.8191241566096474
Ni 4.748130044997168 2.068847917536648 13.336129611406884 -0.3840191968387128 -0.9632632851551282 -1.5244289187032778
Ni 7.774403717485806 4.528266031864803 5.47706580443059 -1.9973591768521017 2.045354473784458 0.227915182621872
Ni 7.709831443461029 7.351033877275781 8.099619815183745 0.06068343392298582 -0.5140982477467018 0.20190153216692971
P 5.726447646166088 7.912883904522465 6.42918810222955 0.6678826126914305 -0.33706751067952273 0.9556541053493024
P 2.9025972737367822 7.747858674617619 12.432961590992237 0.5433879978497546 -0.4205491734439467 0.1842010295633731
P 4.658224788270021 8.528073831432831 2.0634547124171405 0.32785062006694504 -0.45364981265265747 0.08308751264979883
P 2.8043926432024664 5.453715604121617 2.588009370790565 -2.257183549477745 -0.061843515669358 0.5506562493763936
P 5.43434114620388 3.9803223132381564 5.265651978698544 -0.44726704905476516 -0.6198446354465971 1.5830102186815964
P 5.834413524600695 7.635146331564195 9.991609649792148 1.045667141474341 -0.46318346317470555 -1.864826522197298
P 2.173270139150581 8.050651659247917 5.056566973911051 0.31463669247983234 -0.4544514826183464 -1.2662060862367999
P 7.398507775831611 3.5003279828387583 2.1473866405713697 0.6594396241303998 0.7148816071487881 -0.7159205899362638
