# total energy = -340866.8168623377 ev
CRYSTAL
PRIMVEC
9.31485046709470 0.00000000000000 0.00000000000000

0.00000000000000 9.31485046709470 0.00000000000000

0.00000000000000 0.00000000000000 13.63322521810612

PRIMCOORD
 96 1
Ni 4.077659542356075 7.306801428440453 8.200753198422651 -0.09923892559868071 -2.822893864973784 1.0152795303214193
Ni 5.933364014515818 7.370170354874058 4.575515002529541 1.457325440186561 0.47004085241617116 -0.2675240552627457
Ni 9.122163284051036 2.8608327061366 6.27210133928959 -0.7808198617128101 0.5442783708745078 0.34869146807169626
Ni 0.693459864107694 4.570647993259872 7.846384623399251 0.9835626588341125 -0.4815411397462868 -0.759515443808079
Ni 3.8733196718321903 8.588413048335617 4.298501601630478 -0.29796540247173847 1.7677630069833814 -2.0057854532425843
Ni 2.4985781788687933 5.8956388708944605 6.35448746404847 -0.23693872627672097 0.09104713381650772 0.2510419984473225
Ni 2.918733815457677 0.256775957187517 12.68487089003546 -0.4657159997885721 -0.15380621932159963 0.8881166246189609
Ni 1.770855500987657 2.631249591362374 2.0910227402494432 1.686507405335999 0.33275165691298825 -0.10290146205193246
Ni 2.248502393485435 3.22030209317162 13.062142818919652 -0.8019910964737865 -0.5629875172482369 -0.40671740976717696
Ni 5.27896783801427 8.638582831926886 9.941061579412315 -0.14548690082262686 1.6993852897399315 -1.3914280661628038
Ni 4.365451156510514 3.6640801900626676 5.332117442209111 0.9869295184238165 0.42243559183338214 -0.1221392272356219
Ni 2.6480349515613097 0.13787189340316242 1.742652928804352 -1.285235077843793 2.1941578405748277 1.5562676604804295
Ni 2.5389766845196156 2.364081055720944 8.919455375295659 -0.39159315253122884 -1.560459329964274 1.5243026775380588
Ni 3.745398832979817 0.1287610383473475 7.815055055977998 -0.5369242445022817 1.4652940602143345 -0.23341348673228188
Ni -0.1905464402338829 9.188438443771027 5.068165324368287 1.7459649372716832 -0.008688014692301167 3.2181305277948704
Ni 8.937515007012472 4.021826329796465 3.0726151420317103 -0.5935278519289391 0.4017011874995082 0.3032922140012905
Ni 8.63803325576055 8.07203500838658 0.6508444240909745 -2.982398420231741 -1.6859754440919288 -0.047097467708435016
Ni 3.9798256698980197 6.276551043266855 4.601990601471513 -1.2176479748224385 -1.6909752112993652 -0.27484090063913313
Ni 3.1793074371030774 1.9172104285379727 4.058147725481097 -0.4271507379208644 -1.9733098492123824 0.7018692540495202
Ni 7.10209827875577 5.578393700164532 11.177131033333765 0.42989256233205964 1.2146294997110887 1.1406400927078162
Ni 1.5055126760004947 7.627642131377256 1.2006730228693123 -0.675955362397236 -0.455968433483505 0.4580019189737661
Ni 3.5370628916871514 3.932115006779848 10.885721531331786 -1.2844799448453232 -0.740252481813409 0.3967785533869102
Ni 6.363244354793763 8.703581857158945 6.912535486711126 -0.08524029732674353 -0.15525400751171972 0.011223122409329057
Ni 1.0216620932183156 6.9018103681023275 4.27936051579652 -1.0647429271588695 -0.8058724338060638 -0.7559449528480013
P 7.928306868614342 7.4319371270600385 5.826717362210808 -1.871770814725615 0.3892097399007168 -0.8041798765949891
P 2.244599471219423 5.336841002784516 12.581517037303326 0.4174489372520681 -1.427258702708168 -0.9139053035472906
P 8.715355827908919 5.662618576368067 9.0901984438409 -0.8403920648494881 0.43588966045575894 0.6079180592123401
P 1.4362753938924566 8.567603672817071 7.808661342747949 -0.3795197663064625 1.6786264599260252 0.4182200110901378
P 0.21354853150760678 6.116689582815066 2.3512265623388515 -0.431080926213206 0.7770799350544036 -0.3632241144702325
P 4.624925625823243 7.175424780135358 2.4498773471661894 0.6924063088644075 -1.1632786560429385 1.084968253066809
P 6.104356721048478 4.2149604354372645 7.442609151022259 -1.419739768623303 -0.07906039376827674 2.283263277283932
P 6.663666905923651 4.510483375321513 3.143235679405865 -0.9698699918383684 -2.9446754517596707 1.2713873733274232
Ni 7.28836733974251 6.267897547359635 2.477197803028274 1.8718543755783568 2.6220004623563935 -0.3298589087462255
Ni 0.3444072741373073 6.268260826520432 10.95844070447332 0.05396925512760383 0.6959022378328079 -0.22456503520271645
Ni 4.906150270532484 2.5860166784178524 8.877328964918476 0.2724142934755115 -0.5448812945658293 -0.9813268275250584
Ni 5.958569999365052 2.259493916812152 11.203906570454652 0.24381796989505752 0.30297314009897497 -0.6855365783277677
Ni 1.895311215537031 7.360026482922537 12.629329232289516 -1.6641732606151725 1.7772408645668296 -0.2174621056093481
Ni 4.916098530628189 2.8385050100229225 2.9034546665485133 2.200024069547618 0.07282803970531974 -0.131224991586974
Ni 5.571817415869054 5.2551497658562925 1.33851045132645 0.19915276577719895 -1.0620748934084032 0.09983516442178289
Ni 0.06757551281864309 9.605659902522694 2.3603066783887527 1.6536415078459132 -1.4004426109565882 0.7972710652902979
Ni 8.41983288802467 7.971825849107919 8.744882040316568 0.6312780740945193 0.410216424059371 -0.18079894586035958
Ni 4.654202200243472 3.0904996545633177 13.048713599275477 1.084636066538371 -0.33541094891270623 -0.8696054531886508
Ni 5.181487929866736 0.5222454641384449 12.500508578900398 0.8997043294565602 -1.0957272913555258 0.2573350305448858
Ni 7.68889658679801 1.599220069785893 3.112356019252985 -1.8397382117701027 0.9220443877146572 0.33804452988081135
Ni 6.681700456059687 6.664579761250784 9.273415028391906 -1.4021847904586755 -0.6350701941470999 -1.2183306027117597
Ni 5.697307078799162 1.2066084454657393 5.044525165850597 -1.8377628332112865 0.00014809554209006752 -1.1823423575426089
Ni 7.861957190092137 8.369895975690323 3.682988404639703 -1.853919131256175 -1.622612920674883 -2.5156323819120994
Ni 2.0147834851882753 8.191106739475918 5.793834077763372 1.399060900117713 1.1759696212470456 0.9154423090171072
Ni 6.501877271464546 2.331311412446885 0.8391916281744864 0.3883175671037506 -0.10478556644852277 0.21358591048339343
Ni 6.614400662809239 1.9958277648748277 7.0327128905283285 0.23952602738792295 0.19202772469664348 1.7598499227838917
Ni 6.148071313397869 6.2952552626228275 6.8419428938878015 -0.1637011098378084 -0.10162619488393466 -0.3272597805604815
Ni 8.742080133353282 5.837886799177813 12.957235249161334 0.1235862440947936 0.25860515550656105 1.6295325306128516
Ni 0.9910255506576622 4.0193951538742 10.322682611890778 0.7580347454974945 0.04932018639136667 -0.06498951749750743
Ni 5.586777065413722 4.459139920595359 10.07433938865892 0.21919400069879022 0.08962222844452307 -1.457427255871748
Ni 1.5070123668950723 6.754468066422662 8.90422745806302 0.7994901844288038 -1.2171337541901812 0.13148647277847678
Ni 7.289438547524351 7.963554262062051 11.25240061248111 -0.4882810295732816 0.11015660095244899 0.2470135940142197
P 3.6246504288406407 1.7957634106280305 0.7621801720253655 -0.07984252334993991 0.18249124596111796 -0.026926134966882658
P 1.7764071517526765 -0.20352016369951934 3.720684672225203 -0.33243361145193717 0.4403356120422545 0.5778610919259597
P 3.8385939099999873 1.3926166906447268 10.817759452226651 0.18030812226687012 0.7071341019928853 -0.38277375446738593
P 6.45835829097097 9.258085579291247 0.7131346908625168 1.0075906463175937 0.17366156348462997 -0.15309530929750406
P 5.110881364767996 7.5218440619324705 11.665650219074715 0.233931564019281 -0.6434782157051369 1.4538490516021865
P 3.122114256403043 5.246859549109869 9.167798598527519 0.2557584300863854 -0.2477509864008766 -0.4273983351552962
P 9.205205174269407 8.375661868011711 11.992452426188722 1.1571278059501942 0.6179823854268777 0.9396968106890978
P 7.021943992123229 4.5079590508964795 13.043751578532982 -1.151828505224468 -0.5050847313941816 0.7579720105803591
Ni 1.1526568326620588 4.841905748172851 0.8930454350502598 -0.08404524857737783 0.013066860486287172 -0.1997708589771721
Ni 8.991988251431657 0.7887079341288878 7.68821194530266 0.2321616166030518 0.658990195297807 0.2366098821823925
Ni 5.702821470163075 0.0635477715589208 2.7432234065407313 0.17134448531567908 0.17666744019048927 0.25889723282568317
Ni 1.637327122268603 1.552738966904269 11.3471102841563 -0.26179589452971685 1.023996855589759 -0.5492190027092348
Ni 7.902672400652373 3.6556316208615387 8.49827044775118 -0.11934932319531058 -0.6304216396314949 0.4657242273186883
Ni 0.7487351171357189 1.748397396970103 4.259428599174055 -0.24895272001846158 1.4208340301287468 -1.2583243694958781
Ni 3.707496707203198 4.028700689300802 1.305011455275712 -1.7942289144843937 0.22051271951021378 0.26410063140349355
Ni 6.334256540732118 6.820705966741546 -0.09013421721918755 0.6108861407017286 1.7550237050398418 -0.592701756483218
Ni 0.24729623406073772 6.751375536130739 6.893285417128928 0.06508207721131372 -0.5259258365092491 -0.9408496933466183
Ni 8.836663123064707 3.24948551908908 13.06970927179956 0.7906713005855932 -0.9949372192196413 1.7097337228537908
Ni 8.421090392812049 0.7242584850631653 10.369975969716547 -0.842055311484524 0.26871524735736946 0.07481498822836147
Ni 3.5474768942967017 6.379163433916949 0.47065143993984226 0.07405574146483375 -0.1140713626258229 -0.35470322148341493
Ni 4.356574104196649 8.542453577069498 0.867777972189199 1.8984485811271175 -0.5919337679689418 -1.890231592533964
Ni 1.73142573976563 1.3256988062556314 6.365612189734145 0.9229409313869976 -0.9249569333757619 1.4291610619372033
Ni 2.5861657160222826 6.097296064538604 2.507354630799668 0.32417805631136426 -1.1756294642988074 1.8454038946963123
Ni 2.9369722922998056 3.907235041690305 7.400277813938984 2.2143921653438317 1.1012613337998776 1.8484210842560809
Ni 1.9567333382627685 3.5229974677690654 5.5458597226024775 -0.19155541304591525 0.2222109331482431 -2.5322170257436585
Ni 8.035790925959244 3.5930637715517455 10.99454133820639 -0.3213341591046659 -1.3281555313564029 -0.8315235587152647
Ni 6.8640572799301385 4.02219892380754 5.582328292921484 0.9924172810112648 -0.24292553998777516 -2.5583502324956005
Ni 7.692790194213746 0.918902527933847 12.77962154705187 -0.6550450946071299 -0.16968920910044322 -0.5777104252807083
Ni 4.778192172279002 5.415942711335769 12.403208447363207 0.48637378524823977 -0.210043958768406 -0.9956884955633691
Ni 1.1252432282972051 8.709906640496945 10.153385208108512 0.6934041540013026 -0.030817756711804988 0.4247256734191395
Ni 0.4415332179743199 0.5905121388476323 13.781690784197798 2.4182536494506093 1.6908541123404686 -1.8839619574751683
Ni 3.1759727207039545 6.867410626029814 10.755115221144587 0.6614304293081834 -0.2871107191454217 -0.5949067345543367
P 6.987171656039642 0.47919222615871215 8.662878755904067 -0.4735275254131909 0.17115576634364071 1.0620342699784548
P 4.346569954999281 7.87940390466073 6.179668217022068 0.20830537881074446 -0.693071196141916 0.7826553722596522
P 7.751212935150328 1.5261171248129501 5.284306178707949 0.6319691866242729 0.0896476823658198 -0.28671296948637076
P 0.3086000581879585 4.788233580877478 5.226283044848245 -0.37557852227052735 0.77114222941373 0.7049072695448957
P 0.516100457410788 2.049164597560234 9.538608815774639 -0.5929629805644047 0.5228716230639575 -0.8862841993959122
P 9.149837704223641 2.2848303095652613 1.6335601968166333 -2.183597034339846 0.6701228148758588 -1.7795723409134834
P 3.8722112046492416 2.0109457668742015 6.767901012006949 0.2826483124986938 0.14365576115115905 -0.6040534340506113
P 3.0521317862728545 4.040362881847453 3.453105351686562 0.2918991416730005 0.542347215290066 0.4365956853838481
