# total energy = -381167.51487528643 ev
CRYSTAL
PRIMVEC
9.26561295267510 0.00000000000000 0.00000000000000
0.00000000000000 9.26561295267510 0.00000000000000
0.00000000000000 0.00000000000000 13.56116113874678
PRIMCOORD
 96 1
Ni 4.031282896873054 5.269928571736949 9.430078540546198 1.240806929437405 -0.3640831200364182 1.4357903943282628
Ni 5.72174765765269 0.20285021192576627 0.26047583875421754 -0.3482291837232971 2.2869247852959194 -0.8200780358824844
Ni 0.6789072148451165 0.14793477689499673 7.815744688845713 -0.8945901481584465 1.0944790207707216 1.1293622058011517
Ni 2.6195185090249344 7.28355938215605 9.95994095806089 -2.1756127305827886 0.26860597547301485 1.2484389920613659
Ni 2.4619938226919866 4.255381012492645 8.15634676899758 0.6597869801674895 0.0044780903760116425 -1.4350105787394447
Ni 8.154971752030825 0.6729077304382827 9.58603270547844 1.0699360413240349 -1.9475155138570976 2.1472051259743727
Ni 6.805796579886433 4.168914312130368 6.9439922709744435 1.6888679351483753 0.3136388473429373 -1.0071317044033041
Ni 5.69865775009774 7.590306765588704 1.16697708499761 0.06939073188899662 -1.8539893223724782 -0.13671378261568715
Ni 0.8878968219337681 8.414612759055228 5.912029065566302 -1.0095266869980422 -0.6382419070068621 -0.48867569390853904
Ni 5.014975964882212 1.975159985311496 1.8716575289177062 0.8634859705544741 -2.444050298798739 -1.971832493335907
Ni 7.062620840563842 9.104771207746241 11.854109293722077 0.5400149676124635 -0.5377115162902675 -0.38717394041761066
Ni 8.055394209296857 7.703476962569507 7.16817192398829 1.1538797313265419 -0.19973409220196567 3.137365235520345
Ni 0.593499574046857 4.155553298208122 4.694561802298855 -0.44689886708206905 0.3608772115046108 0.5252630061142696
Ni 7.42577727584021 2.267295497069128 11.590155143853844 -1.6018916289671314 0.2000588225312361 0.24460627012430775
Ni 5.134131747850373 2.85768182515352 12.988867062692067 -0.20001588510844262 -0.8428801213786644 0.7565141950879101
Ni 2.9582600540897084 0.09110228653793538 8.364686856616087 0.4079975620311812 -0.4589406287379515 1.523053892732622
Ni 7.925796080496261 1.1981086180609635 0.378175067361368 -0.9590343346754451 -0.3908282493407463 -0.27296039578696857
Ni 1.3238337206344453 1.7695560332070257 4.340846100091402 -0.9516262151368321 -1.3367944379783236 1.490881935985768
Ni 1.8298473768908377 2.735329405706042 12.284242212449874 1.3168311074825192 1.5210232354558384 -0.17930384937207183
Ni 5.751342025522076 5.161965649252889 -0.0763755212619171 1.0009546290583147 1.106488643637088 1.3126638634787071
Ni 4.886397053509803 3.9669610115414073 2.7802416849597957 -2.227154350105506 2.5130322252850914 -2.2311115349810415
Ni 2.743686988617184 1.7274994158747952 6.826661813764037 0.05213194480854892 -0.17662758809148935 -1.0074155541923102
Ni 2.499741929986877 8.858722854968674 4.24511841955209 0.8751402669639509 0.10033113022159494 -0.8470090559453736
Ni 3.368439475257478 8.451035883693471 1.6051942510535333 -0.11485529197969899 -0.6344150770616042 1.14589774156233
P 6.5190443892722305 1.2519510951082404 8.54069736741247 -1.5148574729647588 1.1139260737517396 0.47199283393621944
Ni 6.702095839374795 7.249545316893522 9.967222803304645 0.1398469289280301 0.8004546052246021 1.0726488122695075
P 6.887593411305011 0.8162467632934498 2.460333424845339 0.6298608820320185 0.7313261258580566 -0.7173717205604935
Ni 6.0982002475604205 2.0015577167015652 6.5884595820609215 0.961821410502279 -0.9436105439212072 -0.6400357656824913
P 5.352142355739787 1.1933924210523479 11.611933967171625 -0.7092262086352237 -0.5422651970992209 -0.04563296734776657
P 4.462300681640777 2.856857185597986 5.581163291537525 0.31834345190745816 -0.02913188436894983 -0.5285391057623801
P 3.714852947872613 6.94419704102138 8.25112565076738 0.9434848169766203 1.11950536761173 -1.6703009707794652
Ni 0.19132842218075008 1.3241950795408026 11.829522989670288 0.04006987143769228 -1.7148746436247821 -0.7023186828821131
Ni 3.7996055098329373 5.6725194558712095 1.060479982487544 -0.5008989754476082 0.3799447696590231 -0.6617968115086666
Ni 8.880812076321403 8.988923248613197 4.23056677436146 0.8542323131666901 -1.5477243988961085 -0.6647008725293392
Ni 2.989642685264916 0.7636838673991979 11.461852347748346 -0.19039790240270435 0.10776856033624665 -1.4028185673879325
Ni 5.3436735854728425 9.04818610925584 7.7378903757516255 0.007639004602496521 -1.7086345762523414 0.6519777685357159
Ni 7.266149295360002 8.932504931156501 5.708543232589866 -2.6894651808672716 2.0000740046801035 -0.9106680275569156
Ni 6.5154863938865555 5.639737717135491 2.2537426849581226 0.6339756755313405 -0.08254783809624494 0.3265833233187472
Ni 6.940333280407248 7.970521194367747 3.288866390954946 2.382272089149678 -1.9179321437730261 -0.21353345997890325
Ni 6.135346090011381 2.6362892685251187 3.8151884177486335 1.5150135389266488 -1.659315161191923 1.848629086501829
Ni 9.126480538966645 7.3701465354871125 9.800651172454582 -0.34364902055178237 1.8285623976589411 0.01382405036728587
Ni 0.557905721770637 2.6717580350260612 0.7902817360297114 -0.020767828674970686 1.2497939634273638 -0.30905148508257096
Ni 2.9488739881373953 7.887816332876782 6.463669379837478 1.7527428794254654 -0.021676456532169118 -0.016089192252378745
Ni 0.8961561893472842 5.928908232738393 2.1140357723924983 0.2734517336010904 -0.5898894838454035 0.8329065551057203
Ni 7.242021639150898 4.811447510086051 4.469094229080299 0.3170224191031895 -0.9392867197348727 -0.2779727613998955
Ni 4.4182334262911205 6.963080360281808 3.008177617477164 -0.32968433084157417 -2.353737729155411 -1.5103937807664503
Ni 1.6770944812444066 2.323982517302348 8.980106091298074 0.7001404442838717 -1.6782976158316967 -0.04752478505384073
Ni 6.983381318328717 3.23904518994252 1.1309950035373801 -0.3873161224224297 0.220251238318711 0.11166918094223348
Ni 5.1617803369932185 -0.21416259881735475 3.317087594980173 -2.9829594349415336 3.1175967946441663 0.5152192487250223
Ni 3.6078351179128725 1.9811085088469207 3.6225655894340845 0.15497247171555892 -0.7902159582157294 1.248907189947036
Ni 1.5949177596935031 6.0513255114767555 6.616707656363801 0.1324552644496493 -1.1381011283360465 3.014677849090737
Ni 9.140471614571771 1.0818807687955971 2.5049908997420456 -0.8049707479274006 1.985176775853297 -0.28261154572348746
Ni 4.28875575045931 2.718178756073533 8.32544049970176 0.05426236088799042 -1.356753911819386 -0.17576806830467148
Ni 8.08878747848949 1.7527574768678906 4.8613780453316835 0.7009038048124575 1.2766856456118851 0.6637822173698117
Ni 4.647140395049162 4.778767693093151 7.004963710651247 -2.0733198486491324 -0.481301512931655 0.2663305491752768
Ni 8.320140569075182 7.737287184346398 0.9957689414105895 -1.4384214041932066 -0.47857742913227264 0.29412006058371926
P 0.19279516871604244 7.901251471702897 12.815853051134557 -0.8023914172359987 -0.639235638378699 -1.8795679421725306
Ni 1.911440364823779 7.212371677603611 0.2526009942795177 0.30849149881404286 -0.10978327677343029 -0.39533719295469333
P 5.338531170266984 6.439091414837374 11.440982481064248 -0.2381731129044543 0.4243446359306369 0.6072631992371607
Ni 0.2582502385155743 4.049008014510542 7.096636758948968 0.029601882026832897 1.5634965741287008 0.4653334196381728
P 2.1612968845375757 1.2153797206622583 1.957011429160661 0.025819532166265206 0.03842025164941125 0.5693512546827356
P 1.2551199347486068 0.2823380525888502 10.003567170232532 0.0929104122774916 -0.5524071706292293 -0.07910513096328312
P 2.0161232603116703 4.0209332071704535 10.438351426678059 0.042551757319281555 0.3919898737490152 0.3033040410758325
Ni 6.337512499698963 6.648920486462332 5.811350768009891 -0.20551958853549118 0.2192407947763256 -0.0694066727285966
Ni 6.1008038848087915 3.7122307793982747 9.207512957314083 1.1614146062510062 -0.32481157613030515 -0.014973333480380666
Ni 0.8500681038059212 8.312283329265151 2.3308789130459875 1.6039053169630506 -0.8269343966826855 0.866622716411243
Ni 6.190939767912544 4.324734125674347 11.499335458511906 0.9797291440206352 1.0032483101884981 -1.0020830862358032
Ni 3.7125550758526984 5.045246722499396 12.176512783413 -0.7196538317264509 0.7888540448711963 0.07864567482836132
Ni 8.326987857070009 2.2169090936647065 7.952373564778211 -0.14435664387292557 0.36512981613337764 -2.125655681938371
Ni 8.06625350771355 4.997454690730362 10.097044233378146 -0.7062457858506611 1.505208379910769 -0.962191392247188
Ni 8.790138787664604 4.365854916095241 12.156007981880451 0.017094750698757655 -1.7842075256926497 0.9500848387916411
Ni 3.2349497890038004 3.1379110242273196 0.8889290112201329 -0.6422685116677519 0.648365111483793 -0.3065006936362592
Ni 1.852557394313463 3.345961098159441 2.8927994249223867 0.37229933729862336 1.8570548486716794 -1.60241639112235
Ni 4.453813380147865 8.54018034620799 10.095240218530252 2.19018420063906 0.5187370320702938 0.5129350806765359
Ni 6.040929493709238 6.127618568783119 8.141551438185484 0.07379708848680838 0.7738951095685188 0.5103148694448695
Ni 7.727076478838551 6.528245142964873 12.324586544502749 -0.32891737076856253 0.18863618251659126 -0.43634525993593887
Ni -0.23865809986190584 2.908151619074793 9.984228909374613 0.050959007546370304 1.1041180865223823 1.4271329757635811
Ni 8.834789776632222 6.197759259068421 5.476186676118056 -0.15628399143813085 0.4008869191283289 1.8603474033800218
Ni 3.379984429034953 0.7578863733554049 13.696229901570895 0.03784483876191547 2.073419350341474 -0.8147332266308033
Ni 2.6193795248301814 3.8647983627850353 5.752956095303807 -0.21778220795292813 0.729857254622014 -0.19837166463680028
Ni 3.8802534052415587 7.991748713713008 12.441822492460721 0.7070430849409759 -1.1959553203403532 0.365174553328384
Ni 4.935161974642108 5.08492207729486 4.722213171125595 -1.042071967923915 0.5158653669494535 -0.09867379712383006
Ni 0.9693313678846911 5.5645287365481995 9.136845980211318 -0.7287383105262223 -0.5141504411408758 -0.42547797820413175
Ni 1.0022891532670977 6.034795657914143 11.466517583885551 0.5211448701808379 0.4790451127973105 0.6521916843187349
Ni 1.520653871630532 4.8583315117826995 13.533645263987644 0.24579180579197668 -0.45457078180503 0.5317025910920263
Ni 0.8215309423779554 0.3679115478595148 0.31974518532594653 1.3804787662401516 -0.43526488238756655 -0.2740991373771022
Ni 8.75012060518875 3.63493703588969 2.8319641897564414 -1.1392588960895735 -0.1277326621629994 -0.7082874988710381
Ni 1.7446778623462547 6.489755786631299 4.561567826339796 1.018881902960697 0.12975200658587333 -3.15033465119682
P 8.491415425075685 6.430567050892528 3.4943860259812665 0.10546536612436676 -0.08338987438156606 -2.311333296047271
Ni 4.448291074809683 0.41124589322217364 5.78277747069129 -0.19420879150836232 0.02787384359213264 -1.971687740227927
P 8.179145736304848 5.673066127037238 7.724111482683822 0.4120953862496387 -0.17728656183172695 1.2375652825716557
Ni 4.221237228648347 3.302783341656204 10.764401861639294 -0.8851099765821531 -2.1633097448457197 -0.46722678000614376
P 2.981600133195214 5.286745659302051 2.960726560265924 -0.9466228483849697 -0.5513105951309408 0.8206513918874511
P 0.718849419294506 2.162547742290352 6.404502881569866 -0.8372614896403066 -1.2126479505046859 -0.7352228898093015
P 4.478867597655323 7.419143096944006 4.920437062488687 0.20687918788717916 1.3736545442294665 3.0640849387689553
Ni 8.391643304469063 5.105834565798681 0.8407987845772005 -0.18588690190622825 0.13058710089265899 -0.6624408728505687
