# total energy = -340890.1309210557 ev
CRYSTAL
PRIMVEC
9.10358680397414 0.00000000000000 0.00000000000000
0.00000000000000 9.10358680397414 0.00000000000000
0.00000000000000 0.00000000000000 13.32401949227054
PRIMCOORD
 96 1
Ni 6.280701128508317 2.0334044718074016 11.548234033531982 1.2263390748385332 0.4691597353627984 -1.524277480727078
Ni 4.993417532158636 0.2267830937038941 6.220571937298099 -0.4732907268120365 0.10830720644853606 -0.08830325252278341
Ni 3.072478772419522 1.4696648555026717 4.7321454996356795 -0.35546658201200065 0.6061946487633302 0.733858148251291
Ni 3.4263716080146778 4.61098495175742 4.842815074016491 0.1231257595186073 -0.40763375093385923 0.2978183353709129
Ni 4.884975605482465 4.5951902285553405 2.676195994969519 0.12564672616824812 -0.19373005209973085 -0.20293460141713437
Ni 7.22356872318409 6.3729113598131315 2.7540079932965766 -0.2629814301973858 -0.8736210021059471 -1.0382111994169279
Ni 4.972197071188005 4.47152710464927 11.57845339011371 -0.01240043054688187 0.1778311214812873 -0.4711099171106338
Ni 5.877694441803529 7.803776728118536 12.727223181312622 -1.6124925444114293 0.8198301815377366 -1.5163155455675241
Ni 1.8422109405739429 6.387103851727852 0.3581660592672346 -0.49252514956161625 0.4518412986890089 0.0073438419595809
Ni 2.481619570858889 1.517668069015386 0.20680982413308138 0.6574814719627644 -0.027787197415597303 0.5554490427793466
Ni 0.945516738452028 9.127347221692128 4.559612500747823 0.5374580055185646 -0.5833385701007631 1.2637038886402365
Ni 8.51883616520998 2.4812554273844896 1.4328253705563603 0.9085036729157451 -0.4323428236447651 0.26932819835102007
Ni 6.781489441676233 1.0678325315028208 4.9399339593562095 1.3722404374907593 -0.7946544536030572 -0.9793563340622488
Ni 0.8001952710473605 7.305054929167837 2.421680644614045 0.4572092478691417 0.28621494680402965 -0.07081589437129739
Ni 7.753798036257205 3.963037156997805 3.9233773808422687 0.5134837540911544 -0.6020096641477052 -0.5694875231502837
Ni 7.484768837370852 3.7567862930979268 12.817013679230051 1.0309218648443663 0.3020927943765507 -0.05606650397626473
Ni 7.833545457150695 8.92837922728024 7.307758694465254 0.09114329307473981 -1.0315471571331913 -0.8448246466995449
Ni 6.83499122165238 0.7878726558736815 0.6440951568004679 -0.25178916102599214 0.9035090479146309 -1.7442975768715894
Ni 1.7729599553300175 6.521727694213348 9.278274677885175 0.5826968227517062 0.8998634807422439 -0.7571513144512767
Ni -0.07570269725159856 4.859394526405899 1.7259135287962877 0.19684237247646744 -0.05563790107927837 -0.7562365159464911
Ni 6.713066882836567 2.0839931039883526 7.240671631817948 -1.5546046709557098 0.30789114622588265 -0.1523409476299828
Ni 3.2912834825993227 4.008600609232042 0.2769274708460776 -0.5506883881659097 0.7162625466567147 -0.15880470097745553
Ni 5.989650353007655 5.423707668682809 4.771077899201103 -0.3736342540599629 0.5970510345908492 0.3037748100646639
Ni 5.071216785464091 3.050794028519031 9.295942008904355 1.3158623158113467 -0.9635841588296566 0.7308669268334509
P -0.18100661753713268 5.427986354507002 12.700375793303833 1.6996616833297695 -0.6090925391364156 -0.730179156737807
P 3.8005745458944666 6.00889533562967 12.775816307253866 1.1768293981441798 0.8736870794571922 0.3488362211796766
P 2.2008194341625726 8.616053369287787 1.145854822686344 0.06878935085957186 -0.5941297471789961 0.7124627132946504
P 6.594893221807068 7.783093378772645 5.6541941015213455 -1.2063212369557095 0.9037396758681984 0.20118882237062127
P 4.8667047066544695 1.2060704979717318 12.702014438938631 -2.405391962996593 -1.3306633853799212 1.5298850567218427
P 4.121794608249128 6.443209257545956 8.069545932550326 0.3821178660509419 -0.9761848783128028 0.9211799828318328
P 4.882899987678388 1.2312055012921577 3.54889223176982 -0.8759414227090075 -1.1338392677358988 1.4788766839947756
P 0.22808126519012833 5.6824953323516745 3.724089850531595 0.07821990014485239 -0.20961124210636156 0.08951449922206518
Ni 1.5366672547921802 1.1213616222395477 2.6173440369957577 0.008412906654043576 0.7657133450886748 -1.1157415296939235
Ni 1.7473333583191524 6.631116393922959 5.080862035742247 0.9457558723989841 0.419516104193742 -1.2225718944866169
Ni 5.899980022436777 5.682686507675735 9.371129443139676 -0.9338169548695531 -0.006976174207517018 -0.8754238596426408
Ni 8.710384736330978 2.375307883507954 10.217977865768415 -0.06392379523715441 0.5678628430626672 0.23836491720028624
Ni 2.562450318588718 5.330823771950356 7.0995842426618605 -1.2254507586963088 -0.07034898203720788 -0.9258437068560894
Ni 0.4146137599512735 9.072516318034422 9.279046662050902 0.16882017623192863 -0.13473660428465828 -0.11169489197384634
Ni 1.328841470365524 1.1492368052048296 11.358726486584994 0.13165925091091518 -0.6330202535966066 0.4506089689438046
Ni 4.261425423507617 7.119141478313172 1.489385955717463 -0.799008873917011 -1.9853806643339873 -0.39400407596556664
Ni 5.669295131404693 7.971501212426947 8.34222202833279 1.6054346091233835 -0.2601215921510875 0.4016924457487598
Ni 5.324141739195125 2.916188393207255 4.977640105771592 -0.8004111535811763 0.6147165701914123 0.1639844454061821
Ni 1.02464511543904 7.85204394565019 7.039186495639274 -0.8473990922949407 -1.2954806668312013 0.6061116021312206
Ni 5.06414329847388 4.589464072420409 7.408234982638937 0.5268799728924023 -0.43632006312495825 -2.0353040315269912
Ni 8.235150191479047 6.852624869400176 9.259567717246586 -0.8522109118612871 0.9927029305724839 0.2626124768937413
Ni 4.746428117060313 0.032151137713418064 10.748606826304684 0.2642047610815257 0.5920155290494706 -1.2985060839210862
Ni 8.373979891093857 7.524032607497978 4.513871528569816 -0.1428803164377152 -0.13072954000779421 0.7316176889565463
Ni 7.20762834259225 6.206980282116138 6.9210956772502 0.05053683240728715 0.1935287347222022 0.072470656365901
Ni 2.363191009397311 5.062431824144203 2.5549871980809007 -0.6375243121145472 0.556031654755694 -0.39677521095280055
Ni 2.3310735549552746 5.218895171506809 11.490634729110155 -1.4849120915555782 -1.4558966781598346 -0.4525586364710077
Ni 1.2428671960598017 3.5473855881444925 4.051874509370993 -0.6819866561929804 -0.9322084727318526 -0.946105542428919
Ni 3.6996612855515045 2.5064086378786348 2.3153015907203462 -0.2642798372938352 0.37358077511420823 0.05728469265408199
Ni 1.2648068403923718 3.3559098457183745 8.111476143268744 -0.9157562407131004 -0.26508922056900797 0.2367852314179922
Ni 3.7317878435804004 2.2812951420048626 7.102634854618642 0.03202360409444807 1.0041926763796383 -0.22747886641540177
Ni 4.363822568508757 6.862857301030802 5.828738993105259 -0.3246387979978667 0.6611308957898937 -0.19661945783238396
Ni 0.7290507397365578 7.111640122740542 11.358686430802809 0.15875636423802336 -0.5435150103459221 0.5804347661904068
P 0.30517772158999096 5.87649276833801 7.801813084432838 0.19246918310943628 -0.6082049943251396 -0.24553855213059006
P 8.586648783730027 1.702944268789853 8.1508355010579 0.9883305125364011 -0.2541391493154075 0.05555613999874948
P 1.9075929014023734 3.359669627091549 10.261253586624738 -0.9630503978133738 -1.0291074373434468 0.925369081212516
P 3.863243637838621 6.296104397475417 3.4173044355021305 0.28297355704859656 0.5763672809892525 2.5037235462896557
P 6.962860202687765 3.87842842072108 10.53606174244981 -0.3958989789954343 -0.6123609254750421 -1.9019697069064985
P 6.54959377359177 7.755573235694903 10.669395606677247 -1.07082230058373 0.5127677018607363 -2.330376942942283
P 2.7097008360490173 8.647497158302183 5.935531349842401 0.4388999080369925 -0.05258600162683202 -1.4040580962219884
P 6.788062231389143 4.236099244863132 1.8270825999300153 1.5185112676672623 0.4949646122410444 -0.7404872235320343
Ni 5.387375253524598 3.160483146595021 0.4619633359274407 -0.03852746665123687 -1.044361278178724 -0.4581764968784174
Ni 1.5636775970057633 0.9814941137226988 7.154225791712878 -0.15658506761831742 1.5423160833963439 0.015357970513309034
Ni 6.98173193824852 0.6576549494284193 9.512590079357022 -0.540845691043875 0.06873381503128807 -0.08297386989007
Ni 2.7745820996001487 1.4551264272872717 9.401641024859611 0.5926187098511083 -0.1134535265361659 -0.8221984246595969
Ni 6.351608966560761 2.2477575280126683 2.4906985780343542 0.6198250950625713 -0.2608620698615378 0.829226792261288
Ni 3.8185268191823623 6.778330497035817 10.643226435889526 1.040632407263911 0.7296855049308401 -0.35016908105848726
Ni 8.003682391977003 7.077629122231628 0.23730866083141172 0.7983792107528122 0.6412804367228697 0.7776160100635318
Ni 7.755828136126982 4.276755863779836 8.157870752983298 -0.00515480472806209 -0.8095323991561542 0.38038057164486105
Ni 3.285311529619171 8.530425031282743 12.540514076966394 -0.4580741669725982 -0.8818670441648231 -0.3300442852841542
Ni 0.23462401306640138 4.74200377384636 9.985726247437729 -0.2757382156424219 0.4863745565791882 0.9834598147076611
Ni 8.850925910275466 2.1400347846984356 5.888604180296538 0.2745598790636045 0.9943353239695842 -0.10941689457294704
Ni 3.5750058706776953 2.5822324128354714 11.431542436443289 -0.014180148155123966 -0.19088435512081964 0.5868265286493636
Ni 1.0519012544978426 3.1923821149524176 12.731620213765996 -1.4134454509741592 1.2358249028417814 -0.47171026969879404
Ni 3.443158622184495 8.494575106228112 8.029120544739866 -1.8956761605883028 0.34299647456944804 0.6275656582399386
Ni 5.8314300133810715 8.356200585956302 3.5309181098734608 -0.4191710621494975 -0.6425086527030159 0.5040282651052094
Ni 3.225637517751952 8.399834077776223 3.525775493656254 -0.05836892685719625 -0.2283499561664454 0.018195954182736403
Ni 3.336510102119741 4.529708128271451 9.179023732502849 0.36252451730004664 0.43256625250948083 0.7670217794874532
Ni 7.040359037626839 5.800195606864453 11.278942651344062 2.0013487576274698 0.7903871936862711 3.1226454128116674
Ni 0.25381892596068517 0.04086327033842616 0.17708024052442 0.8233777896796787 0.004098595549405845 1.0845921006743129
Ni 4.412117096800991 0.19805308393245938 1.3367725152379453 0.4480556063943315 2.6752025003006703 0.40946849014975284
Ni 5.823427960531142 5.649012339880641 0.30740810037068794 0.3186355292265803 -0.8300032654159964 0.7503245213374303
Ni 8.227275588845158 8.743275995656113 11.483026861571263 -0.4922641825907458 0.3849980158122144 -0.32308276636465644
Ni 9.207276714322818 4.980053466648174 5.794802642008598 -0.3443015665341167 -0.7002895682672262 0.901211510129706
Ni 8.149540060647723 8.943154348754 2.4506336922635494 0.0014801840899522894 0.3396756377263312 0.36841902840761065
P 8.72424949911874 1.5000617320281702 3.73648165296541 -0.8175894651326758 1.0885418293506801 -0.2667100440018826
P 1.7298180572005362 3.2278587929457894 1.5891421501705205 -1.0773888980576543 -1.004653932286773 -0.20749316732209425
P 4.995629703765613 1.0286597972442943 8.417049870887144 0.07959364056392743 -0.0792596542632764 0.3013001232719263
P 8.274932866057192 1.591698437360805 12.361146105064059 1.3709212044587036 1.0086725665278629 0.8236287293482203
P 6.344453547288811 7.989225896043343 1.4354899904302785 0.569889900795025 -0.9714203670446239 1.1852523321005521
P 1.8250142649954262 3.261860689867843 6.061935563752014 1.6654061045810093 -0.5199444221148336 -0.2768291347137555
P 7.038019415803823 3.9123210746008144 6.024149305772265 -0.29508885225489184 0.3997774881142341 0.4027304000949709
P 2.3379376594477055 8.534885788844138 10.281879583373412 0.30840922351288175 -0.11101380674642172 0.6106195173039033
