# total energy = -381167.41590380983 ev
CRYSTAL
PRIMVEC
9.24977923266995 0.00000000000000 0.00000000000000
0.00000000000000 9.24977923266995 0.00000000000000
0.00000000000000 0.00000000000000 13.53798688902337
PRIMCOORD
 96 1
Ni 0.3292366317006634 2.198071219143315 11.640949472436276 1.1737263337388237 -1.216075488128996 -1.8161822788270334
Ni 6.8044888821434135 3.4165445993177372 7.448383568952521 2.54220139064988 0.10753047618351158 1.7241794659654757
Ni 0.7704233379496532 3.6795435640068694 3.3851739740322175 -0.6519466581874643 0.8960945006181148 -0.9188320514249466
Ni 0.5717260615392622 0.5884043379515638 7.6700813456828225 1.7046863902378708 -0.9755783550770553 1.4218668422686351
Ni 5.446334590149253 8.707556901454474 8.072051764146757 -2.4482465962682736 0.12125965284414598 0.6141293302293747
Ni 9.13189976024808 5.267582612073867 7.358450743222454 -2.3378737655399604 0.306050236362402 -2.8122453841210016
Ni 8.291945833983153 1.357368060783996 6.291873532940024 -0.6425004251729 -0.9117903140868169 -0.6406937109814643
Ni 6.2120775399536985 3.2652089660296957 10.100935276641847 0.6397364892745177 0.3494558570415465 -0.1261151811642344
Ni 2.447417510112433 7.693744130175058 5.03522354013375 -0.6446472963125737 -1.9432243426809115 0.2397646257612903
Ni 4.317741311964923 3.9395733496552667 0.2541978000247733 -0.6368195727380387 1.0158315461701473 -2.496447581453533
Ni 3.648112815158219 8.41476439878962 3.3477678679863256 1.5533687416660795 0.8285575341084053 -0.011575363542425225
Ni 4.948113746937116 2.9600310093600326 2.167539548807934 1.9107849912052834 -1.1278144016980578 1.0584041294250353
Ni 2.985347654327294 5.924233669023403 12.653996362019203 -1.4375657410611307 -0.5318373168976775 1.4085349010464194
Ni 3.4200687650950585 2.3257366681159666 4.327756047626616 0.5731006944228387 0.40442527129889055 -0.6797130296674552
Ni 7.9447738809118205 3.8397682348592292 11.763075228799904 -0.06537903962644225 0.3817545691742522 0.2197568151807957
Ni 7.042726188601869 6.662606522935219 8.375599909766645 -0.9069214160302896 -2.676016254451217 -1.1132218485958634
Ni 3.0108677944313045 8.524392778823229 12.551108295901429 0.06736778792169688 -0.02683280392212798 -0.5183647363325394
Ni 7.426675262750963 7.5461454075800285 1.002763910331884 0.0027683067737565227 -0.7311654319104762 -2.689317085325181
Ni 8.29089135918364 1.780147706936219 -0.14916286021430772 -0.8045454874645241 -0.10197972156861147 0.5957508277221869
Ni 8.87117624117895 6.148929299109163 4.497481166431434 0.5047980533916985 0.22597759927952693 1.5690725255545817
Ni 2.82030384864558 3.279879115433451 6.45761939684352 1.8498048519774852 -0.0029775945710851944 -0.49725880759185975
Ni 1.4246232034792683 7.374145768133104 10.629350173257944 0.3557221496662325 -0.12081408066629515 2.538873611828228
Ni 1.0475837142006696 3.5885812378804345 -0.024251995410911092 0.39420050824708885 -0.278307776141811 -0.5688352342782655
Ni 2.7832214848626964 8.054004520450876 7.394705251789929 -1.5143836186521338 0.2036491109856557 -0.6338553479033922
P 0.19691391903016162 2.541765255332042 1.7250911727111056 -0.642734395560577 -1.0028952977244534 -1.4954106770940567
Ni 5.1814949194504445 5.242062471969857 9.44747076853821 0.31306240601417695 0.9760887190545706 -0.18687291996858138
P 2.4888195206617434 0.5898223290635409 5.422207466754075 0.09006265841605134 -0.12523226433864884 0.6202544692905059
Ni 7.5642749743085025 5.899028021403458 10.43306246426223 0.7845844709615649 -0.3154604739327083 0.4237447975631089
P 7.983706200483324 8.494497493279132 5.135121152719218 0.017483758607060213 0.057012412829301806 1.2784843893835207
P 4.498592989860394 4.310813227536542 3.8395758394572126 1.1555064682966874 -1.8836608812949818 3.6099414527638602
P 1.4587456380003605 6.891464553545372 2.640218977424493 -0.07030141662872409 0.1681720011249684 0.7333369856404983
Ni 4.144002714076696 7.298473326599612 0.7793059006687112 -0.632143507418608 0.07121055870655478 -1.0700877364105505
Ni 2.8209883322873694 2.8078536461881693 11.675849813366483 -2.5029815259173085 2.1891621871324496 3.7990376056360056
Ni 2.12907711800674 5.699935779432197 6.362353148574861 0.31119681356034795 -0.09003514761222559 1.6206426843223893
Ni 5.320260103154816 4.105616131462836 6.137689892715403 -2.9639520406010953 0.5096155293849998 -2.369510932829267
Ni 7.786852405016292 8.22952832567512 12.29220698328409 2.0622962438451196 0.052729983403864034 -0.24987471761209865
Ni 6.910722593304904 1.2588949141557648 11.167633659028432 0.07104009456696153 -0.6731361477808858 -0.015287008066057543
Ni 5.809369914108001 2.0770933603465243 4.572468199345242 -0.10094999475251645 1.1947774979821681 -2.59656273900958
Ni 5.583148070496629 7.531318011934242 2.4317474596049293 0.6307913642660878 -0.36651486940636235 0.4183349394014473
Ni 6.66637118296506 5.007525077088641 4.167141036102858 -0.4738345151306485 0.5746649535861652 -0.48319435907899366
Ni 0.6071684395155343 8.670483787450532 4.179244371849903 0.8811831307239212 -0.038761694149230023 -0.7073071372356399
Ni 5.998638890841691 8.945905205260248 4.2433740142403025 0.29395628131234536 0.48549112553297036 -0.5845030227225095
Ni 8.961056343169043 0.2671521154345834 1.4371659037261106 -0.22142983200784447 0.8802295085614001 1.3879447355998935
Ni 4.235779020750123 2.048752037664869 10.48410089451446 3.105118202561181 -2.5001674535072813 -1.9487928379076243
Ni 2.109236342173793 2.9855418996850993 9.418959249924002 1.3838384267410038 2.5285979409338326 -1.3844920011646027
Ni 3.4584368481510324 7.399915652268578 9.360258302795307 1.1561101633189572 0.1533375072152972 1.447331819308959
Ni 1.6520937672479572 1.366247848569371 3.0006273641633996 -0.5224872431413453 -0.05522138236715005 -0.9993358625079692
Ni 7.315853661233694 1.5558868164607853 8.6208272741724 0.7350544825522373 0.252878537435429 1.3821656670242712
Ni 4.638773389743058 7.031071467133565 11.587108359164286 0.8239290341974584 -0.17597632766073562 -0.18984562944366015
Ni 2.0165535571639417 5.074585974426108 1.5233756934315814 -1.7475626207761066 2.9377553276010695 -0.8047501472761625
Ni 5.824863293837692 8.969001903281164 13.110619099368437 -0.3681349215082886 -0.46641739673097093 -0.3066773284234396
Ni 6.407062880074224 8.073105313968375 10.24182513456945 -0.08426842033177745 0.19147005242096055 0.3203707667501321
Ni 8.614032386560801 8.944138497482115 10.096359410998696 1.7593254177389894 0.8373028844012032 0.6609959128739261
Ni 7.853182569817255 3.244202718049918 5.094682969135779 1.1609093844798137 0.7082926410773608 0.7122351706648766
Ni 8.649893779523195 3.923062494241835 9.1622788092309 -0.18951961356280908 -0.45768747305714086 1.3034711412358453
Ni 6.325526078690808 0.9973851638764717 1.556814569288778 -0.05280197429238003 -0.7259820879373239 0.6876214858812545
P 6.97625727711676 5.450163998631696 6.450173324794326 0.4908385058878127 0.3736473666860855 -0.33863408383569427
Ni -0.03934763464604855 5.6896315256895855 13.152085858370349 0.5841518100306778 1.1997829216165594 -1.4184909838178668
P 0.9004622801991039 8.994429545595743 12.207324536856955 -0.9966652576543417 0.7637965876819363 -0.3641391700853342
Ni 6.042353346126776 5.5883371964837085 1.0438218291045114 0.6226288830599535 -0.7420219150090059 1.0796452981919986
P 5.207015059554455 4.30904651975841 11.753056793226634 -0.13312477971284814 0.7100047386724612 0.08322686644114052
P 4.547598318700932 9.10353993800854 10.703172659002817 -0.577131927069419 -0.11876979654275675 -0.02386369399147503
P 0.34206607509474163 1.9855112990309016 9.387957690818311 -2.0747637801845107 -1.2495569077158932 -0.2629156099564569
Ni 8.144948347019424 1.0396566536464338 3.809453934329011 -0.27370987235848343 0.36377895853243797 0.06314680786181383
Ni 8.07867368089212 4.156859906807604 0.6606682359445242 -1.6417234162520886 -1.5068790827449725 0.7195134494938448
Ni 6.772826888821185 6.074995816016973 12.625498718073409 -0.48503629738373877 -0.2628341059862441 -1.2903389747292617
Ni 3.0876317098800823 5.084076247621727 10.53007599577324 -0.0873552867872173 -0.45838141380037184 0.08662972147510242
Ni 2.23918648654539 8.910830043508016 1.7180113919080575 -0.2588491531965671 -2.616906592773254 -0.6006217826612431
Ni 0.43779388733266117 7.545655169296044 6.531590804029376 -0.7448886950338398 0.3989768465898097 0.3152321599719861
Ni 3.3551908155881622 1.0496464149049807 8.106654262194995 -0.20077461765133808 -0.30882548511469393 -0.46356372933225964
Ni 6.052685349206218 1.3046443208083323 6.494036701520395 -1.0553630286058664 -1.1284857167334692 2.314291093124014
Ni 6.072886866417946 2.4569170330869956 13.086196908024972 1.0670808312634266 1.2380553348341967 -0.16061450049268466
Ni 2.4462242886287733 5.1475944796239865 4.157705336603003 0.050434502501467984 0.32349774241488805 -0.9805850642630274
Ni 4.541252970345966 6.407284874768859 7.1766491130295265 -0.10962001172268863 0.05798506115521626 -0.05185220878460102
Ni 4.318610791185575 8.812440144890273 5.778960340854669 0.2973750771859072 0.8831281702654339 0.942432721563022
Ni 7.519829786486912 2.988881069883558 2.798884135547046 -0.46744686643674976 0.9397574887237041 -1.1250347820703916
Ni 1.0437543057182268 2.047318321928689 4.985579976546139 -1.1115943402947694 -0.4112700621348659 1.8096128531396318
Ni 8.817509023751091 5.65968074147183 2.291940750791566 -0.28928330131670826 0.7292003377643055 -1.1587074917324882
Ni 4.150218565526458 5.275398675280786 2.1953471592445726 -0.489207398042293 2.089338592674892 -1.5486733930729393
Ni 7.867630724526375 8.00641440778863 2.986859068206597 0.5345572869320019 -0.21235229518660845 1.6376016807742313
Ni 0.8454029710403075 2.904809829069732 7.150858879380378 -2.5113874905928166 0.269746002614729 2.222806357549455
Ni 1.8563843849852406 1.1947384474064306 0.15739516347366575 -1.248733126263017 1.274692012220624 -1.4124776877442513
Ni 0.7285680882321306 7.734600403766726 0.5152829854505782 -0.16192422044304372 -1.3220267927508458 -0.93432654751612
Ni 2.1184491220011195 0.918267179686675 10.290860062702604 -0.2814602057278637 -2.547123253431529 0.9210275164143688
Ni 4.578899570644379 6.469471138603313 4.3949991656092635 0.3619421624340154 0.3363679135093368 1.0295661221474204
Ni 7.631354371203855 8.650966753880596 8.07685794928559 2.0705543700888533 0.9558317685777473 -1.9812864396599552
Ni 2.724614885479222 3.083848550292355 1.7674514603589215 -0.4897702125242985 -1.9643593248873135 0.20550081948241383
Ni 4.500748188354136 3.057310934504604 8.300437131052917 1.8488023788548997 -1.4770231757258048 0.07089714123119403
P 0.6527670747713291 4.258292982697627 5.42540234040102 0.1965289550011067 0.7665044735314025 0.9634715445111923
Ni 1.3566095789106618 5.536334939265606 8.922859381023516 1.3654550391378097 0.45530611730915777 0.7390060110008175
P 0.7913629875210406 7.7591308175238245 8.7494926242488 -0.37535715028834066 0.7353925826179464 -2.5285899705140324
Ni 4.185450973520722 1.3245313455359948 13.234302518506084 -1.0106841976412528 0.05178947386746565 0.7440158055105831
P 3.480932310540649 4.729291726480224 7.999637094757023 -1.8544423507494965 1.8381682961798216 0.2938722062389713
P 0.5923317940908036 5.318160403334732 11.04382906778663 -0.42713016909557405 -0.8876581969253035 0.02889637131937604
P 3.851913194611518 0.9982268937602938 1.987092086252277 0.9450889282389465 0.8095316278252059 -0.2061104280419547
Ni 6.25384029188179 7.571110560947452 6.1490883953069835 1.5782037984318884 -0.4376184702214076 -0.30065014839275317
