# total energy = -340891.22727505874 ev
CRYSTAL
PRIMVEC
9.04425168227291 0.00000000000000 0.00000000000000
0.00000000000000 9.04425168227291 0.00000000000000
0.00000000000000 0.00000000000000 13.23717654397339
PRIMCOORD
 96 1
Ni 6.360786118958908 1.8028540224811624 11.386883961556604 -0.6616780265426152 0.05365583765224308 -0.04609448036521739
Ni 4.8638358253508605 0.45671301005656123 5.859264267749019 -1.5488991359305002 -1.026478227250716 -0.21411787172746347
Ni 2.7208636694101473 1.514767469668125 4.918935216210358 0.8199726206528717 -0.42796886294678554 -0.18301060879969774
Ni 3.56093899851695 4.331690137521975 4.74270796974811 -0.8400449659227146 -0.04753635501806652 0.3774567131298467
Ni 5.457382938698465 4.421255363168147 3.2397323955861417 0.14665495298879905 -1.0492661716795089 -2.3780588223992787
Ni 7.779720696478507 6.403619695517553 2.4148848732470314 -1.2728228202223693 -0.21341261813032278 0.7284125517556874
Ni 4.735950104797809 4.750384730682015 11.201471372959015 0.7623678256552097 -1.1699331852449786 0.4008136426882323
Ni 5.430874236651718 8.062453052221715 12.601421161510235 0.3766542718332094 0.38339390454988814 -0.9857203286070636
Ni 1.9057595195428756 6.4519793099303655 0.15931901770878923 -0.5857039850091461 -0.3336777682716834 1.1965250768008941
Ni 2.8441910870523968 1.9094586185319984 0.2996722393779922 -0.089222164792627 -1.3968065568658976 0.5105709513197336
Ni 0.49372932385285045 9.452961546311455 4.785848146443017 -0.3825685804351153 0.02136458171870514 -0.08013074401432006
Ni 8.765987311796026 2.278907260602126 1.4243602241787077 -0.13304918927990633 0.3377082295873152 -0.7985085372418248
Ni 7.19255882490675 0.5521741834558119 4.814268803321794 -1.145534701795956 1.1262056624500412 -0.5856474207395979
Ni 0.8345140186705885 7.641072316274952 2.858846392680697 1.2810099840188518 -1.027251872191947 0.3910588772943136
Ni 7.7648067252485236 3.90197964566083 3.721116315722237 0.9440453174657806 0.4142803097160994 -0.021707823990736806
Ni 7.607644761595738 3.4729655611888357 12.598244820275566 0.13273011537759077 1.1676749853384212 -0.08675262020621187
Ni 7.850419612854973 8.77992450383084 6.902843402343246 0.5970908866898491 -0.34050173317205235 0.8582676595783284
Ni 6.702704058528081 0.9015445865140742 0.5850753626798495 1.2167046370725627 -0.08228018625715507 -0.9209771227924074
Ni 1.9089159634235697 6.4239511735800185 9.153746041649724 -0.8752559666062087 0.2967832092381792 0.42597368689362775
Ni 0.22358656662519158 4.829160163922261 1.4929681095373597 -0.2360205853378258 -0.4571596255781288 -0.6385434974076809
Ni 6.354355655924026 1.690225954726767 7.061239906367705 0.8966061501472107 1.261213261007899 0.08828448346970601
Ni 3.4145758715218983 4.3323051466448605 0.3909070339077633 0.35755277511706807 0.9526934800590816 -0.6280994192562215
Ni 6.396519957848943 5.814070141468708 4.76661464054994 0.2131033144200201 0.30297622542276853 0.26425695447569975
Ni 5.251309661272631 3.109187665001789 9.301870084471627 -0.30677657300546524 -0.49152293354934706 -0.0801975926965135
P 0.13391009668179185 5.428721704721617 12.254660929523514 0.380180539818913 0.11269402266232204 0.8872177669537753
P 4.087006949131434 6.317093338478583 12.530205818355583 -1.1029415497157777 -1.4474367203179395 0.8571924242362785
P 2.503105218649481 8.253956039986235 1.5324019518416991 0.4889245766945515 -0.007702253740264154 0.10650126358804884
P 6.238788206332307 7.803353326450582 5.68647926352457 0.8704122653606622 -0.3266889956586761 0.9813931619866195
P 4.725576347975013 1.2597738342174365 12.640418166452289 -0.5210793070502252 -1.4040203010055177 0.07203948236575335
P 4.024574478906701 6.125997342045385 8.177212850127056 -0.6994560166223374 0.32775368947776456 -0.2641145153605645
P 4.5771420873161235 1.0773422310154843 3.646749955237975 0.36996451851785966 -0.1392524898771408 0.5549741600254571
P 0.4785096569117843 5.624873437915011 3.700347095872306 -0.8202556991109293 -0.6330557348202323 -0.932504920926349
Ni 1.54514711148833 1.0254734469014992 2.6498445865197096 0.49201092892935905 0.41883964695200765 -0.7267793870276387
Ni 2.1834451827776946 6.296608108135396 4.77265077420603 -1.058329567433358 0.875328471715357 0.3318836524857381
Ni 5.993670893855024 5.59935960356705 9.148623377426155 -0.18587816015547987 -0.4995823135187138 0.32669130965152127
Ni 8.407400816146282 2.299491977715191 10.374955186161488 1.1381314673533496 0.19659683212456466 -0.6926798742407684
Ni 2.2086424683124046 5.215503468368138 7.006450733345193 1.0790557442371158 0.013398018573460799 -0.47642798688943755
Ni 0.4481453903196514 -0.14419341098651745 9.04251440637435 1.800069175315255 1.3712058255786579 0.669039352003693
Ni 1.3942889913451264 1.0003846923884747 11.556068449136626 -0.46408232083989104 0.47365170969588105 -0.16913359370728934
Ni 4.468403047838802 6.908542185406928 1.5690555911405217 -0.7275705154703662 -0.8955419705487545 0.3283059624368088
Ni 5.725327942736987 7.749160169622161 8.260620749142921 -1.5739385953976313 0.71326566881192 -1.5416249708665901
Ni 5.178575788239559 2.8244384411055887 5.060652311052079 0.791154925090231 -1.4669133409853126 -0.07291134344774539
Ni 0.7442234440294836 7.311400293652655 7.103148255966481 0.07989086008937209 0.56456925991306 -0.689096270654568
Ni 4.844752454037782 4.494215342496398 6.983365280607451 0.8048339652392204 0.3474123442489565 0.048868957786560994
Ni 8.100719281617751 7.2869084597589024 9.174886075823748 -1.349909635204043 -1.8376746443728547 0.07205927986009525
Ni 4.485786099812137 0.23955238434034729 10.444582358698803 0.45962197107569225 0.9051789794178863 0.1270891150417295
Ni 8.388869144193439 7.296504410926285 4.7592942231372355 -0.15238002839803436 0.041739545830631344 0.6702842801543877
Ni 7.193345674813972 6.193069513447183 7.03172037289436 0.1239035182248963 -0.22903926892398618 -0.04601040529184334
Ni 2.532028735928735 5.461154391702045 2.4595074028131307 -0.13839759807601326 -0.1154949824462269 0.33482807982604273
Ni 2.221204934072531 5.0740604143561745 11.470517062442466 -0.2679480301740418 -0.36167965280124814 -0.8603083441574408
Ni 1.5594370293436215 3.278387527809886 3.6802797099626092 -1.7584389013689778 0.9612385414156156 0.24002070763615438
Ni 3.7183722897239493 2.7267424330847922 2.5652853542487932 0.46173721764648223 0.30281167482044624 -0.019747614940572443
Ni 0.9228121446385792 3.4591007231684805 7.950778248607793 -0.7088207456666891 -0.5084330790411244 0.6320977417823371
Ni 3.469384037473206 2.6507888064083756 7.310654142878565 0.3230202885578372 -0.1727375090084638 -0.31297935938206745
Ni 4.200250026008715 6.712652735515942 5.877200827932953 0.6740355196667037 1.1965644146792618 1.2049392690065184
Ni 0.7373009736962937 7.422934006938386 11.191529931372601 0.6318190341996539 -0.7951437345346499 0.4176093740893324
P 0.021363427193660755 5.54161205577842 8.023026445318822 0.3622717778592922 -0.18937331779293193 -0.3255952483738651
P 8.448289878566392 1.5616800037917937 8.14652932144613 0.00048491005621851966 0.7955877640506039 -0.4570848064761353
P 1.5332448761101254 3.1470559473183117 10.19651752455757 0.11366615676760425 -0.746934521819275 1.1352222641263545
P 4.375482404772178 6.104788571557625 3.8099769941526325 -1.2311208124978927 1.4617608502500954 -1.2340796380159005
P 6.820876252640257 4.042274079693287 10.543093253807424 -0.3632477686193163 -0.5978154235606994 -0.1463119678270835
P 6.104318270463653 7.840715130665904 10.398160023023083 0.8036337742835321 -0.3145970974911485 -0.35329142873755287
P 2.0342873819742344 8.445739399556777 5.730281479451762 1.768849812289657 -0.6443187093285614 1.3827667909433798
P 6.949603088611373 3.888250471417582 1.4653026476844793 1.0138075737615833 1.5886771871593866 1.0831738801705475
Ni 5.410795997639853 3.0397639881301326 0.37392283343912286 -1.2672018744911662 0.3337757273021284 -0.47038795134294475
Ni 1.3642168540863644 1.2018634898962774 7.116200015749373 -0.011411841381367442 -0.8603677366404667 -0.9731049538358982
Ni 6.8148075596776625 0.5454533999379213 9.245187949545876 0.24513077516921009 0.9154127413307525 0.4663472056146678
Ni 2.586773592117393 1.3768968951199836 9.175415164554465 0.15879930166081685 0.6728520408815638 0.7337231653353234
Ni 6.33684598442539 2.0963399936230664 2.6666560417788334 0.10639044904179741 -0.5703462716061533 0.5649209868255239
Ni 4.034595509909019 6.826212361206474 10.36269751168726 -0.2639337668083261 1.0894867097624528 -0.326013052637574
Ni 8.083743220975737 7.13677387976027 0.09159746902723764 0.8463403120131231 -0.8818220498595007 -0.5910073994999305
Ni 7.351294488373979 3.739047449355086 8.101218524317506 1.0707328261937175 -0.05826531139979643 0.3933445880046968
Ni 2.9833640338607674 8.274821128905321 12.471552036535876 0.5244348537860194 1.150898794321347 0.21425491152596007
Ni -0.1117507753291022 4.764385232479477 10.021601694607357 0.28643066235926157 0.06483910796257221 0.8092778599431869
Ni 8.467698842944529 2.3437545460593663 5.906984453559066 0.15535428053500988 0.9412718684857015 -0.05205635437560713
Ni 3.5455366376893793 2.562544041526047 11.343731122909166 -0.33107478343119756 0.7270113005327866 -0.891646235038774
Ni 0.9359172655071345 3.162114626577211 12.636182743331004 0.4519066047093056 0.7969429925269178 -0.3767987678308737
Ni 3.0529414630131453 8.239078245763478 7.973267685151443 0.380294696799274 0.39490576184422954 -0.5019333302493936
Ni 5.747034147074138 8.177134165136332 3.528064952048334 -0.5003197059053706 -0.7358026735721714 -0.6924340767785495
Ni 3.0800651741827774 8.443496425108604 3.8152054761223435 1.1498086465809618 -0.8614607125943292 -0.7969926148179306
Ni 3.0654406190106216 4.285374524017578 9.255791430364575 0.9768927030131047 -0.07657053746688748 -0.24917332066969988
Ni 7.172118815822599 6.238643498303394 11.270489867349712 0.9606335608417648 -1.1317409904459736 -0.5244109425266195
Ni 0.568386004820122 -0.4233098748572271 0.7350390063193263 0.4242443629073468 1.8724575563799946 -1.3327418651755047
Ni 4.601380682159276 0.23627836518616027 1.461066320138012 -1.308000653675083 0.9628022863583097 0.6907659450475072
Ni 6.137583028610339 5.736841275287484 -0.025902737175667583 -0.8754362009378148 -1.3505871208870417 1.8568285915934861
Ni 7.877344350484847 8.67488456334264 11.490848540504931 -0.5848969157268186 0.7340044440211682 -0.5719218436233893
Ni -0.03710042533809567 4.924974967567171 5.752228260886983 0.07603626222997227 -0.468928850298915 0.12464245327344986
Ni 8.061901352861478 9.009105844623933 2.588172737871959 -1.145308444717763 -0.048797224008361124 -0.6279071007397573
P 8.54712546231489 1.875795913305799 3.4897562146688035 -0.12404621445034765 -0.3074409460623415 1.4566309852226977
P 1.8753617892190562 3.3769427397523613 1.5501657668161155 -0.36960173586180217 -0.11763928248273935 -0.5787964592560354
P 4.775618193223955 1.1765034078290386 8.360733381246588 -0.9932338633752894 -1.1267147408759755 -0.10883531103786417
P 8.506797143506823 1.3554439298334322 12.558374140608942 0.11118761332012465 0.5782544707096363 0.36554299241139626
P 6.484520527932478 7.847615894794757 1.236136682119459 0.013432985576454283 -0.048729861105535434 1.995639365947518
P 1.9388162598979959 3.2053823272225994 5.866557552406302 -1.4271206344684066 1.1935335982727382 1.3783586345733552
P 6.768772317979286 3.954988005502516 6.014271890621342 0.8133155203476703 0.15893711279026176 -0.6483897940741414
P 2.440907898971734 8.603805788390275 10.365252512822778 -1.1243806934261602 -1.5311641805445824 -1.4732966188038368
