# total energy = -381164.28338603495 ev
CRYSTAL
PRIMVEC
9.33520496987065 0.00000000000000 0.00000000000000
0.00000000000000 9.33520496987065 0.00000000000000
0.00000000000000 0.00000000000000 13.66301609039336
PRIMCOORD
 96 1
Ni 8.941707513741669 5.4181903682063535 9.290809643407478 -1.95569804966789 2.2563379136479984 1.4701303052607133
Ni 2.2295083584158397 5.860819116989105 9.671953930983696 0.9462659792661833 -0.7341144872364711 -0.5009028321023503
Ni 1.098296212655057 6.903710887505058 11.394422492618235 -1.0532524100207667 0.43765729387914304 1.199351747616412
Ni 4.556205536900797 4.25854318777738 5.429846305266991 -0.6371227058007544 -0.6909220110093971 -1.5054665186681622
Ni 1.4631253623161078 0.29208456408919387 10.68117268326208 0.2646300215444023 0.7518121616265504 0.24265583126615625
Ni 6.537089378468993 6.682877276175209 12.031665995748208 1.9463374343885966 -0.4441778686064802 -0.5735722347426186
Ni 4.7668170986700185 6.281332764941607 10.366580939729351 0.9974039355925791 -1.0071057362613753 -0.6787732914620052
Ni 6.92333348857943 3.959947318146143 12.883268211965792 -0.9113164597741918 -1.2402523424855156 -1.7915215428555595
Ni 8.822011514229015 2.87458036452439 3.04765880075621 -0.10205068401586295 0.20213344567207772 -0.7452378508431423
Ni 3.5507666091585746 9.016865249826239 6.548041441066735 0.4617457022869145 0.9371689020609215 -0.13354824040351196
Ni 9.338565752026016 1.0233158454669717 8.748005742451094 -0.049066932729980015 0.023483427833920847 1.8236017112195562
Ni 3.8054496741019683 3.7298345129685657 9.604621897316179 -0.7307681964720576 0.3078654351942698 0.07467434888543913
Ni 4.174526342073599 7.740537341124871 2.2057577296558883 1.574710183456333 -0.15361390080513546 0.09749417499343209
Ni 3.72758472854472 4.565848803746575 7.55682330574746 -1.8925299016498371 1.098885120258217 -0.9027757692930323
Ni 4.798332751014015 3.71815617141574 11.454812867789604 0.35869923001668547 0.10442715466783949 2.62395527208992
Ni 8.197411612856952 9.155549056467947 11.213183220107053 0.5844582855275031 -1.3616534060035324 -0.4733334071245139
Ni 2.4556723718453393 1.8710924946435108 0.9913642390458238 -1.222209883161508 0.720545747413101 -0.9085949470779706
Ni 1.5676609887817674 0.6252309612353488 7.34805171289915 -0.4086681057356446 -0.43798176709809733 -1.2193713852714485
Ni 0.8291127736636981 8.572005387029797 5.67583549372106 0.6518723533061032 -1.4305774826687556 -1.0607240358074634
Ni 7.048443907037438 1.496592072521447 2.2645219121026363 -1.0226524257467227 -0.6521186649889543 -0.9263013632187983
Ni 3.1861241635990876 0.06071710734910673 12.930473543484716 -0.17660573371461843 0.09314412555485249 -0.7982431993955801
Ni 0.5473137385296626 0.09638505891188513 12.869085234890486 3.365534443134552 1.0002347201731547 -1.2113940234929266
Ni 7.913892099427005 3.0500262087640406 9.261790224901393 1.2572738167441766 -0.7684986211432958 -0.4758062941450386
Ni 8.61845736749891 4.343064134555384 0.5901996706589036 2.3914846088868815 0.5159137036888857 1.9934135619407927
P 7.441922801083478 1.708566574232086 11.157451112269705 -1.402801340996752 1.8181039213297785 -0.4711639102770208
Ni 7.656781881163279 7.366793070614141 5.4656029412780125 1.0894381159127042 0.18799674916037942 -0.37245643170177795
P 4.549344161168322 1.1781308864838052 7.751111327916946 0.21779583479968295 0.3187154905348963 0.12283136820664009
Ni 6.766072623832108 3.7409527422166993 1.445506096251517 -1.059817207722478 -0.5404903645869852 1.2805551558696204
P 4.690436450720203 5.319713289836444 2.5006596586376824 -0.5751318659202547 1.2002405779792684 -0.5482180722485461
P 3.522620965847808 3.5442319656038355 13.45954629129158 0.8653633900828451 0.23163813999941396 -0.7042243845452582
P 0.6709463940237916 7.39979302056557 3.803633043193751 1.0425113694541788 3.22874198476213 2.8499583252907437
Ni 4.736178955603373 7.361443998104334 13.12248004153309 -2.407929384706466 1.274376023642102 0.4870988363397224
Ni 5.549452686810894 6.984264372124827 4.132679418269562 0.2070645644251079 -0.2151727953545391 -0.8971784777109129
Ni 0.43937262925147635 6.078348065721271 5.441965268499508 0.8981431556170274 1.0011742012682885 -0.18568892696280925
Ni 5.622472660932558 9.151786968821433 11.94736535981005 0.8234420672587109 0.10536740709392177 -0.22265959064988752
Ni 8.022628568177854 7.933738745423254 3.0239940558829783 -0.9360594710468266 0.8862782858586414 0.41358739741413286
Ni 5.162508436319592 5.250427397746059 -0.017673410254044196 -0.720569915782817 -1.446137799000858 1.1778863786537843
Ni 5.777978507125177 3.133697651879928 7.083795395148066 0.006057261937673439 -1.0339763353999742 0.6635207361783089
Ni 7.469751047421585 2.8688392134012983 5.512876419794006 0.16015453013713063 0.48612207424874987 -0.4594232248013249
Ni 9.252635189281204 2.7147243127653296 12.048156635518843 -0.6406466597936127 -0.6062571265701495 -1.414436611242835
Ni 2.221554763689215 2.258727550310599 8.937552413961361 -0.4017983751990048 -0.2671183351838948 0.8790360024739313
Ni 7.933271985169344 0.9243318654613163 13.371720681915894 -2.5465974628350465 1.0559934631010137 0.5130952604034841
Ni -0.43473863345065894 4.966749185829783 12.134958172897452 -0.24274839097996256 2.333867986814677 -1.7729568924794952
Ni 3.0458066960686954 8.78640704206077 4.237256119637565 -0.07900022995430266 -0.8661964275071017 0.23371944800847488
Ni 7.610535275205887 5.123599301553663 4.165444121053021 1.2733223855666072 0.5870522715069244 0.5144859701034237
Ni 0.3805459009307046 0.31342857697998544 2.6015200148640556 -0.07865261680689681 0.8204318196774774 0.4278711610266566
Ni 6.189409000536592 0.4433428919712339 6.084168566087528 -0.03522231353740386 0.2808266859089228 -0.03700897312418142
Ni 6.788505121635018 7.408745482235562 8.204135761074777 0.32299586307780503 -0.31026350311280115 -0.1832504927246457
Ni 7.184989951716237 0.9739419458083832 8.27437757816517 -0.3221587118884903 -1.410883603784254 -1.3418451130283535
Ni 6.784033558402561 6.2854215847658566 1.8507781548728444 -1.346055294454959 -1.2271428016867512 1.1578240606862704
Ni 5.7385185952596345 5.615676631635629 6.577321311794503 2.375776197012689 0.33533947224482247 1.082171407047962
Ni -0.11571920214934073 8.166960173891871 0.7632006246885742 -0.8609837729579107 -0.43200009559336566 0.9999236166906393
Ni 2.7184770652067654 6.254848788134758 1.0320732013508291 0.930727774421268 -2.6216965579627303 2.336977478977936
Ni 3.254877949000015 7.941832368226051 10.926573753796225 0.41320790258752704 0.5893053292071592 0.31188304099409514
Ni 4.531681953160371 0.6081774085984971 1.2770243150002019 0.7103335827667896 -0.5350555667246591 1.1928188315939006
Ni 1.15665991480395 1.4903468203241328 4.623797089269488 0.6125187912091451 0.38916268871286525 0.09498709230086222
P 0.2329871148211545 2.207159877458634 0.36693703896770785 0.7306797505233094 0.21717414205528401 1.881192365149831
Ni 2.8475549458230076 6.291452127246373 3.6956685959028692 -0.4031919131124218 -0.7083201518811866 -0.055693951128194405
P 8.143995569399504 7.408866839901579 9.95160773599076 -0.04611119253576575 -0.44868064157284016 -0.22367929016365345
Ni 1.5019878210566455 4.290469589144816 13.371146566803585 0.34338625380869897 -0.16013653241500164 0.6518533271427096
P 5.802194029098022 0.20609705659340555 3.5859948725621695 0.25437157704118774 -0.2774282017503351 -0.061285329173042837
P 0.7180835785456439 3.7537326379687523 9.249233440550709 1.0747180360937103 -2.8466076636509556 1.1272927248666327
P 2.304171328631266 4.75469066727344 5.611728773408059 0.5227469245606352 0.7005456501420902 1.0085581524371854
Ni 4.497001666294866 3.1072603510984718 1.8616956772117967 -1.0843324192550228 -0.12992169939451817 -0.9725922758655378
Ni 1.5652058298462015 4.411920607212171 2.338739593035833 -0.5858099144593911 -0.8464439274705229 -0.8052160311689874
Ni 8.175389864077482 5.071060767373566 6.762961199979545 -1.3922194517158473 -0.6564890261425081 -0.05678127065510221
Ni 8.023982172914192 0.9219439200023133 4.3301516788912195 -0.7346901572342831 -0.46457160177148377 -2.088800717893551
Ni 2.872386591331014 2.2971979304378523 6.546894144362624 -0.3764946063268935 1.5188269991354681 0.4349357811829219
Ni 0.38541701094050834 3.9079595610656592 4.943456915639171 0.2932692825476498 -1.1386888825187162 -0.3302224627332313
Ni 4.441550548130371 1.666959565198558 5.158840634244368 0.8507512965966252 -0.13792348665307214 -2.188001591165445
Ni 6.857641650444151 4.418436580356753 10.606722555722438 -0.9176146340780776 1.757255165473522 -0.2916643999543751
Ni 9.313080642162536 3.028713935570515 7.138078679157277 0.0117954499730313 -2.001195776989373 0.2787448636792296
Ni 4.407570401645731 7.108711991022283 8.078654734975165 0.26214042235332924 -0.10199797640105661 1.415564554199691
Ni 9.035022223703335 7.133030200250988 7.445483248300302 0.010258444503214592 0.7931467587092793 0.13919181184253446
Ni 2.170687231218115 8.735446157538886 1.379568742222682 0.19237970871942353 -0.32185506460514246 0.1456697062573943
Ni 1.1279074831631006 4.978278164101357 7.638814411949271 1.8267500270405506 0.5386504831647692 -2.324873496625551
Ni 3.171290522729831 5.742924812056544 12.015857759468787 -0.418256520755028 -0.8325818247764499 0.7234932600771992
Ni 0.907285780988527 7.815461697082487 9.226416332298577 -0.23121030843337598 0.9044845244540228 0.4672823158344275
Ni 3.7526684245898374 6.911869856743403 5.883527003341821 -0.01982860469015295 -1.9416022336964562 -2.4925050518660172
Ni 2.1732077365892284 7.063202866266068 7.396924312045041 -1.1700033763612818 0.6211109037535304 0.6177196186837942
Ni 4.973890617714604 1.7871129897600426 12.996643344119997 0.524088011969562 1.2909485832888026 0.8086705653764911
Ni 2.9600441670152913 3.6324589887978838 3.9705269060612647 -0.31754409593461447 -1.843259851770116 -0.9737649560174003
Ni 2.266578457781363 2.678251666524811 11.683149183440799 0.21860573229548805 0.5088346853549172 -0.19591883222093354
Ni 3.0410924175042053 9.114287450022312 8.884444432271495 0.8945248421381498 0.3139198689184658 0.4173548348763651
Ni 3.9359465058900964 1.359868658946161 10.955156284704648 -0.004549309933579262 -1.2686787161470086 -1.5542745413098005
Ni 5.718214524214554 2.1001410864421737 9.388159029003942 -1.3884160188093573 1.0203145216421654 1.8304249047889767
Ni 0.3952656522980071 6.3808740566904305 2.2419092448417177 -0.6962753049015105 -2.5152762841242615 -3.492032204449186
Ni 8.535196673406464 0.604297697367998 6.329747939038664 0.8845389345700314 0.5060514661828253 2.8344653718614667
P 2.7757112075411965 0.9942553520585418 2.9041150863507927 -0.4935589901427693 1.3994733050647834 0.2690232655160915
Ni 5.512195883343806 8.911284080391821 9.556418632374395 -0.6744445821796643 0.14540873928652376 0.19076505593413598
P 7.922069739075506 6.652323149954267 0.18657900981590944 0.2407712126489337 -1.0537038957358886 -1.8109084320226037
Ni 5.861033826705904 3.9143915173645376 3.517666772512808 0.026176915505683948 -0.9306146458821715 1.565186303126298
P 2.1710046281907736 7.416764423397734 13.257743429034146 -0.7700196857735127 2.0710567636465687 -3.3635492943837235
P 5.7530815151816235 7.710954076232062 6.1869967835443855 -1.324382437467216 0.6320020967447374 1.0002365199453678
P 5.61655414091298 4.723632439978275 8.631310077850573 0.5804435079411552 0.3958352156370344 1.3889706057612465
Ni 6.510465373585973 8.454111082097237 0.5638781264204169 0.37540111615239863 0.144001574526352 0.3357387645657701
