# total energy = -381165.6949847364 ev
CRYSTAL
PRIMVEC
9.24685712844373 0.00000000000000 0.00000000000000
0.00000000000000 9.24685712844373 0.00000000000000
0.00000000000000 0.00000000000000 13.53371009411739
PRIMCOORD
 96 1
Ni 3.0711955452308213 1.8467822453994462 0.9392910930129833 -2.263531860293276 -2.3265511414382902 -1.997285386191373
Ni 8.862400260276754 2.8495853745256183 3.539024546713736 -1.0465562289475137 -0.36358021225807063 0.9821737489063859
Ni 1.8192081183426607 4.333317527200885 0.23432552352739786 -0.20836811372787986 -0.026923820974037505 -1.3967818742755491
Ni 5.944684044653083 7.586417239923685 4.230705156996611 -1.1496407535445299 -1.359717108212768 -0.38433312853470586
Ni 5.612139332599707 6.0885096557333105 1.8439545565818858 0.6477130797220909 0.8921247173370893 1.528751971558664
Ni 6.545008483546648 8.472783947889884 1.9974533045883716 0.07861019360473559 0.5141668962011081 0.8515971895366883
Ni 8.38745395309444 4.003778043616139 1.2819888538619162 -1.7314734285237279 -1.1196285234531556 1.0727866233989523
Ni 6.060047830421175 8.003653913651473 11.242886115191487 -0.928260286717382 1.2896722876795401 2.103584303960629
Ni 8.630932940194445 4.840849757839977 5.929564509055983 -0.05511802402006636 0.43851269990090286 -0.9140801385622581
Ni 0.10649512538574445 3.212247099263082 11.32073170407152 -0.5340741766479964 0.3959432019698084 0.935858410779614
Ni 0.7485071689104649 2.557800807363694 5.652529603218095 -1.477807876410629 -0.2807698645290584 2.0323678317168032
Ni 1.0168213640752288 6.580165033201208 0.5074046240148852 -0.7032638204042017 -1.4530700073443168 -0.2544664507478392
Ni 6.566174538822631 9.409324100996969 9.51453668734087 0.47956781806999993 0.9585357977724718 -0.5680883288099119
Ni 6.250958436462217 3.4191362739004103 3.8632785269364236 -0.7482416706664726 -1.9379489532145853 0.48321981300029043
Ni 5.269857680307968 1.8855358223595358 0.19745923004560811 0.9253096887294902 -0.6191092999424692 1.2068007476952893
Ni 1.1999646103819652 3.2996668837013274 2.0113124936000113 0.8511701293015986 -1.6883028066735246 0.7873988004819085
Ni 1.0413902626633837 7.113912102943582 2.8877554748199525 1.5860952853648234 1.4344935298937103 0.5195381878153503
Ni 5.067952561500154 3.8340889739920394 10.924938491324511 1.2290870698973155 -0.035606950570332224 -3.268342372762571
Ni 2.829871075771404 7.8008333560178285 11.437243024771789 0.4591391179020028 -0.6940559286526886 0.7044940932668771
Ni 2.1595479307008225 1.7021521577753085 3.624801164693903 0.027713920975500655 -0.40918695435359204 0.2161225608623181
Ni 6.647352694902952 5.619314893497113 7.6271385480164655 0.5667935212578884 -0.6746723819197541 -2.4833069303065165
Ni 1.8177286212504122 8.523798857001985 4.994737798518861 -0.3895848638519484 -0.6808803105026789 -0.7071996651234982
Ni 2.0508048944205424 8.500117656669179 0.29901375982892453 0.07337234224456396 1.87549557187537 -0.5761114562247046
Ni 7.2355082702127715 5.502212698645628 11.47956311440988 -0.36111375299544907 0.08816518428302236 0.991113474598177
P 4.491734678353415 6.695353128689597 8.309427125820608 -0.4455894042420261 -0.5240566445109942 -0.3791436139139664
Ni 4.368714495132935 8.852663320038392 0.9209175884986197 0.007297304992361626 -1.445280593206885 -1.531663488778504
P 4.167216238025488 2.2744863610548935 4.492054619599615 -0.16363271849371816 1.1645526376593558 -2.043162865449778
Ni 6.372156988887866 0.5548030874221205 3.9684763183094027 1.2072419489977662 -0.7552754375848024 -0.13793994171330437
P 7.770697849620087 1.9358942046369507 5.2046312769391365 0.5219398552783074 -0.5001662110466418 0.4246811933344492
P 0.8409738878046435 8.591837229531771 11.107994817177078 -0.3677770239482376 0.8114560985414282 -0.14546710332828497
P 8.701856332054117 4.979894743940875 13.073752670621069 0.8682425114028531 0.8888321626287466 -1.5954021645880458
Ni 8.096288925339895 6.313837062882787 1.4907653119775441 -0.3452901556996311 0.31710366596308615 -0.8994870712394315
Ni 0.27541485652187503 5.771453428864412 10.96904414901581 0.1029739671610807 -0.5500512688025431 0.6005541626481012
Ni 0.1586122598315704 5.128685917136963 3.179068452283722 0.5319743566961741 -0.909927292736149 0.7146437801063692
Ni 5.688934478544241 1.5521403994781164 5.773318519886329 -0.6757671576458297 -0.1857802011250349 1.6051425318042614
Ni 3.505289238953418 0.7431837534354174 12.10070592676275 -0.04409801876047889 0.1419392926806846 1.1591054985018554
Ni 0.2022860893090695 0.504981947526328 6.232124438477892 -0.2778822585686182 0.11877725274192448 2.1386572364043617
Ni 1.4565648873188501 3.888867353832548 9.338368345138402 -0.12112801236228816 -0.8106253751100168 0.3569079424442176
Ni 5.79963784847175 5.662784367438745 13.190197413952186 -0.8315628965936324 -0.8985306208634332 -0.8881526200632188
Ni 4.520529390511306 1.2716185039309353 7.87798635532155 1.4702323780562165 1.0707798773815689 -0.018817389816819203
Ni 1.8298697442636782 3.811147522205358 4.397914219619829 2.119700492796201 1.4091907894628632 -1.6528436945349663
Ni 8.194240879703585 8.04168623577909 7.821239319662668 -0.429617454293802 -0.12945632972232543 0.7174753360178934
Ni 1.9326578047476568 8.416146949827239 9.256259030575647 -0.17061994844482872 -0.4257212045631894 -0.9686384334241124
Ni 1.6041817096979647 5.8242622282008645 5.188784013709788 -0.4755833795009551 2.25966569246965 -0.35762913688095826
Ni 3.6904760406188233 3.5325212323076203 2.0002819180916145 2.0337919657578394 1.7868578188313033 1.5272753870131375
Ni -0.29181230773240396 -0.04449402567801449 4.0509638293163635 1.388063777676261 3.8801993620180015 -1.6879410524587315
Ni 1.8817723516311278 1.4283064928568998 10.22068492981457 -1.1589957123968686 -0.07275553459617147 0.10935801631055361
Ni 6.455988992877408 6.734606035918319 9.34590638282341 -2.064187033109929 1.8847008925237219 0.865561365026264
Ni 7.7169736114578065 8.247012691612731 5.547914363825191 -0.951582249272774 -0.46485802266365106 1.8243159636777615
Ni 3.1402140845842235 2.25694507365492 6.330094886555236 -1.0005049431154058 0.5307093739408215 0.2800180739646984
Ni 3.5685932207880096 6.586267958706734 0.3851602520821533 -0.06388522868973513 -0.3522884413943352 -0.6591290348685164
Ni 2.2236009079383647 6.042395580739283 9.815647634298054 2.407591284640757 0.33266681050866576 0.6557146098703287
Ni 8.632652855564183 3.6196543641842425 7.923688945186795 1.74155935200482 0.4592635592950091 0.7445279692603113
Ni 4.859038325217809 6.151157110733216 10.854535697504174 -2.2488048384957464 -0.5507907180717289 0.46676603831964125
Ni 8.236508262257766 7.295039534462129 3.576864534219362 -0.8715229819263378 -0.29170245228116215 -0.31791587745173633
Ni 5.730138472563368 8.309308766053228 7.031384830452266 -0.38669391545739856 -0.05587084302569087 0.32160129672312354
P 4.060285585683213 7.19370323049992 2.7123851363616174 -1.0450595897973292 0.6894053172545547 0.28554568865114693
Ni 4.517015584917215 5.083588996393857 3.9360633110752814 0.1939470532065434 -0.4402191410690483 0.015547460816295804
P 2.737633678926524 5.378868875436218 12.202263230603114 1.050231363806256 1.2985423364756605 -1.773659060752842
Ni 2.469853952086335 6.850182499393423 7.2035474342774695 0.8141120481070365 -0.05751300661480417 0.4207106387224754
P 0.5107686305283857 7.566878631449176 6.374674908001737 -0.48572689569286015 -1.264038903382152 0.7686094356895473
P 5.839038705409698 4.103570122488315 1.2118181561479253 0.05648585090187046 -2.100343685536144 -0.15193111378607382
P 7.738037951308698 5.034867307774741 9.580878261642983 2.251264612890149 -1.2373873622328948 -2.276671740109344
Ni 4.068062192274345 1.764133839083703 10.171232739506157 0.33431385919378553 0.3627273773394721 0.3287471637392855
Ni 8.224977431795052 0.8798680169884967 11.450668536198263 0.27065617313382423 -0.12001395336250296 0.25367326542258245
Ni 3.2497431036947604 9.08843042854505 6.779887893797957 -0.574920521240397 -1.0572651307245857 0.8288850926511533
Ni 2.4379892834620285 3.2090661805147476 11.669400160373359 0.6073616724882379 -0.025609473037988155 -0.614875978587412
Ni 4.414061081010359 3.777424235358914 12.838915795911163 -1.9342015703570108 0.6563039067148955 3.5264857581413653
Ni 8.125545980339112 1.8572589341839323 0.22774915895235237 0.2579060725570074 -1.026434518496974 -0.3775495299539692
Ni 1.951826538949104 4.356601112690149 6.987048001340303 -0.4764125602704698 -0.4324114720991714 0.610063387690117
Ni 7.718730514254851 2.4987966139534508 9.741713465855657 -0.38202967721250974 0.6326523287342265 0.4720316575939548
Ni 4.68489227060331 1.0773975231459867 2.442198452689476 0.4364432189663839 1.7694727905856364 2.094913515659508
Ni 6.781293416035592 7.612715300738405 13.507643858179163 -0.9665064746827742 1.0799008658462304 -0.4093625606995078
Ni 7.236571658747826 5.4384186333992295 3.6992910692315775 -1.8852958457952436 -1.0985439348687145 0.5167783656820262
Ni 4.370073783086439 8.749218732719727 9.2475022571609 -0.8304627215509182 -2.0737759623499445 0.8008109601227562
Ni 9.028936151722998 8.597579527621063 1.7118789264711611 -0.09700000896583295 1.3027913415600014 -1.1921367179252114
Ni 8.099571559513322 7.646290637875624 10.302901507916513 3.3824343042136844 1.3350969956712428 0.6097592261861369
Ni 3.9515425494029337 4.48804518247962 9.039110468289257 -0.15596851708024106 0.1395273408050823 -1.1489162166736795
Ni 1.0603555660146469 1.4016478046259435 12.872601170644618 0.5923821683602701 -0.0330319907543044 -1.4705488808553708
Ni 2.4291770289063224 5.522204403104639 2.2303418665649226 1.1322343851426242 -0.28198522499339823 1.0285389664344866
Ni 3.942526863997043 0.053019627672097655 4.658343619968591 1.5886532758999865 1.1907796896766847 -0.926166637413147
Ni 0.5314307321073216 6.1836043313375955 8.350731910579144 -1.890554008870389 -0.5308330440028793 -0.3655077682980866
Ni 9.135737348069702 0.6163030074898512 9.263052696286115 -0.009769677792254142 -0.4292513292036349 -1.0290884111800536
Ni 3.698354362635047 7.014138517785059 4.865273480775955 -0.6765559720957123 0.07186336179920527 0.567018749894817
Ni 6.694151037302143 2.9554156509055334 12.198447052790794 1.4247421069339012 -0.0862491982072321 -0.17966997446223895
Ni 2.544799726665558 8.922893197636073 2.682543680010961 0.38703741483974635 -0.8782482164653133 -0.9573469196706933
Ni 6.57033562439458 3.3385129292296827 7.035228748835065 -1.2054110664366142 -0.5829313073600153 0.07700453968051255
Ni 8.766436380130772 8.016100182940015 12.702347118068415 1.276221561491273 0.1142701089001903 0.03759415620369009
P 1.020677303371902 1.1248616392366906 1.4304591611261217 -0.21020799515009606 -0.08793584188103566 0.9026718967253166
Ni 7.115382353179003 1.8001595932799586 2.247258991129104 -0.16632749171706193 0.27206488055589273 -0.5326636694537149
P 6.436690802680389 0.5485133754086982 12.600750052743697 0.07991837089319784 -0.7411024885185301 0.15599062856742812
Ni 7.445559869884781 1.1521306200181993 7.5828701456450185 -0.1654988251681795 0.15143154844183596 -0.8972761796310418
P 6.314918945131495 4.98066223305748 5.64283982194955 -0.5475053624522377 0.07339085418732522 -1.765532574990966
P 1.2243300781199362 2.0865624897688284 8.083522714805154 -0.20050748003288046 0.21256698230057586 -0.6912495695521449
P 5.714187644537561 2.507007822815431 9.116698994549509 0.37780252650503965 0.8390975144077806 -0.5468553875730646
Ni 4.176962425120677 5.215902270725024 6.559680471273341 0.7583530480688616 0.042575925688997644 -0.0891576301032787
