# total energy = -381159.79041920503 ev
CRYSTAL
PRIMVEC
9.36316420019405 0.00000000000000 0.00000000000000
0.00000000000000 9.36316420019405 0.00000000000000
0.00000000000000 0.00000000000000 13.70393725013379
PRIMCOORD
 96 1
Ni 5.252107759518235 8.28870361644346 4.299609923623711 -0.2197421598927764 -0.5966255170176563 -0.6755488709874365
Ni 3.066024281867537 3.5986759643741344 11.140026798948226 -0.22923467276424392 -0.8310826145231042 -0.3655594474716285
Ni 6.427774740438216 2.4516321762790487 3.213052175976393 -0.9250772610037101 4.534580597788887 -0.5731181779243355
Ni 2.756318901079484 5.564678268538023 0.5476589620158364 -0.03931036756384843 1.691936803881686 1.2258382239427146
Ni 6.014774932681158 6.5318369468680135 1.4010224247758658 -0.09727048901840023 1.4179047722970934 -0.9382672773314227
Ni 0.4263938140822177 1.7862857313536016 8.346642876240795 0.5130322683760326 0.9387277619076091 0.734560059414322
Ni 1.8235698510227982 2.9333014299562192 5.792667570470991 -0.4863863836537301 -0.5186511572247068 -0.4743369086883637
Ni 1.4688931927934719 4.117994501122586 3.366427359066602 -0.7954746355115074 0.43664350790264805 -0.3434698146614407
Ni 4.6681084847801255 4.741141165196935 1.8819482432190504 -3.4459433805109234 0.00034092827918650963 2.029968478246691
Ni 8.824463869449849 4.7249522543712095 10.132430487261297 -0.8570669544020078 -2.1154432601817437 2.8796311697648274
Ni 7.551335712830052 8.303300789362664 13.311703175912085 -1.7110359866049822 -0.6433236924051436 0.14593118744889705
Ni 5.27333405265989 6.79444561195138 10.78357301216209 0.5398876980059799 0.9366945335276642 0.23290312275476666
Ni 7.902454368680097 6.120737861434623 5.754625970821573 1.4905008984972652 -3.937794643933966 1.5216307871328505
Ni 5.167343034413956 4.131514910163852 12.272369483001974 -1.5822535430212301 1.989509084680064 -0.46682774479551215
Ni 8.010018398504238 5.905759612412836 12.042486012960248 0.6683060733820941 1.1756078670322527 0.36658506052266543
Ni 5.676221643128466 9.101753975929824 0.9385588934154846 -0.6884851194331303 0.15232140724595702 0.7414089640153554
Ni 7.033608913988119 1.9026979513051647 0.7254944751471831 1.7801220427693663 -0.884689858325599 0.6828533750686497
Ni 3.240469393257995 3.4246241058782276 8.158447021970833 -1.0978700487301414 0.22573488714110154 0.012707163154023277
Ni 3.2078481293384873 7.4140717263030735 6.0042703988145405 0.6771707228615758 -0.07607971387339801 0.10542834223884424
Ni 1.630791664214889 0.5981676147389694 6.555483617943995 0.7318470313585332 -0.7765577440023465 1.355864567235897
Ni 6.579504815586216 1.6466622274593112 5.626493878295943 -0.7855676608104406 0.07038497748146588 0.39866908554140373
Ni 6.331989571122324 3.988829651590549 5.180430865271214 -0.261500217666169 -0.4548790570740682 1.339946353343744
Ni 8.84743171112452 6.2502023322196525 3.745600863677274 0.5096283849008062 -0.35477958324730513 -2.1484760222669967
Ni 8.262880009701208 2.2226466336798825 10.72871610600491 0.13822764815705227 -0.06440767685210844 -1.277777336014167
P 1.2985491473033417 6.753182147515882 2.1316750670565905 0.3416990959142631 -0.6046658708236295 -0.582774470067177
Ni 6.998955843446759 0.5440925327888155 3.3678655410809637 1.7806879425751654 -4.515440791635642 0.5061003171428897
P 1.6360069466497817 3.174974059986767 1.4035710780591295 0.33511347227694543 -0.3584297784053827 1.7334086978732277
Ni 5.09762491410837 1.8470994825468294 8.225198891871797 0.76028908874931 1.3839656963474876 0.09933585618786119
P 1.5254935201164992 8.738332122378793 8.935035347600898 -0.7680103686529677 0.7951090246419725 -0.6890363639509101
P 4.5739899586840025 6.712190214840909 7.801021338745305 0.2113945592590295 -0.19597822470395926 -0.15119654961289442
P 5.4365620933914585 0.21750630334390844 12.545077256944005 0.696623946490181 0.2349039552348793 -1.7125143709227217
Ni 8.745579211435539 0.7511027291138466 6.459419426336253 -1.7552525332211966 -0.44396215305124825 -0.43670649993009947
Ni 8.136355572461165 5.713281046857919 0.9137511899841594 -0.25563167470053394 0.047144776006602676 -0.12305788239514936
Ni 1.8922112074504431 5.624424619017468 9.390568264853009 0.11353580183732705 -0.6075902435592762 0.36627344281951757
Ni 3.5521316753546524 8.054231259648876 9.291324342697889 -0.3327349447424398 -2.9808051076026922 0.22145862836325086
Ni 3.2329507724407263 1.4449609452107328 9.630442231049187 -1.2349828665564602 0.3557627730961809 -0.8793195951526211
Ni -0.12110410151013543 8.260351955379088 12.01705097753047 3.1622152046844896 0.17420278070008063 -0.6504042534010088
Ni 1.7712859423756877 1.4244649788732462 13.424815816815073 -0.8159789261124463 -0.531170115627324 -0.4412686653794852
Ni 3.573563958107739 0.9607730003755975 1.1362780219485158 -0.9637852190968692 -1.4588524183540488 -2.363653445607226
Ni 0.4988515962198488 9.175020735450536 0.9279101668208645 -0.8913891247226455 -0.39337312724978707 -1.9203230126027053
Ni 7.396356619719919 3.7077661899557044 12.177277187833626 0.4900615185124721 -0.5072120621498297 0.6514326946655232
Ni 5.793766805942905 6.379638713512215 5.931036410368376 -2.5141719953164894 0.3498667193267201 -0.6199875887823645
Ni 7.717307160659328 7.651493479806796 7.457147899319172 0.3177454133121431 1.1664462551376427 0.576330514214046
Ni 6.935988564497651 0.5991151669515566 8.385302444724509 0.6511035934608786 -0.34082594928069043 -0.5721213612287049
Ni 3.5437422802708753 4.571995604718774 5.3622550863330165 1.1062716425302754 0.1265826077189562 0.4811145937318295
Ni 5.442488976302207 4.583933639017675 7.462451195497131 -0.421565530523603 -0.6262937335060504 0.18471345042341739
Ni 7.578975773418566 3.1890281693849247 7.946214052679584 -0.5437037293179604 -1.8640693323162993 -0.5860613683485649
Ni 5.2517238697878375 2.198311770038435 13.30554970442876 -1.98894549886711 -0.7069885775539566 -0.6119983999293008
Ni 5.1925205828294425 9.267435165670268 10.139707538443341 1.4072946008814151 0.8695576306698508 1.1931929271038677
Ni 8.77587841064436 0.024619503831789617 9.561510616532706 0.5144440611218947 -0.929733785939115 0.053850470161552415
Ni 2.255501976703291 8.549786085769398 11.21154732835384 0.10628889046692662 -1.1970981756955448 0.28319492903078325
Ni 3.472872490774102 5.953699012891562 11.893482491214476 -2.5660648275310387 -1.4954996372634373 -0.28051146866134913
Ni 8.106711794743264 4.165915175273001 2.5908118661923445 2.0151653517955874 -1.5005850222061445 -0.37928682436005
Ni 3.754170031512847 0.792113388117132 5.435927270861682 0.12782779297996694 -0.4003053355932461 -1.06078934182776
Ni 8.904116306924951 6.885371299070308 9.390691858619867 0.6427212829344544 1.5013661233465432 -0.5748135633488874
Ni 6.524758394766076 5.27960737264441 3.3977546336997513 -1.6411554595637605 1.771751302207168 0.39263419220123347
P 6.432943207052329 4.072077544101556 9.477766476321433 -0.34710586875213123 -0.8987468506392973 0.9856154275980833
Ni 9.384137643710666 3.176378534610167 13.87372897700889 -1.7747751766351563 1.1223554354660155 -1.0208518822028743
P 4.693782280895882 2.509412262285732 1.7573376367324924 1.7032532573357697 2.1614004436381484 0.09588800684857679
Ni 9.473462229758917 8.39138007457817 2.9170067153755306 -1.0620499537077386 0.636808002773813 0.5596150012315781
P 7.8815932389405265 7.99198494433978 5.102688513283936 -0.8104163444230044 3.0767656195604176 -0.7530907712286579
P 1.3057681468676186 3.327294014476595 9.979179834254362 -0.7356093266144428 -0.6740224070405811 -0.618147193139516
P 4.298553758706914 2.6067236273590524 6.351802026476422 0.41046659239696404 1.3957626889824155 -0.3409164521119677
Ni 9.014105396265498 4.920221042844616 8.098574268775282 -0.5177001061653471 1.251331997338445 -2.9974285750919867
Ni 1.6468307644141194 5.041080765770278 7.105354159333479 2.8295576501472044 -0.37972262634588794 0.8522091120890742
Ni 6.586171388465289 6.21637322012402 9.082763606388625 0.2322876006579548 -0.3639013430429152 -1.3335178241095809
Ni 0.6861214335547825 4.398514899236383 12.131341504484283 1.101371891235813 0.15504651948660395 -1.2506797084664267
Ni 8.733079387287278 2.5495615101866655 4.433470399979982 0.423532938662619 0.15036556907116683 0.7933485903074401
Ni 2.6182590455992463 8.338075581038053 3.5725752079728657 -0.5244556797216258 0.46764304160795594 0.8025407983296695
Ni 1.0062124360246716 7.315140533830764 7.170639757727613 -0.2792907088803706 0.5227875479905835 1.748111551301041
Ni 4.249050709814136 5.038290542851791 9.747213060187926 0.8887719988147725 -0.013925351831840533 -1.2250167564826837
Ni 8.890455450421346 1.9838484950452273 1.9858512758581959 0.23242206935329005 -1.2688723202150534 1.736305045584416
Ni 1.6891148137426208 1.1042634910663163 2.4870998421019808 0.5718210563794669 0.8585003444144246 -0.036864734236833285
Ni 3.397227487557768 2.874135595654448 3.483307737225965 0.11696642478543083 0.24793970537291496 0.5112065280212035
Ni 5.910347562849276 8.74717094934206 6.410948198133466 -0.0408496870265103 0.7101451209050673 0.7849788781865062
Ni 0.9556045337614849 1.0973066600984074 10.968562919025038 0.5859466971475715 1.0815839099756082 -0.04653928121211985
Ni 6.2774023240928365 4.083697230819154 0.7797624382789508 2.7626467472572678 -0.034582108850243674 -1.410004029392778
Ni 3.9910206320030537 7.7562672867124505 1.9955262333805919 0.43808975343087125 0.7015373246313983 -2.427445857472839
Ni 4.553456539689892 0.8528569155791899 3.119536637651915 0.46534061872702437 -1.473894657399152 1.3547456231401054
Ni 4.474094360303624 7.716520654870225 12.680691453946693 0.6617942404055055 0.8396014506273927 1.794846750574051
Ni 3.633703561481735 0.19914888369965245 7.737955746572559 0.2117581132460353 -0.3112947725907929 -1.4713181549212273
Ni 5.307228706904613 2.327944777778272 10.74083110410636 1.097135484556962 0.6882485779422922 -0.973298557903943
Ni 7.385598344104673 7.961807466264989 10.851147904192366 -2.0873999808912824 0.4668406003113186 -0.9608503048382613
Ni 4.000102901234375 6.289293542570959 3.604546668299947 0.0472105962475316 -1.3516219899094593 1.6487389283379734
Ni 1.4276578178504427 5.843316670656464 5.063687189308528 0.3476519710635884 0.19773660215596267 -1.046946265297081
Ni 0.6442240829059238 6.283788002047229 13.551302801398492 0.8791802413612795 1.6126460392701583 -0.10152437919874772
Ni 8.826036881028058 1.0512118029584134 12.903394313397184 -0.7350380274920052 0.6731418042078408 -0.3031585166369037
Ni 2.911681883920013 3.4548858524304236 13.490512458115655 1.378008450322788 -0.16255542626913938 -0.6059588786034403
P 6.039109796322605 6.012902299849958 12.826775541108626 -0.1952932828217927 0.31449116804090355 0.8853542313824753
Ni 3.4996698665885773 1.1639255730683562 11.745576332307786 0.2124209436410148 -0.5314840473233169 2.7056335630970176
P 0.873726472166501 6.600038234580327 11.011771112655737 0.6158190592269717 -0.3803553748338804 2.0125680233820566
Ni 2.5213409334204773 8.341296509507718 0.04771749348822903 -0.6802156803354866 -0.44506644185902056 0.07466175047994884
P 9.352995759727806 4.387522544517237 6.050672367738851 -0.716368990327592 -1.5292445949243663 -1.9926671706930714
P 7.633338304508309 8.685327250091671 1.6442259321459198 1.1410463270072992 0.17449151558509304 0.9516372708804256
P 1.3140358208173677 0.7997275132087922 4.492342230927256 -0.30517760394946153 0.7791951816251935 0.6875914039742674
Ni 0.7472460417979897 8.133986691929696 5.052915805263464 -0.456370296907614 0.09907154678288098 1.3128685232903454
