# total energy = -340872.05539305776 ev
CRYSTAL
PRIMVEC
9.29064542989619 0.00000000000000 0.00000000000000
0.00000000000000 9.29064542989619 0.00000000000000
0.00000000000000 0.00000000000000 13.59779869948520
PRIMCOORD
 96 1
Ni 3.773720713328351 6.887006623235456 1.4391776116570352 0.09820971300321796 0.17868164240704068 -2.3083698425435726
Ni 2.7608267036303147 7.018785134499655 6.012538581429477 -0.32715282266897205 0.15033420161259914 -0.09013182109108993
Ni 5.891448957447388 1.1848452707300317 9.73701608809866 -0.061559665880352034 0.19058790692632338 -0.2750224205223199
Ni 9.164924171585833 8.348545888781505 1.7378802158451476 1.5623838006804962 -0.9284191808927493 -1.3015458991886746
Ni 5.325676537787487 7.8095305272463165 13.126525886175564 -0.5640108163064286 -0.5297187278927781 -2.127828006999342
Ni 8.967154207592527 2.3273437807196355 7.877340159237575 -1.9145406015929736 -0.9383824627530484 -0.6195669563051781
Ni 1.906756273321838 7.892830451949844 10.205854561250167 -0.2669237026745855 -1.4548880343896622 0.3604928315819985
Ni 5.705264427996275 3.735368930016265 2.792212361184793 -1.1083354670378396 0.363511049583032 0.9322506388236976
Ni 7.688473420522365 3.607139445211662 6.41580832620767 -0.9218479554331349 0.7395832236605263 -0.10797990501610435
Ni 0.24791436323514585 -0.17334671593836068 9.056881400633095 -1.0685255341297533 0.28225339105312036 -1.6121963533272494
Ni 8.777494976843276 6.848050947986527 9.939990671523029 -0.5015000993667169 -0.05879444443038907 0.061642455402145455
Ni 1.089504669870385 0.5061190450740867 3.9465434368784362 -1.997415484011334 0.30160402766559025 -0.14753941247628138
Ni 2.0597546181821635 5.249251690518782 9.346569291800927 -0.4515062839470934 -0.4048587592918834 0.028128125694783818
Ni 5.3480019581602924 4.116703461519305 7.425526793382433 1.4320137008946499 0.3723602724435458 -1.4883861661471076
Ni 6.053988794909824 1.9509890350342503 4.883716830212577 0.036232757079789214 0.1163007661769739 -0.8453355248976926
Ni 5.828421220531402 6.703349149273898 4.007216924305254 1.017524617601854 -0.09860000646310114 -0.0531956101863729
Ni 1.7369511513269287 3.3136851264869693 13.493258310645755 0.8368249163235202 0.271993403888009 -1.0067807488217886
Ni 8.86413024316721 4.758742787479813 8.642788054217649 0.07871843704782572 -0.3052529372720872 0.028235854917241694
Ni 0.5812710739528317 3.593881694536675 5.822985264035302 0.5237576252133366 1.1097598581891919 -0.016976222843022377
Ni 7.997684673476054 9.043188847763581 3.484177756225361 -1.2852631028682509 0.4550580058540937 1.5873129598220082
Ni 2.9485906427623996 4.780241340431404 2.677841731798464 -0.10459299082174245 -0.5667801515214497 -0.7580002927151333
Ni 1.3357718017147282 2.018411247121412 9.210958389399073 2.164286506936692 0.2197622144974344 1.4712019410583372
Ni 1.1089406995915292 6.418934628311478 2.7980598932624643 0.4590450155262997 0.2689427899871432 2.862540532831128
Ni 6.381075249194049 1.573454377410727 12.641968570440307 0.09649967229064672 -0.2991753636194396 -0.3254690072086459
P 5.582414226752159 8.978210075359335 3.8457696667162438 0.4558499056277698 -0.875590210017176 1.3527134232014253
P 4.7907304788420975 0.29830217738076004 11.474624088039969 0.539938091627941 1.2788546282387458 1.9357120934642664
P 5.620385093611776 2.438506350324554 0.8722466485429158 0.46382932428882057 1.08157182579075 -1.5109393688572754
P 2.58434160774941 6.507251501413387 12.03197082158414 -0.6107419018143804 -0.6250128099110978 0.041344110164425574
P 1.9476722747042081 1.0587619249625142 0.30802669569295965 -0.9743074587844317 0.1322385204531529 -1.0308354757781475
P 1.8787542687427137 5.321440003584408 4.637569547691084 -0.3174451084629049 -0.3356449193003832 0.29192073893955534
P 7.324614592607027 3.0134672180696414 11.202383099459773 -1.557484563606666 1.2951867897398663 0.1300836788936792
P 2.4014645479831573 8.936941029460042 5.276869991451882 -0.5856265948039914 -0.10639327725527482 1.877434954989928
Ni 6.385497596300771 1.835348374451516 7.308585442474192 -0.20559620740969753 -1.033190349163569 0.10487838327264519
Ni 1.5181285853507782 6.238714693067332 0.6882881576774561 0.47628194822987646 -2.0145171766886274 -1.4813223173217909
Ni 0.8311531958375655 6.656031893360998 7.868569790185588 0.6995043533617695 1.3178055555806465 -0.11702221772403072
Ni 5.735105980321474 4.113488898286267 12.485403546894538 -0.13193950115549535 0.172777875328096 -0.19783610384830444
Ni 1.7274375306603647 2.9665494598995754 3.93169419868374 0.5005320790264929 -0.4651500999827731 0.08444582644990618
Ni 7.311895699352607 0.8630349738447731 1.5113677828516976 -0.9610899316528932 0.11417317831100983 -1.2149241481333724
Ni 3.0694898085182545 4.869115652244245 6.782159834225389 -0.26740835562048787 -0.6818208200390774 1.0769615807122486
Ni 6.75016471034696 8.55415715730858 11.242224173194563 0.863135786303907 -0.7214219793704673 -0.20607777503180638
Ni 1.4324409648354284 1.4566988394061295 6.361458051891851 0.40274222716951286 0.8580758552824964 -0.4374863155189176
Ni 3.4130299954201404 4.658180844027775 11.132367868302262 0.5320018675 0.302603415464382 1.297967180698481
Ni 1.631948279477803 0.5335413133938424 11.626906124156747 -0.07063103205400094 1.6891579555849685 0.08242108271039354
Ni 0.21221970444516708 1.348481404323966 1.9037191614117797 1.656394645111018 1.4953615690236761 -0.8281538709120834
Ni 9.348525901676297 6.8641795080228105 12.57625026267956 -0.7252102427683058 1.3746709013091227 -0.21560679756816417
Ni 2.8577467141709336 2.3377028500977786 1.669945160143929 0.8949963824579296 0.48412072754800495 1.192270158179282
Ni 7.8833632845091905 5.171266014859469 11.483911946028606 -2.296129848833955 -0.4267684148807811 -0.18694979595310385
Ni 3.759831198780975 3.2971942312885796 9.01039101214141 -0.6745798222059479 -1.166520560019004 0.0277134067548684
Ni 0.7659653839167208 3.9417606127386438 2.0454080038918234 0.4589964216765514 0.6424531168747323 -0.39299877462950383
Ni 4.151450474500701 2.638701172710411 6.0994692902702035 -1.2228997101396808 -0.08514542362009207 -0.37035352642616215
Ni 3.381553289542876 0.4150251981272197 3.59343574356793 0.32377696421820373 -0.45198116670098293 -1.1804407696445218
Ni 8.509199725271957 1.3450438656065553 10.741648856100692 -0.08764325034128131 -0.022413591808509787 -0.9772228326590138
Ni 6.951799582736056 8.17269255677299 5.895488529972604 -0.4707941856424279 0.3742554325837297 -0.3927339510038914
Ni 3.290690779661046 0.6181484318745033 9.830351767727988 -0.1433153470926048 1.3286473833911567 -0.2434896400213613
Ni 8.910156099399783 2.8966930987746795 12.620457010585461 -0.564803487411053 -0.6806064880160021 0.6066965281004132
Ni 4.113563223447724 5.082531062724359 4.59318627752672 1.434447250036807 -0.9041014300829913 1.347250343204325
P 5.626386850399472 5.684276860529705 1.8763740054470361 -0.3321505329938796 0.4590948949276286 -0.26756210758953275
P 8.256689279865181 7.163960756116575 4.443026224769554 0.2789744631915324 -0.3098827227346147 0.1242966398982569
P 6.296771934810844 4.573654554160199 5.200206374601994 -0.9887925397744841 0.32766292953617115 -0.5283478156871804
P 7.423931589604651 8.17125250676975 0.3099182710520538 -0.19201564051178546 0.45179630438368645 -0.15736488320713543
P 8.551704426980482 2.3759617269580424 3.542757132228113 0.1235754454615162 0.6596165160278963 -0.06985867266435065
P 2.1693563593964735 8.299268306735163 2.06498896767781 -0.4910557641049414 -0.13497057467233528 0.10405717292293047
P 7.907073011014143 0.18747500006691892 7.394047300311614 2.594782250070389 3.351982158371414 -1.903468145828896
P 7.0152361080400585 6.032629601635965 8.260553259196454 -0.07805509243221397 -0.3309068903947656 -0.2769985704120842
Ni 8.631966310709432 5.080124785622172 4.291832123203609 0.41361182289416515 -1.497282440195473 -0.500014515960126
Ni 3.4674453042522346 7.168791891611315 3.534448508241679 -0.8956905803114766 0.48997692921846575 2.7824072177136467
Ni 5.094599610816027 6.710502946064185 6.777333344053242 0.832066318592612 -1.6248976029440014 -0.8500900088635425
Ni 5.2150714068935 1.3270014326627397 2.5514638725786716 0.3954696047674996 -0.2053342119975625 0.17412487627429366
Ni 5.71355168349879 8.121621880206485 1.7478611559643757 1.4031142442514803 0.09535835959735191 1.75709524285689
Ni 6.988460468624983 8.318834405488857 8.572038862090745 -2.1023522313257406 -2.6984637848214557 3.0184756255702725
Ni 4.119193354428132 2.385326697301691 11.493960707857664 0.007479339096180668 -0.3202404118198549 0.26918061702956225
Ni 6.930384645591105 6.071548114304164 13.76885879652383 0.5187141492521583 -0.9661467773505104 -0.2728593514327301
Ni 4.571610612220117 8.451430493529092 8.050821589531077 0.9526780534401142 -0.0954879431966807 1.4519870586927832
Ni 8.268581305698385 1.2497868805535484 5.440438303335986 0.6535772518123517 0.7508986486733455 0.21898599845304223
Ni 4.720679014168375 5.520250519838118 9.056500484180624 0.10285466797439706 1.706514187475229 1.2121059619582868
Ni 8.18587598228652 6.271259823140548 2.314562640142495 -1.8750492283665707 -0.2190939847858162 -0.5314387959076783
Ni -0.3696227441863693 0.2646774743373735 13.213891397210817 0.5252804896157662 0.2787862584401263 -0.7921658828532486
Ni 3.7733676688114275 4.878220484522792 0.40878281362930546 0.341912754586966 -0.9422049218229321 -1.110779557702958
Ni 0.31603894809808136 8.651513828172762 6.27765457421945 -0.3761953299189198 -1.3613857541644425 -0.5889083508790567
Ni 8.480575247465625 5.9972508247821805 6.42596578858536 -1.1204217087784125 0.6163939578938352 0.47989383395085095
Ni 2.318285401666999 9.068914644273068 7.686141468581635 0.10439784409180085 -0.4721509567806385 0.2811179918970965
Ni 7.82620723534835 3.763296609433932 1.7375132353604512 -1.3491015374804507 -0.6557886576413738 0.16721400808707332
Ni 6.9114503107097995 3.442862257100156 9.161788578836843 -0.10638350706326193 0.14250133583174168 -0.20998945138138675
Ni 4.203087880423319 0.35830859648349683 0.4974731706675395 -0.39047112311164367 1.3575141870241783 -0.3033348943137679
Ni 2.2950866606470677 8.250771138884126 13.343600881792945 0.0020735946995770736 0.2035524375067914 0.2835559119146278
Ni 0.7981658310536774 4.838540138949654 11.62145344449932 2.2522444603049143 -0.3981288967672176 -0.06397547441069627
Ni 4.41919757800627 0.13525507069137657 5.938865623263737 0.5920024164233482 -0.22080788215312938 -0.7850009896736931
Ni 4.3002587383838575 7.931637476875856 10.412038133520465 0.8055245635483417 -2.995863030377079 0.297122594855469
P 3.862622897076739 2.5580955351097194 3.6927676055978456 0.34959829615668175 1.6726561012752033 1.3184305907591551
P 1.4894762356089002 3.7773905181753165 7.768830068832173 -0.2323253958744257 -0.7130890340247397 0.8719590410224919
P 1.9799758480026872 2.7986582108121976 11.200342873777764 -0.17601875086289684 0.9170119674970723 0.0006440613419021166
P 2.9396716233874964 6.99404414637948 8.42098040394446 0.8773897251197599 -0.11000773407941056 -0.7402152008175703
P 5.671994627598848 6.236187637577776 11.067873138512008 0.7028976953140346 -0.9643603748740487 0.9040083561485527
P 9.001027899926797 4.768544418147025 0.20363143203874948 0.5284856268166254 1.1000637139473506 -0.7354933698618688
P 4.283219695119719 1.271043876730402 7.965821476759211 -0.11223148120360672 1.377420181919486 -0.08672459518175386
P 9.120440562453501 8.665468377236413 11.138500623187026 -0.10749808028367937 -1.5038444096837067 0.34502661762559933
