# total energy = -340874.8595351449 ev
CRYSTAL
PRIMVEC
9.19888127110978 0.00000000000000 0.00000000000000
0.00000000000000 9.19888127110978 0.00000000000000
0.00000000000000 0.00000000000000 13.46349257743483
PRIMCOORD
 96 1
Ni 0.9389757874319974 8.760315236741508 4.402670040066393 -0.5673907885222551 -0.6409333377960962 0.567804479020906
Ni 1.5871841424374653 5.888268178944243 11.593642364247726 -0.4139645782478935 0.3597526109818643 -1.3283563345132994
Ni 2.884934690206693 8.825204143962134 8.774481513622678 0.7910906475111987 -0.16672678403800964 -0.31436184155189084
Ni 5.534699985304896 4.908688530373624 11.986762986916919 -1.0027960531424278 0.07354049239131205 -0.1982240833153425
Ni 0.14973018752907785 4.903546355843381 6.72456973518348 0.08459803575705431 0.8499938496053103 -1.3577329879032036
Ni 5.012755472163662 0.41675898741044937 10.955862780735883 -1.0499660259600112 -0.989102357705419 -0.871451505258454
Ni 2.8593342041285807 0.6782831768465668 13.221068851796911 0.7771632387968294 -1.3607465779185468 -0.07721202770562831
Ni 7.110109559945027 1.2606330625643476 0.839194604342567 0.12971498270035078 0.6832799210831071 2.360318467696722
Ni 0.48627677159640176 2.6118935016438076 1.6430176711114526 -1.2240564494519435 1.340272883445227 -0.6468602448034925
Ni 6.1303551326336665 1.1776407573553203 7.8972808121617755 -0.23548039656363962 1.6353288255796545 0.595713032505716
Ni 2.9193477043706224 7.707070948388814 10.853176590997704 -0.26204683419825836 0.7357810763056167 0.8228545701863572
Ni 7.078989745211915 8.326689180961377 10.003616687441045 -0.8779702802135783 0.015810227559379223 -0.41212803925978697
Ni 8.83455940603236 5.150361534413921 1.540991041147546 -0.3675926758515734 0.62090238728715 -2.317985768366782
Ni 1.8990906036126476 3.538202429812578 10.422951361557162 0.7459374480133282 -0.8345859996906723 0.8634602595228613
Ni 7.493390139510461 6.561442297232498 11.68415751441352 -0.13448849282959421 -0.2439138720429735 1.0642325631813543
Ni 6.748133588987896 8.209513833615713 7.391335912903279 1.0135772029183319 -0.45112858889270047 0.29297926211105674
Ni 3.384801888727925 2.681363451648083 3.7286330667317404 0.5599536155179194 -0.22416677132303325 0.509174070972207
Ni 1.1823597833553459 1.9856704724474257 12.340138923941447 -0.8307144325504081 1.0376303872127937 0.62404967466688
Ni 8.862974749724522 4.695348080095663 12.24811607716473 -0.941099090353263 -1.3448648736912838 0.675557869848501
Ni 5.533559324049531 1.6975523177752965 5.338705865101494 -1.842874186295923 -0.32383687092186164 1.8588505071195214
Ni 8.274457934122887 0.6434203373972547 11.773151169646752 1.0980752227624122 0.27859753946808796 -0.1375131385885309
Ni 4.108238693301052 1.022244059073775 1.7099174537387163 0.594297383105112 -0.049194973667412045 1.3518564745177686
Ni 1.2991579765762526 4.07446960081354 3.74439902903475 0.404639958412858 1.270581075376044 -0.06559501229199026
Ni 4.991745227750292 6.5410115823279025 6.013361003245506 -0.09072060371502441 0.9431161207832919 1.4236846122036642
P 4.703985829440738 8.804239893954223 7.133563947064453 -0.6112851759123602 -0.2859388103245076 0.23445581195386717
P 0.0705618571898567 2.725481285363722 6.810830402844378 0.43620590614459714 -0.9346106544154419 -1.0401837497622666
P 8.378948024443142 4.245366413734545 3.283167131098523 -1.545607609663422 -2.223468159503171 2.077312257637977
P 5.287553647015056 0.47256859899359827 13.506305916911131 -0.5636907139628485 -1.795401080415624 -1.484939602359404
P 0.26780426555739906 8.27667486446598 8.165728999395592 0.1370670521900478 -0.653187729683417 0.7035651536947044
P 1.1441292335383741 6.508327957809207 5.282401353715613 1.0703888125907373 -0.679588588274449 0.2796835734434151
P 1.6815370657947024 5.883723931684959 2.209453492540648 0.3191890877372051 -0.7970970016062788 -0.33829187000492705
P 9.000479624282773 0.5696986645524101 2.616602408874632 -2.205417472649047 -0.10213681597176605 2.2826485265180687
Ni 0.36505851601094846 0.5321230750691652 6.518430169024077 0.3498520640387007 0.2883371353533551 0.4889855118394739
Ni 5.6266152051728415 2.9082998481795292 2.2245460967477477 -0.8527955807201636 0.46639065725809353 -0.48127220235561635
Ni 0.025040274219629097 7.164511742721151 13.340341544031478 0.5005061108845639 -1.5841255632329623 0.3164097252198551
Ni 6.240290960560189 5.089989277809305 2.44884793373454 1.521791738190747 0.7532344958953737 -1.238697082183254
Ni 7.041504304763368 5.650569091535545 7.1599656556856495 -0.7190200547971939 -0.5967461017559207 -0.1685358122222904
Ni 1.599713018484317 4.599909688769609 0.14229013250213687 0.8528207775311443 -0.8096000191692959 1.171159601452912
Ni 6.792472195849736 5.145798889392454 4.7587522879080915 1.4991027812336633 1.3456326050952439 0.6173000146478723
Ni 3.2233339289258787 1.1800692619635207 6.959224912838945 2.2805142537838856 -0.8659981954533666 -1.608940308283797
Ni 2.1695377077076827 3.0718283573461087 6.213145982346786 -0.6530625169594624 0.8834071349584334 -1.0718587122680443
Ni 5.053837675119051 6.8552085648949115 3.6876778083354167 1.278019019711328 0.15946213205579635 -0.6388600002068353
Ni 1.845599110064599 1.103948520929969 2.6262290379370623 1.7981884133527741 -0.5453340658325317 0.5510424290712187
Ni 4.200871425894148 8.959112256013544 4.698933803945195 1.2051051051604211 0.6756272896338558 -0.17587734018902615
Ni 8.867564991389266 6.322961304931008 3.6444191501137393 0.5962303384617667 0.11824349172564153 1.1902166180843632
Ni 4.81385726519962 7.3998467176892895 12.180071033841553 0.9640551849288042 0.3389636992609711 -0.05713813977388869
Ni 0.35340353366780525 0.26790821291373496 0.649455723281498 -0.25084248084200667 1.6129360597067512 -2.1016351506540576
Ni 8.86842048733079 2.520668197857737 10.538251976936344 -0.01660572687748108 1.0157063334461927 1.1135702330742179
Ni 3.722005272905194 5.3741887091363845 10.014468607464886 0.35825185806662174 0.06297788638411735 0.3346838409386945
Ni 8.629865903980567 1.0308726095377594 8.793720053537792 -0.3535007165348815 -1.3978761357809926 -1.1141003945460748
Ni 8.33172096891852 6.3985577097423345 8.955686592695006 -0.31872551783722525 -1.2172815926219553 -0.9807113054282464
Ni 4.844995477694915 6.476325050491295 0.9928324765593853 1.3066971043723108 -0.41133819636864 -0.4484739248786728
Ni 8.616297554370357 7.520517639849789 6.0650881514001735 1.3941688621327346 -0.8126694021232391 0.6497352523584423
Ni 7.697504112053478 9.414686842078394 4.680919635103381 -0.45262368538098824 -0.593749481021442 -0.6586389826059754
Ni 3.4576294303306594 3.126386921100791 8.500512157957642 2.9027500151704784 -0.4611126966886059 -0.22387238001106605
Ni 3.74410098528738 4.914842581823949 2.773990664912523 -1.672243439217817 0.9533802217134613 -1.957068190542539
P 2.4516857885513197 1.0309002061810344 4.88972503700315 -0.4798565529550124 0.8300850264965253 0.06164194118151319
P 3.40088153287616 5.199465161681244 12.443444198377096 0.5904674678360605 0.9332880789492766 -1.4048800779026513
P 5.979291107346296 6.302815755340255 10.293190105101877 -1.1886875830343462 0.2124389413631438 -0.5192882765880734
P 5.908045773291328 3.5161159163114832 8.1140294478842 0.9681195848061648 -0.3676605529750313 0.38565673244213583
P 1.267357444642357 8.561453825301834 12.33927698878316 0.8277733476442132 -0.23305970293728892 -0.9856627358962509
P 3.5702145360115822 5.310376071003485 7.653645686784625 1.0002971979799742 2.0331450762024597 -0.22260354060097146
P 7.12286840801917 6.463722583395709 0.5149423248542572 -0.38212969312548384 -1.1054648303582637 0.2392493766877686
P 9.373383865976805 4.717692162267323 10.145132274155264 -0.6391826736535766 0.9331520675920445 -0.6768177103975311
Ni 0.939684101276056 7.901645681239772 2.1844518536216038 0.7082587025156318 -1.2948949695310603 -0.3515045120404591
Ni 4.26342381731749 4.138383426638447 0.5300082523061908 0.01441823230785904 -1.3654131301562806 0.7132515277445329
Ni 0.08830005959891984 7.639440774602871 10.518366755680486 0.8967614447781523 1.3293068713520269 1.8715458431990026
Ni 1.8350847889768227 4.597140825561016 8.380957060073563 -2.9663269685911753 -0.6350843352144868 -0.5415740845694673
Ni 7.084840233586216 4.399861621669107 10.208181405157555 -0.13806695420947188 0.7244713077197523 0.16354247277275705
Ni 1.6509691839270904 6.68461531504993 9.054157855116983 0.13574884759925654 1.1914394347478705 -0.4390814279201793
Ni 3.2497715131833322 5.47421734212718 5.1139459238363365 -2.175765711220885 -1.0846574066946093 0.5351342424813945
Ni 3.5670869164404153 2.7056392988489946 11.982912335291946 -0.10384222869864698 0.12916193841035817 0.5053721807276135
Ni 5.088903809840488 6.891921299331758 8.45324186769189 -1.290815657255364 0.11045124937473237 0.1538167608445609
Ni 5.161565771583573 2.9615797674624695 10.26078336690404 0.435665717370411 -0.656646891876611 -1.4592825639129319
Ni 2.739978721964191 7.956811371146504 6.302961097661504 -0.7313505513380889 -0.3325634521615821 0.3942789268935081
Ni 2.7602898514145933 7.345757296870283 3.8586233753262085 -0.9427463961486989 -0.4105208426736672 -0.7087430983512181
Ni 7.335178583614865 8.513058511878569 13.194424292714896 -2.420983389676947 -1.7191316191289232 0.6914657993280091
Ni 8.317499498750802 3.46651554946521 8.515780460793593 -0.3478915978782202 0.79657558188517 -1.3802625364642873
Ni 4.592946135783216 3.99973789082483 6.37364438008177 1.5919309182099939 -1.3639170052267284 -0.3521141206000001
Ni 7.5712402701892465 7.7537920654533945 2.282654508715704 -0.3728891483638223 0.7431267180374105 -0.13315023363414488
Ni 1.3090007793443375 0.4537771246995392 10.430355540947847 0.07438792799327189 0.5083045238830601 0.05446033583140943
Ni 7.149729140806841 3.2995558576514386 6.1291068444695265 0.43023117661840105 -0.3059700179437698 2.347548312515247
Ni 2.5810956477489033 6.945854339172206 0.17408422521926853 -0.1023170503033722 0.751847642850176 0.4091054503833793
Ni 0.27527007745139676 1.9833431555312335 4.477500178082784 0.3657895612045636 0.5318391166698905 0.2761249095578793
Ni 1.656819672301391 1.7721368456665396 8.341078070764965 -2.4051669914699803 0.6785766020701668 1.1425223973321934
Ni 6.766246185857391 3.8352894935490838 0.15367650751740336 0.462624505347442 0.7709072305847884 1.0031611497913302
Ni 7.15236921968015 2.4082394731553722 4.069017423990508 2.7743570937156607 2.545550766738087 -1.855960844276552
Ni 5.920593047100364 1.9972702615040188 12.248883263847775 1.7016427183155405 1.882371473059597 0.5535813934429886
P 3.8362001827771586 7.93328983219511 2.0900188999988694 -0.5520356462224235 1.1271613414950912 -0.06957816530945436
P 2.6085635066886232 2.6696624748994813 0.9231757892689487 0.12405727019394118 -1.026717596955032 0.17447608896612532
P 3.208569724773752 1.4622173428071572 10.048033484792162 0.4883288520920816 0.7397462316009519 0.19244038675402986
P 6.702875094016891 7.5692809085167205 5.3059753262892295 -0.8630553107749588 -0.7549923591267449 -1.9297216802087864
P 5.022644269337205 4.260737744038722 4.187159573738908 -0.2748637834572686 -1.3173720675876537 0.932643246276426
P 5.77778041815222 1.1022559268091021 3.263631467324148 -0.9675572845447916 -2.182099109638081 -0.0009119702913081067
P 8.421253678583723 2.525387223857763 13.256235254322249 0.8188084251414415 0.6951087953972351 -1.4144708069148801
P 7.013815672677448 1.30416216789012 10.15202499575725 -1.977508203564446 0.8356846320714897 0.13980219173302375
