# total energy = -340887.17808930035 ev
CRYSTAL
PRIMVEC
9.12090231632098 0.00000000000000 0.00000000000000

0.00000000000000 9.12090231632098 0.00000000000000

0.00000000000000 0.00000000000000 13.34936249487492

PRIMCOORD
 96 1
Ni 6.801365462655983 1.841801996278679 11.216640922340288 0.2705402163812502 1.2426213569383247 0.9928967917508448
Ni 5.09944162048329 0.6237976462853388 5.717504955638841 -1.5622112796583738 -0.9284922002225301 0.4374968570418788
Ni 3.2300762581568616 2.1110783880151813 4.553881247951884 -0.7727836216718948 -1.5608110568767377 1.647426380174137
Ni 3.8347282189124745 4.3457632408480675 4.5398642456546705 -0.5969476762437654 2.497056161571809 0.09080030791302426
Ni 3.8058605638690834 2.6978716225227823 2.457296885412043 -0.27746136898111573 1.7327502383536222 -1.6335046278867222
Ni 5.415261975469848 4.651258734694303 2.4977590311635414 -0.6546283187846854 1.185742127252777 0.15196428101685444
Ni 5.44571666747297 3.5234591940575606 0.18237882146955203 -0.4138421937374163 -1.0663881760717764 -0.9770048031109368
Ni 5.614781708194706 7.981482497551459 12.410020660932002 0.7948871384391536 -0.40406300286346536 -0.5638187549002807
Ni 1.7986874922059746 6.915440584813232 0.5633488678334989 0.03447797917221159 -1.604529837920927 -1.1826313495379375
Ni 0.36915574191601497 9.25580020899927 0.27275419169481063 1.2950158113796406 1.7505697830335465 -0.6384643074303133
Ni 8.283913368303041 9.242301273939486 6.6637876000514025 -1.383824799894249 0.7451455482396521 0.7875816059166759
Ni 8.706393552066032 2.510710712099281 1.6887213364301001 0.5295150965224042 0.32924647197320717 -0.7768475073286234
Ni 7.00467949064089 0.9137866945267502 4.348674632787989 0.2749763977757329 0.18803917236254067 0.356730793436405
Ni 0.9024995782183154 7.908624731836891 2.552665037429009 -0.10109629052239363 -0.166421594092765 0.6466221606507574
Ni 7.835028173054862 4.199007926583246 3.522789719845812 -0.29746506579655224 0.4179608438914802 0.14844161257557661
Ni 8.094280693419268 4.203659586637631 12.232861731715637 -1.0840490836866492 0.3159248151636366 -0.0329959953100464
Ni 8.269739486490268 7.435240793635617 8.949959945054886 -0.16809538225076212 1.9368474926202903 0.5160065205130081
Ni 6.986127575835754 0.6972136112064328 0.24724758906326474 0.04588724945041774 1.9009176114929003 -1.4092257564658568
Ni 1.8846428732893605 6.909475514861137 8.93471435724919 0.5699780896334571 0.2819970520679401 1.590065582866481
Ni 0.060682273544765956 5.100189534452818 1.5648257390168585 0.3134059053965248 -0.18256735061469204 -0.5869861941556794
Ni 6.704236976540006 2.0893523992905823 6.730387514857512 -1.2321736792424391 -0.8071245610456099 0.5678978100656606
Ni 3.3276334266700083 4.609375552400701 0.4143817348173275 -0.08696550754796636 0.09208971614840915 0.1634648254572862
Ni 6.32581987066473 5.950613322317187 4.6756142794849405 -0.34251490694733916 -0.5821458353442427 0.08723187383547558
Ni 5.212121244624222 3.056204502045594 9.495214767367033 2.0877313960887722 -0.06871864552263648 0.03342151288323921
P 0.6631224155490292 5.7565478890286474 12.44726586452432 -1.6724779238261263 0.6389692720911899 -0.16595082510393355
P 4.166573998831493 6.068127024553854 12.453126044102639 1.3188167704539804 1.4014101170761801 0.3704977653135103
P 2.5076825726128966 8.765734140916681 1.1019645855307691 -0.08925584624403983 1.6247199397155565 1.038180860399625
P 6.551151756240394 8.0093286115633 5.649903565785728 -0.29710665401586894 0.2190837003731711 0.06494683718503008
P 5.006627321045203 1.483897799153036 12.499394556110259 -0.1754857611775623 -0.29292526894466975 0.18486257440677195
P 4.341312240639166 6.181727859803596 7.994852827892093 -0.6318596576296022 0.3407125636312777 0.3674808328640574
P 4.90077925255277 1.157506318670336 3.417089409966871 0.9024718648993683 -0.8576199986920005 0.6359281712720208
P 0.3316925487642855 6.060337774188275 3.688829357351784 -0.3336399730552125 -0.3746516395808838 -0.5953937014930842
Ni 1.3283408143931519 0.5240177139383613 5.009481251302099 -1.1209179316885405 -0.033539783628658365 -1.2972632126529207
Ni 2.009809012360594 6.92281027368371 4.8293452596509265 -0.07758972276002121 -0.18377602621081252 -0.6841466399587764
Ni 6.358518304576439 5.807469885271065 9.170932039442322 0.12176436039470642 -0.9741305668869352 0.21995916099958893
Ni 9.279879390457266 2.1626753310105884 10.173762452492486 -1.7212198691165195 2.107902214609692 -1.12180856182361
Ni 2.292493130136207 5.565747738680244 7.082424235683182 0.8361703134586567 -0.3499214838240554 -1.0418433968528766
Ni 1.0429751514097167 0.08636126122538612 9.48246557045719 -2.635082749461649 0.5361138327858445 -2.758503928733488
Ni 1.6963144874012293 1.3163833117827617 11.532447595973744 0.7467262624632107 -0.5932607143104814 1.0561338453336198
Ni 4.079870703778578 7.124062977801378 1.4035919048102112 0.6922430438136657 -0.3184408967172709 -0.0004234606906637868
Ni 5.688505959605679 7.966743119810506 7.89991244618209 2.077175989170429 0.31035143484091715 -0.047035247011931895
Ni 5.641068147953017 3.0514525120684675 4.381888397666506 0.6793361059440106 -0.5538554730399816 1.0120972759386957
Ni 1.0669813656511717 8.092210248649964 6.901339670216997 0.8070649114522681 -1.1728094783515093 0.6045092906411073
Ni 5.768760776896926 4.828733247122202 7.015957486047257 -0.22076417339938753 -0.8711239467157063 -0.6405947235097549
Ni 1.1230931551699526 7.629698425713056 11.2872859572133 -0.27226208416836334 -0.20127418299557595 0.9911818659422672
Ni 4.96895799550675 0.535146126550823 10.262108422007744 0.07603806200218517 -1.9069363068831544 1.354330647089874
Ni 8.547908757742507 8.019772044430498 4.7568313519443 0.5182670344124106 -1.101114009588736 -1.3501207227735845
Ni 7.611794094954706 6.474125738281014 6.743070129182263 0.09881855023181046 -0.07129540511087722 0.28116092931988995
Ni 2.373523224103185 5.376324844544023 2.531613083367192 0.05042473230945509 0.3998728760415178 0.7239280336217725
Ni 2.4710347881059946 5.482446540098479 11.252898332238706 0.26474083609065374 0.33161188688159016 -0.6115494853173403
Ni 1.0793766715607984 3.5978766340256576 3.7459645120825296 0.5561720369883001 -0.7154655046767162 -0.11340236158325631
Ni 1.6822409355111967 1.3104000000265326 2.259179035334948 -0.13967363657495946 0.48977998271631135 0.5606516700262086
Ni 1.499503662590395 3.4158416705640473 8.096254456626658 -0.5156272827967183 0.07774373183938223 -0.8283420756634895
Ni 4.207490365505948 2.6839348841637616 7.186895960053642 -0.29481708665074385 1.2812647803421353 -0.7953435092502819
Ni 4.172757970433205 6.719706026446353 5.84294928222313 1.2346673921985705 0.41657347662565025 0.4519899084517312
Ni 8.510157344085446 7.257656830382909 0.3478712048514788 0.3840760182185773 -1.1719461019099493 0.3952058095831516
P 0.2490361979586862 5.9654256672746815 7.894038585250669 0.6215315362307167 -1.0422090077224115 -1.2263861260263846
P 9.402190687181395 1.6262021132089555 7.779367868188419 -0.8231672163307694 -0.7971080573498723 1.609360426540351
P 2.02344476095139 3.551250582656996 10.198352404466256 -1.3143769895150719 -0.12804376564551498 1.4856471699493896
P 4.030718162537241 6.447173472671781 3.6530799816985233 0.4851512256950484 -0.5795631622187308 -0.9161506479380415
P 7.245562514241507 3.680493764952367 10.098472142196536 0.2602977127176356 1.1898029275857123 -0.6044455272827074
P 6.458583721158126 7.731943737888859 10.171786865104682 0.05527511842322093 1.1588692141213333 0.6538839844194932
P 3.0523828440793443 8.647773514478711 5.793663575811609 -0.20909316481936246 0.33445552697797243 0.10457216488613602
P 7.2099727543744265 4.201096613156685 1.1141273084376766 0.413513606753404 -0.11365073014863654 1.1120399124726204
Ni 3.011156366734596 2.095271864732339 0.1715723767000703 -0.1962142519741653 -1.0366567104456146 0.5337111368816227
Ni 2.3292138818596486 1.2598337189647446 7.022939536579869 -0.4186475855458596 0.8361895967323663 0.22067264212684576
Ni 7.348874971959198 0.9932388724360641 8.972213121918982 0.19015878980870476 -0.2126243179010725 -0.4211289572068167
Ni 3.195626611048208 1.8970837837093244 9.52743982646144 -1.1509813267328242 -1.1945260440929943 -1.1589949410659202
Ni 6.371552073630785 2.4267528085686605 2.2163007626257896 0.24232107363455688 -1.0000424016566907 -0.3091404452519515
Ni 4.2105276258944 7.077874729731952 10.11610649425369 0.46154567046096634 -0.19215062342775296 0.5399177799129669
Ni 7.717587438034736 6.677211743714234 11.60844477617992 -0.28074852437281966 -0.6869653403544943 -0.7441978396144021
Ni 8.089519582540074 3.664158229349614 7.792609593809902 0.31958580895499156 1.3274387077950365 1.5768616825816972
Ni 3.4353147964779933 8.679213263905115 12.53526432767081 -0.7031571196230084 0.408744981720167 -0.9468961566510142
Ni 0.17177121236514015 5.518829818445425 10.023729086024632 -0.1610101932692066 -1.870105254097734 0.5786889871438937
Ni 8.886586093310024 2.46687565676325 5.821897328161313 1.846133830883801 -0.3999885756837756 -1.4052503167578767
Ni 3.7140860472666826 3.2143974275029628 11.62203492026038 0.22972523924741725 -0.15539464685464205 -0.4626417317386226
Ni 1.3083204343551604 3.6736074838914634 12.412864558196624 0.0728123559760359 -0.758361532709294 0.48203787687704724
Ni 3.4744708290534367 8.499613581295506 7.950600035241375 -0.39164791702856416 0.008680558493133438 0.7106721970531308
Ni 5.625152173845365 8.090787387927445 3.612631517300126 -0.43321674160928614 0.17234592999699996 -0.5809615852281543
Ni 3.1925802297576893 8.73131185651423 3.279217854315718 0.4273970496037155 -0.12988416128836341 0.49318335197090546
Ni 3.484923382822702 4.470664873759345 9.02918774877334 0.9490558833064946 1.2959694335421617 -0.5055639850234455
Ni 5.514716291613019 4.710626686251153 11.334609757590119 0.8211535283348503 0.6327996529453682 -0.10862628035085165
Ni 8.108582267860987 0.1717985750713424 2.2692576321194493 -0.3732719856245378 -0.2602334351386034 0.3355929830165253
Ni 4.700867321039012 0.6043983996781387 1.2636389593072732 -0.05653984406825747 -0.8172505937360184 -0.2414049895781907
Ni 6.146849530297774 5.9745192066359 0.502747770317133 -0.03225886003370573 -0.3277269500048872 -1.210065020268858
Ni 8.222958379786458 -0.04190142409773712 11.312289086050724 0.28082771435018733 -0.11393406571701023 -0.16390679809071126
Ni 0.3886653514382309 5.087310820733619 5.69930966810454 -0.8413253752970349 -0.6010488428963325 -0.06839417230368221
Ni 7.535397419237979 6.796704681699532 2.6786566181373437 0.48735800353838005 -0.7409618491756078 0.07240997833129464
P 8.985538759839486 1.513786995227978 3.7118970307705013 0.5446761205335587 0.5012609867727174 0.003904220150412631
P 1.6853694049203225 3.424460923017761 1.4204254416658455 0.46178735415812733 0.09688482354420734 0.6817650271004774
P 5.231785909481585 1.1900132136386286 8.268341252203331 0.24678965092887176 -0.4914722828170697 -1.4227299615998787
P 8.77663361888725 2.12824392570607 12.52152824915727 0.05085256387549307 -2.253319181426332 -0.00743151657738075
P 6.662226101617459 7.959008594857331 1.0738256905625654 -1.6884475597815052 0.19338552427611858 1.094036019696032
P 2.2728740697891823 3.6241721946860355 5.836995157353517 -0.5831120559122539 -0.09208148861829303 0.590918182220234
P 7.25903408659509 3.8169150971747996 5.624980700886497 -0.6959287201953692 2.141548699019544 -0.058948453509750094
P 2.7640346461198617 8.764101499446612 10.299540604092444 2.475645814216833 0.01925781978834748 1.0054962256824105
