# total energy = -340858.14184880716 ev
CRYSTAL
PRIMVEC
9.39032532293854 0.00000000000000 0.00000000000000
0.00000000000000 9.39032532293854 0.00000000000000
0.00000000000000 0.00000000000000 13.74369029875002
PRIMCOORD
 96 1
Ni 3.3324949611971646 2.9417823088369937 9.181513511365676 0.8679396354504536 -0.5623547687602444 0.22065567284598128
Ni 2.7657043203634895 6.479681244215239 13.126296178190552 -0.16864971209233537 -2.8647144005539955 2.2519834933340444
Ni 8.937317164608046 3.871884632996352 7.344902994231352 -0.4928851040041963 -0.821396754693908 -0.9516897213849158
Ni 1.7981533791686486 7.055608671502155 3.8587062505621503 0.39148568041908705 1.578532899636533 -1.2369983543245922
Ni 7.428385802664288 4.170036849519323 2.8712215269593546 1.0640531001806963 0.36137909084169373 2.164575756042337
Ni 3.0381364360689616 5.255614788587529 7.681430652890458 0.511977344748957 1.7382955936518838 -0.9464840088142602
Ni 6.070610506021475 3.3140054108102874 4.829175704839897 0.16675738016562894 -0.18607459243700214 0.24953173245038315
Ni 4.276626431256977 7.647349406484095 4.633671011521105 -0.4244551933665722 -1.0363147537251636 -1.3847018031825638
Ni 6.2106765972203855 9.338068074643976 7.999363589520061 -2.0074145042055753 -1.1760729795941292 -0.12336461500229079
Ni 4.874846490650773 0.7159803720304991 4.016497519673844 0.7109640172619368 -0.01878576524793539 0.3785478893114964
Ni 4.320939376038933 2.7374488317326553 2.1396043853482425 0.14190098324358144 -0.18793350002261183 -0.06186974092160312
Ni 5.5055852463319 3.9883903981817164 10.85930170167755 -1.321435696134066 0.08982611692521303 -0.6705385622570388
Ni 3.8687858256689425 0.3171018928463424 12.485084392775304 0.07104472255265185 -1.8643323561696987 -0.040771525490407204
Ni 5.836237378491732 5.224006953847952 6.7548590910193 -0.5032373937727979 -0.89828842294564 0.7053551557155916
Ni 0.8154699288582914 1.8977659492570138 8.93956990363182 -2.7129568362313083 0.0680064499469603 2.84755640071747
Ni 8.164662423656797 0.5219471426759653 5.065951816597166 -0.40788700459524596 -0.3220170441043035 -0.7133428019067586
Ni 7.8823892471054915 1.3249373292975073 7.274287748467352 0.6549270809720269 2.298094942980126 -0.9921231468096141
Ni 8.062505075429863 8.27402215133865 11.083433740506466 0.8382973871039885 -0.8608981552226398 0.13510118671292862
Ni 1.9808891082334663 5.596671401107271 2.018879547034984 0.7261646362617752 -0.39612986405931777 -0.9734818775593429
Ni 3.1853673454218536 3.3824139301441623 5.7804175291673285 0.21734923418056765 0.11719730984931429 -0.4463581640872506
Ni 1.294719262692647 7.782466796284385 0.5180961702972663 3.099852840397184 1.650679597004112 -0.9221356618768829
Ni 9.04940947693316 1.0705440283676526 11.70313698597192 -0.09179043974043546 -0.33536415483517085 -1.1135242103276306
Ni 0.22124826994937744 3.2956473249766947 12.746282862402657 1.7286051058369973 -0.4822996151788661 -1.4783300674626865
Ni 1.1790586267783942 9.430234116821326 2.3166364308655796 1.2576671955278533 -3.0356703921820043 0.6414652990401662
P 1.2357010685933467 5.945118199586623 11.65801647321979 1.0948688000099724 -0.8716258260527893 0.5252673769896438
P 8.276764126307146 2.7413176457293003 5.551983782348454 -0.9959034397876526 1.730512350162039 -0.9545549587478527
P 0.467138631379325 8.890403099736112 9.875487656208952 0.2154378760904677 1.292744755957277 -0.3353379295829257
P 1.7366561392074211 3.7341567327808494 8.006001610428381 -0.5820116237592234 -1.4902936675824656 -1.4266578358993753
P 9.117883728543678 5.729553893501733 2.7409176178743073 0.5003505591433061 -1.2321677657051682 0.18685389380518788
P 3.5935741736940363 8.419759998979245 2.4168687624194267 -0.8325545710829404 0.6469592322752019 1.779635332940935
P 2.361901554626322 1.7729685268895203 12.077639119879645 -3.137535442549622 -0.09566097843943526 -0.9116954403801654
P 2.958562820031178 1.6008532556650064 4.2711819206859705 -0.15706689235074242 0.8083296370973047 0.8579663262878257
Ni 4.112361471928567 8.578710034224885 6.60355465857965 1.801173721233343 0.41459115608829883 2.96003007983887
Ni 5.801202075041536 6.325952229800022 10.955329045591354 -0.1503444860252443 1.442659353533954 -0.4052156284106699
Ni 0.9196368066854249 2.122814483828823 5.347601475552897 0.655285235642394 -0.7134595299902808 -0.1163233918847932
Ni 0.5305881199568205 5.605169645444561 13.942149232318414 -1.312855410664223 0.8796618089833882 -2.2625576693054645
Ni 7.490737562221862 3.0605793133795944 11.480887707352538 0.22604804750614618 -0.8399506064366953 -0.388568249661976
Ni 7.308311713889786 6.856890608888091 12.945896762044097 1.3750722505125996 -2.3559406503440004 -2.4305625487249496
Ni 4.577069887137185 8.140782826585275 9.113729448659901 -0.9176881676284905 -0.41122429649859504 0.6123601541440938
Ni 1.116340644536672 0.7600444731937395 13.520217504683378 -0.7443441353842793 -0.7666417704402152 1.0321158851524674
Ni 0.041627311764868245 7.861974680045527 5.339601857485563 0.7984620002746056 -1.8270801566864596 -2.0020190442216164
Ni 2.457936410800314 9.089938120645582 5.320704766983505 -0.134136251696498 0.25843314870507106 -2.681071043266305
Ni 5.912871822731095 5.741949122811371 4.225593769737159 -0.29489704795905985 -0.45928824188535733 1.8270274490716534
Ni 1.9548027847318186 8.619595510296222 8.162432221413585 -0.756723997105871 -0.1286988827310106 -0.5286002980176187
Ni 3.1574217375237597 7.391331579288658 11.282621319382258 1.9466390247894154 2.491333143045103 -2.3869682090737667
Ni 6.598966545670036 3.344674213026408 1.069153321200412 -1.9839364756882931 0.8686849982569104 -1.7593336452691055
Ni 4.13148017410616 2.645357912157184 12.36148705397279 3.077274955096668 1.922876375152179 0.05562144601904615
Ni 0.29406272988331417 3.3552946708667117 3.5926830318292753 -2.33862761298685 0.5139576084037794 -0.4642383868017811
Ni 8.752872396350536 6.063924594454457 10.795174231618118 -1.8245676746772514 -0.5981098148726667 0.8786608785226996
Ni 5.618043781341163 5.0779310544989125 13.086838031554873 0.3646395067605204 0.06618456624687312 0.1496238058091359
Ni 3.1349788602131268 5.329432135256519 10.26968411923115 0.4392904586071918 -0.3771126995268666 -0.44123806925186587
Ni 6.947591760328846 5.912599503299291 1.3893774971872503 1.7707557710631183 0.7190817612730648 -0.5618513467612647
Ni 2.551567343714255 0.43535613659038447 10.36613684487808 -1.1575592370606582 -0.43799256573137474 0.40939289971681103
Ni 5.084485501512646 5.035073610128315 2.1911835637967125 -1.2172803070703746 -0.3174101414599114 -0.5649230437080529
Ni 7.8891315006239155 0.3888580631263425 9.27571255895631 1.8956576486455419 0.6501890520664092 2.692578272574956
Ni 4.670203132813693 1.8328224599346974 6.813572099548477 0.26593717039160003 -0.5369612683878042 0.5553315433648759
P 0.8529495339670481 0.16762857382743426 6.409658527973542 -3.0761074171511282 -0.06321365654400726 0.8331793491511329
P 7.646119273878364 7.771489506085167 4.032014093091455 0.06947763517584808 -0.019532156495656684 0.4292790971177768
P 5.713646682554365 1.561301205776979 11.126424527495395 -1.0644325950073024 4.730224579081879 -0.2225264075061329
P 8.27435081272186 8.938378271359554 13.349960578822786 2.068708060908734 1.0980585105918637 -1.0838292543663592
P 6.039904142504417 0.343982637862835 5.950564588222676 0.15018070675387038 -0.2190453909360679 -0.6801722286920608
P 6.329417259811579 2.1608171300531462 2.874341932034804 0.1258542141933639 -1.2038262384479976 0.05529440169693057
P 4.769562164120725 7.633160625054653 12.843753499305015 0.9399174113403361 0.12880789750504915 -1.9646570586333907
P 3.946979063897243 4.3521809880943625 0.45463259623191876 -1.3061471454061118 -0.5621830190690704 -0.2583696424569873
Ni 1.9851241449142594 2.2119474509554036 2.478495588868891 2.2496635869516157 1.2011103821787315 2.2637915417125654
Ni 7.9903122550264545 2.0305263674234264 0.00373547137831369 1.0381160685999604 -2.1576715727233355 0.5515893027136242
Ni 0.41957006083854154 6.338647949517166 7.472293085396111 0.459581347645744 -0.24228662085219563 -1.0963998919425184
Ni 2.3724281092142796 4.02793305774451 12.060981621946036 -0.7165574521893142 1.0661189815707897 0.1537871931582061
Ni 4.276635821582212 7.051336073520424 1.0424988830220727 0.599417992161129 -1.1758950592553683 0.31598240787444937
Ni 7.739092884025886 -0.05968584622347824 2.338516827694661 0.17279741571212176 1.8858542894018748 1.3435163300831894
Ni 6.1229427885537575 9.153717209638813 11.50871875328277 -0.7888784703512285 -3.9475319258263886 1.3697981465978537
Ni 6.4187004721419125 7.420695126297172 6.1877670207455955 0.28836464615718077 0.6957659693652598 -0.8565200807596024
Ni 7.397341387438785 5.09278654902001 9.00133382882971 -0.96794192157772 0.15461020328013372 0.07945865764795992
Ni 8.589058172633386 8.327800543957057 7.247885910037823 -1.3937356312500577 0.534787143554621 2.7730193487408434
Ni 2.06773083600281 1.655204458122723 7.249026834553824 3.1228066209798797 0.012738787722907092 -0.9145161976584121
Ni 0.45403537154699986 3.6787538138968605 1.2293635380925327 -0.8161655882019557 -0.2680616729337706 1.5339576841293194
Ni 8.966953031048364 7.529097040805099 1.556472700541361 -2.877694100643115 -0.8941517750694471 1.4038038141193372
Ni 0.4480725150230451 4.768848499402898 9.224682714534062 0.17008438765633288 -0.7164821188666887 1.687559757859913
Ni 5.219443255783949 0.3657597411143364 1.58468874980621 -0.8702775395550109 -0.11046770443496459 2.1242302623457547
Ni 1.3640104725985713 6.86288163638775 9.631633117289859 0.2088309122969113 0.5579147307110197 -0.028112956186132226
Ni 2.4100363617787504 2.6067918464187874 0.38891440507775 1.2794626941363898 1.376156998936346 -1.0578053194987718
Ni 8.234573395028203 5.353095754847646 4.849488856387327 0.44978595882187705 0.06895775811663608 0.41067588019429274
Ni 5.655868011386027 1.497869558817429 13.551264737006452 1.5293592661253597 0.02767509731776524 -1.020501697952307
Ni 0.9698515708773114 8.16657805000465 11.85008430750273 0.24905633547586137 0.09658400447433689 0.6598191189570055
Ni 1.9304912326995054 4.771252422662948 4.246470340798664 -1.4905371510518393 -0.16250451842654595 0.9120970466939582
Ni 6.632076832447146 8.266857333184669 0.6193126079356966 -2.436481485312546 0.7486250221478203 0.6693635681123311
Ni 6.025696580424506 2.353675629720835 9.118704442969179 -0.15693165232445877 -0.2580197153167363 -0.5531067677994151
Ni 5.7890791651637 7.510184925782666 2.854990349791393 0.5763433697298526 1.429784554453815 -0.7983234178142122
P 3.902497093261064 4.6863920535181 3.9044174147715345 2.1091101188748644 -0.4009884777031998 0.6705871561067871
P 7.964686057461301 4.49620040621703 13.020662531561777 -1.786099343398724 1.815841607658163 1.3590064552989884
P 1.9242560567437481 6.348629865241518 5.817264226355275 -0.0016480771263842583 0.4338047529022722 1.4080654176091687
P 9.536814308233744 1.685647892533213 1.9348089042423628 -4.190102139357275 0.2959195756863032 -1.2957827714526524
P 4.782107638634116 4.838045806056476 8.958205943092356 1.6931773611570067 -0.21221756938095707 -0.5396311019104836
P 7.5468729264741485 7.390824501725991 9.098693659894302 -1.2435654660191486 0.0028122726378145115 -0.3697104935255246
P 3.530856191452314 0.6249129979055968 8.520194222525635 2.6426657040152297 0.46212082623814604 -0.9213584173912261
P 8.141139658944189 2.9440923288446994 9.370090961758923 0.7834056201621153 -0.3101393188301111 -0.7863446481857812
