# total energy = -340866.8686314513 ev
CRYSTAL
PRIMVEC
9.28743000098291 0.00000000000000 0.00000000000000

0.00000000000000 9.28743000098291 0.00000000000000

0.00000000000000 0.00000000000000 13.59309259424870

PRIMCOORD
 96 1
Ni 7.348195963185864 4.785292532154704 12.11817352343304 -0.3252808024572398 1.6574164015073134 0.8980107438042212
Ni 6.2017463287181 6.308774670902678 6.9638366054563825 -0.3267211344481922 0.9516352139978965 0.20014186916334564
Ni 4.612852821174049 2.4097258496661613 13.471393853512254 -1.0163575938769465 -0.4564790545713364 -0.7774895117879965
Ni 0.40185408943488715 8.684861449465703 0.4224693975871875 1.8737006847584763 0.004440552269856869 -2.0927887560070215
Ni 1.0301710121013188 1.1665476327745525 10.927405202218434 -0.6924281632412785 1.3269082892128632 0.7602525790844197
Ni 3.632434571054923 6.838028151268035 5.762804745457659 -0.3705299041030264 -1.7554885604914026 0.27190315816704785
Ni 3.3602107132128394 0.9899564406279395 9.943482804797481 -0.06534484395439713 1.1978880185866918 0.18326694778487793
Ni 0.7369101967894081 4.911573716525036 9.771217697498976 -0.8790977089498021 -0.15313670405840077 -0.4963128987388227
Ni 1.5147240923508847 1.6084621223464548 4.07425804381379 -0.8103754638827398 -0.33161677197759665 -3.5155251453648035
Ni 0.5037176918512561 7.852735592583401 2.6112872258458757 -0.46191410954397877 -0.7003312201384391 -0.00929633770026141
Ni 4.145444336522603 5.1030433713738095 11.635455639332003 0.06011110635928357 -1.4455173918080397 -1.4068881094716157
Ni 6.608312860084994 7.868124863930142 11.81987334865659 2.252827329391578 -0.22142546113247027 0.6759705319058874
Ni 4.273387970845299 6.129100052028776 3.522907910226848 -1.8427731419416844 -1.3774533491502665 -0.4941732266880005
Ni 0.560716506642578 8.883194515011665 4.824990722525562 -0.9069383853111541 -0.4974084457958466 -0.011401814079038428
Ni 6.411679394211002 9.159467692290791 8.430082171207557 -1.3724330131175395 0.9194789409803261 -1.2291284646582121
Ni 8.249318136806211 3.356365717233629 10.497197518037337 -0.10289991939003569 -0.6439998925365619 -2.009160797472721
Ni 3.3345681192548717 6.089507738358796 0.5135688687477488 1.0072114086013042 1.4692656432675728 -1.782604185761272
Ni 1.910897989658031 8.245036631621632 6.644969417163119 1.3039509090857415 2.2467569548277817 1.3932190966249556
Ni 2.021139782588519 4.036038412283248 3.3484955491351207 -0.33753005213823806 1.8065676385554048 1.6224064610910314
Ni 8.033729026503313 0.5883856178050473 12.50568596361407 1.6617929333084545 -1.5992570195577618 0.5552690655580566
Ni 3.348898623592845 2.6308967053398464 4.87604651092293 0.23458513844287987 1.1891791779587844 0.24873906134575868
Ni 8.10141581562525 5.971130156834617 8.498020649679823 1.0396137361914095 -1.8315713596885939 -0.5671727589741781
Ni 2.6628454642009145 3.9773790050255426 0.19330577974029464 -0.1549747857084041 -0.9513377373621357 -0.7651808696239725
Ni 8.887485307626147 2.220243704816303 5.490073793942955 -1.2601768493235845 -1.7787107642441364 1.9672039934249603
P 7.956039675377489 6.295493646143571 10.587645940361806 -0.6799477713860806 -0.8687893850452586 1.416765773596644
P 0.14226392248777772 3.227149705014431 3.769854170106092 -2.660210140656896 0.7029367760820862 -1.4789990685052528
P 3.3274260856606386 4.525625279539413 5.939786938403125 0.03479653885389491 0.4105828062598542 0.51806186038014
P 8.263444317686353 7.412186355207015 6.98771923144802 0.7578786795356044 0.6913246457644545 1.2698426545481225
P 4.350445776737823 1.206409281911676 3.0921569113965175 0.8199656786743361 -0.17111899956843435 0.3819486874629293
P 2.074653953680808 0.9668214527433695 5.892565001069084 0.7119353800362707 0.044389324748652585 2.8566154255959444
P 5.065104220226291 8.215419017665834 6.568779985966383 0.7690699202657336 0.7980933040812772 -0.8194553146968211
P 3.138677647772997 5.891945529494655 9.699786216640764 -0.7444503219448404 -1.5571359220179957 0.4622534951612684
Ni 8.31367073859352 2.7810651594167677 12.638042055882957 -1.8182841556613847 -0.8951887009743937 1.1558965046462544
Ni 5.241500376344973 4.551955143310089 13.471298192984268 1.008657139908895 1.2164747804499438 1.4762461883504638
Ni 4.060195017456979 7.270311576032109 8.401849313050068 -0.5741152517302822 0.5389975820915427 -1.1234910917323555
Ni 6.110107257880262 4.519170515757889 10.130809337167207 0.05557645171372365 0.8421771817743688 1.1415602905292404
Ni 1.0012499553881309 3.968648820918158 5.821051790827739 1.6214942336894076 0.0043873304344182506 -0.05146397220724685
Ni 7.442807011592173 8.558413091357144 0.9064373697529606 -0.8860088342473386 -1.086426068559258 -0.72001584305156
Ni 6.353753693915513 0.916809571466926 2.2032774278722917 0.13536395345601204 0.08872157100712462 1.1112320718593445
Ni 7.4178238251572095 7.07767170501575 2.9133255911576685 0.734673959284367 -0.11194711719396849 -2.3738509549655182
Ni 7.1445876374558654 5.132113026965421 1.5325671026775953 -1.4575067029594317 2.4405379147701063 -0.7381099815491095
Ni 5.668322792326982 7.528167779816613 4.444153158214718 0.9094135863245242 2.0200062248276565 2.4719174575226526
Ni 7.970500203734082 3.200689817225134 1.7120225382058227 0.7789524694867681 -2.5426122529350534 0.7022448922213842
Ni 9.086245594947576 6.493445927063573 13.24727052387289 -0.8026667823845725 -0.169584822312095 0.5860300008899972
Ni 5.72996346458306 0.9053498117114981 11.752084397805735 -0.8279363555846385 0.27024171130422486 -1.2962393993740966
Ni 3.8740934970912577 0.39941335285678 7.656010181153384 0.07207753469254038 -0.43155195231235355 -0.5747649694991392
Ni 4.432537369636946 7.35397274458458 11.68169961029742 -0.6114744091050308 0.5853954526297918 1.1559186161334414
Ni 1.0841216923989772 1.883797269205532 13.218099635295353 1.0932711165055495 -0.3791991497422501 0.8457289036813692
Ni 2.9821287293537635 7.774154648187035 1.9785429853454115 -1.462213878627114 1.1504082278381735 1.3126931740547458
Ni 0.13229943894648702 5.534286603988919 3.8733792937318343 0.4605665943771487 -0.23297537075359875 -1.0049069288378436
Ni 4.337879884081129 0.25912672419502597 0.8850976420683454 -0.3695348871796087 0.5475796673335989 0.36676760884711673
Ni 2.504420484941583 7.8640662570631985 10.57871514776855 0.7970887740761627 0.06965247019081552 -1.1188204257295635
Ni 5.061612146583338 1.3568749337454449 5.440009903059064 0.14116204819502784 -1.1554126230313007 -0.6226067715727664
Ni 6.080749691961706 6.964504371666298 9.64196082058821 -0.45126022937455834 -0.9542171157924599 -0.17514843244280157
Ni 8.076469778909892 4.8913085444800215 6.090371469339632 0.5409971290200748 -0.08868840377634403 -1.1311334387689618
Ni 6.988243042494465 4.065776762827765 7.949063886778491 -0.8831600519446338 -1.866358642571108 0.11746496168840417
P 4.812690450364051 8.751108686952913 9.942585639069 0.16855895215074196 -0.22088398680670343 0.525461752388637
P 7.592566818753429 0.6933874427851239 10.480668679041687 0.06180314934972582 0.5812860584471086 -1.640943600663271
P 5.628944089544735 6.848513659626799 13.55685306849365 0.14095378883896373 -0.16276471406646809 0.8831523386351499
P 1.9910485097077453 7.1072428818220414 4.050673544321989 0.20358457629630747 -0.5481872190106107 0.3355032515161964
P 4.445846256685757 2.8012003074431617 11.209747714938173 0.16478457270997426 0.1834798351266324 0.11704432921121777
P 9.190329821853387 3.7266648348352707 7.7709124064084305 0.5610913286667886 -0.16309690059490622 0.513639048722096
P 9.223773856928592 5.687900694559287 1.5982626668286566 -0.007291391455090669 0.7412894077183556 1.5762708430752337
P 7.863620460427927 9.008184746625693 3.7530253471246224 -0.18566295882088024 1.1628320554238232 -0.3413802791222637
Ni 2.9265806111130512 2.4961175226096657 2.0607404549454107 0.7869187755216964 -2.0896622945628978 -1.1647321006600133
Ni 0.2523552590538618 4.135525361387829 0.1966093185562487 1.155603655996184 1.2167025801900335 0.3520066484878583
Ni 5.662397412049842 4.253670757164471 5.875586650466201 -0.9443183686215091 -0.801632170472471 -0.7643475750893998
Ni 6.99503215375244 2.2653063146982517 3.9892734165003594 0.27174220710915137 0.09941658882712555 0.4280560233439531
Ni 8.914502441209532 0.1505956758523894 7.15653220105215 1.922652689177147 -0.3501855361187195 0.6232284643171654
Ni 9.004051840319537 1.0673671688567195 1.8794758280723765 -1.086807620268393 0.23652015068206364 0.8574644469507426
Ni 4.6474856472766435 4.728416311438082 8.383241018499476 0.3984088899014816 1.3122594289514367 -0.1904110150288269
Ni 0.33405677989712235 7.410412456095833 11.274613911599031 -0.38776992213039674 1.4721141684599617 -0.7946909632679475
Ni 1.5094395447369464 2.0377921444018603 8.528319960990391 -0.7325348014541772 -0.6361716547413947 -0.7609038395151735
Ni 1.85667797389323 5.545357220431475 11.75803856911557 0.39286404882385245 0.659190227123755 1.120829228629476
Ni 3.3262558694930533 8.891516052203386 4.409613206411139 0.2663184649904188 0.6571336017050425 -0.21697179623649082
Ni 7.095336396688352 0.27395503477571825 5.805120133574752 -0.20004159614005548 -0.5099975953147668 -0.3932029202205099
Ni 2.8776637178219913 3.624335932180838 9.798825511624093 0.6559956314458573 -1.2653013150343433 2.523452649287467
Ni 1.1437562797963372 6.318294286551688 6.060358210870032 -0.9902264440075333 -0.86193019603158 -0.5426477772496202
Ni 1.3356531564205782 6.860633755648221 8.48715992915304 -0.08955332287980061 1.079746085435921 0.6486913844749602
Ni 5.533590046746308 3.399106469640209 2.172013152594962 -0.9277519796223958 -0.3263863768165927 0.16363683225877623
Ni 5.300707741966866 7.8539708207602965 2.169212992479668 0.3112037555388834 -0.5986554029634916 -1.1592515371614165
Ni 8.061739915086156 1.835251873110531 8.524486109927063 0.24559614484140285 0.40206576992777854 0.09885300301417169
Ni 3.3566629149904768 0.36209738825565047 12.287611537069536 -0.9434182254047428 -0.19521974927137992 0.31965600007129463
Ni 5.819661462571489 2.3708951052481018 9.389333439838236 -0.8073893846712223 -1.1479777640198099 0.7867071737315225
Ni 3.8028681971768594 2.7254520291667457 7.556114585133137 -0.31908727205201814 -0.01778483478724679 -0.8756753135318145
Ni 8.092472020630131 7.03586898302922 5.028438375718265 -0.08112473249647319 0.6476171775741749 0.47270014441588915
Ni 8.203688993700274 8.110926143844358 9.272446490813243 1.9535858884208939 1.5104606294486438 0.8468578750794898
Ni 2.310322487430693 4.621452981262814 7.931284030975111 -1.4722501798171934 0.9764730989771829 -2.4097070454321785
P 5.890970349355001 2.122595666832213 7.188937901464371 1.381233899238621 0.42013856826908935 0.5456652239197054
P 2.130443545098958 7.71984175812322 12.732880646321853 -0.025741113519845992 0.08039479630898412 1.1156718527982525
P 6.4550981290003895 5.499932400783369 4.00674028591606 -0.11560322588931704 -1.255054697605671 0.2829157072274676
P 0.8303612452010225 3.6531455397352084 11.660916199663903 0.5195189045416407 -1.2574926176232022 0.09884811791816524
P 3.6137389746632573 4.647058425501176 2.136834225614162 1.2710716418592174 -0.25718384967900226 -1.6736570317358916
P 6.465648649368464 1.354664525428894 0.15502113620044145 0.48714511619662554 0.2215470743119991 0.5922307303840704
P 1.2299529167119108 9.073326779954627 9.419483223527388 -1.030299143658703 -0.009204806427719632 -2.2034528927235084
P 1.7115711691126112 0.41613072667943196 1.9740023608665813 1.3040473254542897 0.07760257827582764 -0.43601075941465556
