# total energy = -381170.2140629299 ev
CRYSTAL
PRIMVEC
9.20346848458145 0.00000000000000 0.00000000000000
0.00000000000000 9.20346848458145 0.00000000000000
0.00000000000000 0.00000000000000 13.47020642803253
PRIMCOORD
 96 1
Ni 6.869468909961318 1.415843191546931 10.545474133120457 -0.27637456367484015 -0.2970665448065529 -2.9684846383641266
Ni 1.476806967082279 6.216832549640878 11.37153513231813 -0.7890754168533829 0.5667125315083079 0.027138765198321004
Ni 1.6958587215383205 3.92412889400423 6.157837396023859 0.8012189941944523 -0.0987632715138428 -1.379551883550508
Ni 7.311290620159071 8.461963476451709 13.204022105208338 -0.9789570417413009 -0.7770994754384294 0.37818459243480673
Ni 3.470361081655981 5.673754278688309 6.799639433192094 1.3553128084974853 -1.0915297083344104 0.6072282322341671
Ni 2.9342866502538953 8.14414009774365 11.113795677554059 -0.2565464732053195 -0.08062953802760951 1.0258094833184657
Ni 6.777894398098892 0.06421628131345673 6.01463602744864 0.8298662256174998 -0.44369887208753267 0.054803063882808846
Ni 5.85609339718262 3.0415254655524873 2.2137747095329123 1.9213766506782006 0.4888993798835709 0.60728582494498
Ni 0.33206390556280463 4.821697162283943 4.169958140145068 0.09699898052456843 0.2178523990692313 0.5086631927740594
Ni 0.259444857482474 8.578203283971552 6.784875228978053 -0.7284066382184166 -1.803220833570359 -2.174457533932423
Ni 2.699653423578448 7.060569730495129 2.256515617381064 0.3576967568941001 0.4729531409669597 0.39773191843911504
Ni 4.42659225833882 6.196318018289989 0.6893388724667896 -0.6641699397265336 -1.0525774954409293 0.5779004298043273
Ni 8.359169936452568 1.2293809191516787 12.286687547569134 2.578910316035139 1.740049857338829 0.38713434542892683
Ni 8.262165378158098 0.4093399087187521 8.372218614132825 0.0011983911834753556 -0.12484762730572048 1.030274718178671
Ni 1.6318762083254974 0.7249562956735827 2.7443795195882803 -0.7171940573320488 -0.7295924309964015 -0.708111121194174
Ni 8.47195844327408 1.998542394516359 2.5374634587344294 -0.7013313792681793 -0.16938144805203734 -0.18782885612394748
Ni 5.658697404175049 4.160115030553423 7.7468236003110365 -0.45560487949649925 1.288723807723342 -0.6318802264548925
Ni 4.011663083182475 8.626908039426423 9.156116683305958 0.015583970481186064 -0.013522202856150906 -1.1641384329400724
Ni 1.9174506333083348 1.3775843728723476 6.015080554978585 -1.8695457820498382 0.2732349896045939 0.11693120067212119
Ni 2.586690050854888 4.464538159083421 2.878219119975915 1.2407660488971406 0.6404584550422067 -3.322649727955884
Ni 6.243467387563477 1.3785691440049384 12.576741300684981 -2.4809237747863206 0.6486214504689732 2.6045465285460048
Ni 1.131299555039329 2.827986588745249 1.6368322761283032 1.2113271748107333 0.9375820783389401 -1.1444743788522418
Ni 4.505502797505498 3.1282681564372483 4.184128720638996 0.012462908353701117 0.26018458417853896 -0.344164269625304
Ni 1.2065471137315098 4.466627346439479 9.924120362329704 -0.878475759095087 0.08277023851969616 -0.05746672675790102
P 8.26447544875885 4.227364775094001 9.242191202375523 -0.34504101580330254 0.00045945613492178936 -0.05439811513490632
Ni 2.6107663245264563 7.0738411321137855 13.303903667764937 -2.1432703096963412 1.8126647525920783 -0.3378748370721665
P 0.5932454575566796 6.410694410733354 5.812326302593497 -0.2570455243289251 0.6717343823373528 -2.0388002176057083
Ni 2.6144477119380114 7.882991678236479 6.959288320375286 0.23166333681039458 0.7772172319632162 -0.07724776603957019
P 7.498415542288403 2.9669681669999735 0.5569782694717471 -0.12210451734294456 -0.2867109126038417 -0.5377266857989191
P 7.857553291222636 8.58342165062743 10.9666469413268 0.9305169439620425 0.5931627552800366 -0.31779889225789787
P 6.897944441589695 6.028630821693666 3.6205764135970644 0.8886622127097855 -1.1543664411549732 0.5940515856428931
Ni 0.41760830484510425 7.418943591541464 9.104890177474173 -1.6999115945570464 0.7751305246375166 0.394906533175178
Ni 3.1486262288231464 0.1943533263119201 0.8228462276405314 -0.2360524670170257 -1.6876569455594095 2.3601009523692773
Ni 1.1169881614769097 0.1318360052888959 10.318488068445664 -0.1468786389638309 0.6760625773990614 1.0164002741894238
Ni 3.022179774704767 3.3994575601094352 11.28211975417258 -0.14569567439932324 -0.6772897649379432 -0.13184771277263743
Ni 0.5396647044752048 7.634746521606808 0.9880153552473505 0.7172385374167389 1.847321166323683 -0.9760568373753707
Ni 7.555108908426348 9.076525087468143 2.2641931508278614 1.1191963210117435 -0.14645466405253488 -1.7928893697373638
Ni 7.61538242382203 6.833520161887486 1.5901983010924323 -1.5190619979644098 -0.2779424223825923 0.5736434543001863
Ni 8.001605980636777 4.532119228491039 2.1878043620380985 0.2850206693856123 -0.24803457907956636 -0.05108242049811203
Ni 6.519322949779809 1.2780488607324334 3.773584077889812 -0.914862011033605 -0.14561725575290407 0.6689930721467898
Ni 6.2556527798957235 8.029833018614873 3.8421876526509893 -0.19361820911221492 -0.20795416611891285 1.6346971055329267
Ni 5.56863226115136 0.9807584203123231 1.3362690822993206 0.3198215791148814 -1.3938968394182705 -0.2827033341063454
Ni 0.6626883886476913 3.3764120749131017 12.59919592320176 -0.7868904933869222 -1.090466557177219 -0.5103086987972824
Ni 2.3027538432701924 4.732359093274035 13.047349619747388 1.1480312429655646 0.48463057730488796 1.8732211740188964
Ni 0.4713952156216262 7.054799155727518 3.0173939710697453 -0.18295353030951716 -1.597633882132042 2.0156813722000577
Ni 4.067758223866042 6.054023191364865 11.854603107074944 0.19904940743011526 -0.9529071387317847 -1.831993534827677
Ni 4.608158285476704 8.543018423785616 12.919813474955188 1.1656574406877602 -0.27493088924977815 -0.5068834751658174
Ni 8.915942968576122 5.778213646491177 13.328877279618073 0.43972343237955236 -0.6737843228878461 -0.3469271770824218
Ni 5.369947782549747 3.497833435214709 11.821345453198958 -0.5327744839999664 -0.0009379384332370945 -0.8266446333564085
Ni 9.10565406536207 2.2272761978647897 9.96533993683003 -0.03919723902475185 0.8039191667344348 0.09706917164087153
Ni 4.969790174382265 5.3982760586816605 2.8924440009341628 -0.3523637747169609 0.017975096421181946 0.5984913665818016
Ni 3.6097752229315625 2.0330738084367432 2.1539935797035263 -0.7192676520316257 0.5273761958025304 2.157330387333833
Ni 7.668615285793114 3.27818345530429 4.321161004259301 -0.23364077225173954 0.6006413230452687 0.6342816368075335
Ni 7.621475119988153 7.088566681760004 5.887584905447913 1.0882608077751517 -1.2277084443822341 -2.168077084327376
Ni 2.116806965112558 2.8245444915154456 4.108534191183276 -1.0146110434994848 -2.0601740552957937 0.7539921999970047
Ni 2.0496216448516824 1.1585602288218926 12.750197231355209 -2.3848802161964864 0.5635264204708424 -1.9762645609653318
P 0.21611860903588515 0.8533456019984103 0.7607541068635417 0.7268194962369547 -0.7890039401854991 -0.04784900116247889
Ni 1.6165340262878427 2.8336743322961016 8.143736985822084 -1.4971623696778409 0.569986060053257 0.4958976655782751
P 0.9324678209412526 5.088376866376975 1.568699918955805 -0.10767085841611779 0.5698271658778895 0.04953127396090824
Ni 6.042390007144351 4.6603511555040225 0.35030057845279433 2.175878839759982 0.2814411795644702 -0.800568505094647
P 4.241952272712287 3.9217083817811322 1.209380861691554 -1.8026284514019988 1.5515553426064246 0.3458606834911205
P 4.807192495882417 9.090634004722926 6.54200765900981 -1.368527507415546 -1.3191114188762636 1.332918499962685
P 5.940866545802199 6.748194805156173 12.715645569804062 1.3531122013017405 -0.4970932285482729 0.3818905805314842
Ni 8.561618633682498 8.545098407673144 4.328260559882485 0.6958101923396339 1.5828541527197062 0.28023533218182706
Ni 4.3359196863922245 0.9735429009856755 11.127050512929362 -0.3135959099201438 0.6119099539805526 -0.3115976485431924
Ni 6.9289233166579285 7.738957395759397 9.209418571291009 2.4453186239882014 0.1885366808242495 -3.26546145167035
Ni 5.963028498019758 5.260932697825079 10.13105022838635 0.05841366405220263 -1.1074936878628345 -0.16494012445123205
Ni 8.059744291333756 6.153475872288019 7.913260965881136 -0.01443802980220094 -1.1462178439059099 0.6651636710983706
Ni 0.35896656441959446 8.496145158567995 12.355412608114893 1.286273032190004 -1.6024333604032144 -0.3355143072597899
Ni 8.368364201512927 1.8044780571162458 6.143006926836409 1.3467122113126677 -0.8277648630037807 0.388098509114409
Ni 3.9142719792097918 2.2937896649230565 13.386178995025777 0.9428795792924535 0.20576050090170372 -1.761636325260353
Ni 7.65995482190743 4.029020824827956 12.01710783054265 0.14660635913905073 -1.1153602350951048 -0.4019909508257851
Ni 1.2528773743059274 5.635495460013725 7.55754046481168 -0.6172077120443822 -0.24461861141948196 1.9798689904871385
Ni 3.531499723093378 1.6736875658522314 7.579792611020824 2.231433179986518 -0.11212760863589076 -0.013399818345673699
Ni 5.692510947550181 7.829832444013627 10.802243542301584 -3.0661251091274355 0.2210642211383096 3.120343247041052
Ni 2.4801875130386066 6.78585539837638 9.137716188676155 1.9603273209097851 -0.854611807993296 0.960541515348591
Ni 5.838781672879782 6.913903256018785 7.167120126347761 -1.7501180402081087 0.18469005338464967 0.39531302458497725
Ni 1.9539055721512564 8.620088269246517 4.676492198609985 -0.2765260016510399 -1.6568867542560881 -0.1542358506598505
Ni 7.106946008412192 2.3685862536573214 8.079052247960508 1.299479246467633 1.8377643758731834 1.5313819529823431
Ni 5.7921016805012675 0.6713893477949011 8.294225660778476 -0.5874466787318656 -1.2119177572068807 0.24561465678416408
Ni 3.9024455221501717 0.8790288012751226 4.93083649383375 0.9138155720469617 0.729103664285441 -0.35514519411684
Ni 5.910062536636013 4.697974934850114 5.3798654402364745 0.4375004565863046 1.477467976572707 -0.3870443568182818
Ni 2.611714281784932 5.944787223395504 4.434270712132471 -1.696896976100439 0.670519021873013 1.5592313710944437
Ni 3.398224295326564 4.212731260133071 8.99796335975871 -0.34755966846009817 2.057818924800056 -0.6635405336726509
Ni 4.215611945782613 7.257919706160055 5.145039861068774 1.4142820879428415 1.7631838722531312 -0.001958923498583723
Ni 4.970250347808709 2.7488459628653494 9.420806597503045 0.8950089808634198 -1.6326623344910849 1.4585896516109653
Ni 7.7899077975353155 6.197275179016993 11.185094027900494 0.7173971744817903 1.5296523718857462 0.06871761708137197
Ni 1.4877959085057701 0.5084253712476033 8.177533042607012 0.8872758738852203 0.021219828610724745 0.7799927378258245
P 3.743832945523332 8.950336330468572 3.169808931989233 -1.03078482504587 -0.4437919460219712 -0.7239303476146177
Ni 6.099515936303154 2.322182365334673 5.961953532895585 -1.4983453342423485 0.6438471690087815 -0.0258832955246651
P 3.9775090114717746 3.5413198240137005 6.196699041887085 0.0681915693745729 0.0850484930309116 0.8642956109399631
Ni 8.505072523041015 3.9363879140847073 7.006608874163412 0.22467482130770336 0.8266284354064926 -0.20034807163688076
P 4.644079423144951 6.305388323825829 8.871935663458395 -0.7479511360092473 0.0006252922888247296 -0.3275212617519843
P 0.3769667081683918 1.3786151613475828 4.488596025817932 -0.10077001753122646 -0.054978670228724665 -0.8965341592586946
P 2.686262376868917 1.8182280390984034 9.821733615639543 -0.0048149048901400945 -0.48485966259655855 -0.18428973262243745
Ni 5.081069312365038 7.901122511238387 1.9545939915972173 0.4125242462569412 0.5069606082606559 -0.7278564221419013
