# total energy = -340885.71614885854 ev
CRYSTAL
PRIMVEC
9.14263244191281 0.00000000000000 0.00000000000000
0.00000000000000 9.14263244191281 0.00000000000000
0.00000000000000 0.00000000000000 13.38116673019368
PRIMCOORD
 96 1
Ni 6.290048670120674 2.1956945492254714 11.665312990175337 2.3873662158431337 1.0098611875193253 -1.9496294748763066
Ni 5.027387164833024 0.2094412469710482 5.654011290420131 -0.006637559921175666 -0.28275758438304854 0.25427464645200726
Ni 3.0299231669745854 1.798008333776564 5.045529804171311 1.4363339255365586 0.5416787284681316 -0.8217934759116944
Ni 3.4020465827914372 4.892569910407312 4.857992475425756 1.027413851691108 -1.135361103697064 -1.0693739981729777
Ni 3.7453707071773255 3.669706283087594 2.6282882486783663 1.0345008404448766 -0.8295006147479651 0.3066855559535557
Ni 5.730537864726353 5.00515228332188 3.1220397577087677 0.16223763791840445 -0.2501333705901241 -0.4962427076225195
Ni 5.4830010979030686 3.326254161850901 0.4749515144369125 -0.2294971823970112 0.6109082521889155 0.10294491369535819
Ni 6.024674627874594 7.78776724927819 12.102983593289062 -1.75914672606928 2.5790144457131716 0.21387001738271552
Ni 1.6658881558499432 7.012874314509061 0.3250891444623779 0.7547954126245904 -0.016977508394603023 -0.31109396943389644
Ni 0.6053803054064769 0.10243496543544761 13.300343848086028 -0.7090670573495401 0.09110164120352697 0.913768006638478
Ni 8.640463984071921 9.128278267751446 6.678179006393822 -1.2438644853168062 0.2629981423679341 0.40453557162450976
Ni 9.028449866756304 2.5035544033063726 1.4141220073707985 0.15453075619245 0.49839549229946417 -1.0344707585378894
Ni 7.335810369088267 0.33739055608788954 4.472695440871483 -0.35314539007799184 1.7506250617515142 0.8660318769047796
Ni 0.8077753257407494 7.892029826890479 2.578604442512244 0.27628303240229835 -0.6589369734623683 -0.14235966804755484
Ni 8.105601715089625 3.905540480694485 3.687408247553826 -0.9058757483745947 0.34966951571424937 -0.4902906038041427
Ni 7.679088780313154 4.057719593668577 12.774276791280425 0.5873245513317046 -1.0102036584604086 0.25183826909637275
Ni 8.647339243486552 7.284520202444551 8.817131637394533 -0.4571871363819546 2.4177402001493005 2.5663898149706257
Ni 6.68321842526263 0.9597203873305136 0.16499891184536108 1.0149745974864908 -0.9299394741920178 1.1979507535038274
Ni 2.2045903303563685 6.828001148786675 8.941990736827671 -0.25375759760627264 0.7969278230182661 0.9407332223734121
Ni 0.16615362629225972 5.166629453243683 1.1604560199204306 0.5916285780236972 -1.022261360955891 0.1714604420682531
Ni 6.707766392720451 1.7759288770128252 6.619984323912434 0.9118211673247523 0.030912373308140312 0.9134556176043817
Ni 3.785351437789263 5.127626984277178 0.51791000035649 -0.32189131715971664 -0.8145013131256553 -0.009432091947177304
Ni 7.030720732564058 5.748676847011759 5.065922445294093 -0.7167302303217528 -0.25547355185611487 -2.0405022878984793
Ni 5.89366070844421 2.919434456833889 9.363992696876513 -0.34291137105480946 0.42482029001547483 -0.7228479131837164
P 0.34208529772274665 5.868244190927359 12.421977344863498 0.5084994135026856 -0.4755574113590261 -1.5675270354443327
P 4.007828249751507 6.78571647486026 12.633748134519182 0.16704457238874457 -0.018885266940277153 -1.0064609035885248
P 2.19267748059937 9.172162902312914 1.5762748178122044 0.7180913723353375 -2.626653130637057 -2.022255425873149
P 6.794356262289549 7.875554803665527 5.8463384441754265 -0.4062080742309262 0.3886867775177113 -0.2331496915479339
P 4.726137433832943 1.4606634908496758 12.743126014847542 -2.11214016395044 -0.5751079546608547 0.16671907072852576
P 4.346718197520247 6.0980625365464505 7.894419710947638 1.5703267096766569 1.2815391170494446 1.8493240556863249
P 4.854353707810034 1.4668439102170827 3.7961562005235847 0.628954311057349 -0.13892107467965106 -1.1071812988287382
P 0.398249401592446 5.61093395028195 3.5140145708221437 -0.5186128477876036 1.9387259405899255 -0.6805046723308151
Ni 1.1691598057751218 0.5307535700714798 4.811318423779973 -1.6128931222839578 -1.6626316271596655 -1.6713466384351603
Ni 1.9463566838587278 6.814177488899811 4.492445354950584 1.2558620239983147 0.33321445548201967 0.4748979233981563
Ni 6.354860789788643 5.80728111941572 9.371178805785954 -0.2307986748172541 -0.5323767343409154 -0.5641020904686543
Ni 8.909266513393117 2.533871371682587 10.022051934757933 -0.7140740236458282 0.8491451284517697 -0.5736591380294702
Ni 2.5899065644382615 5.487060426600005 7.040875454148938 -1.0747062090191684 -0.42507508633875823 -1.336945104623575
Ni 0.6254438117700483 0.2634888314863767 9.046404167871266 0.2622504655686322 0.042953106522758286 0.024574089794938324
Ni 1.380071188003979 1.323194873085876 11.233114252433495 1.0079040637929544 -0.3612433365947778 0.5084706171472791
Ni 4.105188140052566 7.526498248890047 1.4776825006905454 0.05352419717038524 0.4227610934936009 0.06715104392520048
Ni 5.879069067452522 7.945678792641873 8.133862505483991 0.2306600923568608 -0.1671042219820864 -0.9196481195683387
Ni 5.356576779837239 3.1401650260458744 5.053223329167868 -0.8012498474323878 0.4265876663285428 -0.5290343002312438
Ni 1.1438712851090755 7.571909703028966 6.596928434029703 0.6613113872318159 -0.302565363137595 1.2009234629789058
Ni 5.687082933878298 4.449371671865282 7.223380678131444 1.1545433330524697 0.4365326933563966 0.1227982009758595
Ni 0.8410371359486822 7.64403592845718 10.896591332141414 0.39433240583926277 0.04455104713749747 1.2200583840361439
Ni 4.7907667008569055 0.6333147038312916 10.261869577214496 0.7137027563493387 -0.44910693047698136 0.14948805156221998
Ni 8.787888928301856 7.611122452536079 4.693095961061037 -0.6724910579977192 -0.9360890387331814 -0.520930954397819
Ni 7.858119804059544 6.403143030438458 6.98563749892113 -0.8157241297891629 0.5800169619266978 -0.5033705769165525
Ni 2.350954729251066 5.771460286454921 2.3444470036508887 -0.09022720901837364 -0.3204496996171836 0.21204453413820254
Ni 2.7099401825960783 5.412291980465903 11.307393567744882 -0.7150459006407943 0.2554843504893922 0.39829447581080435
Ni 1.388281271719854 3.664037851123404 3.471342249290436 -0.1905601390121815 0.7344685281417802 1.049968339952856
Ni 2.10958923916299 1.7266318041887756 2.604644487545155 0.06743129416978065 0.6697237796652271 1.0450948139106389
Ni 1.4643479716263992 3.511666742873105 8.104611568022332 -1.0715668920592385 -0.11732560789706245 -0.06289792507580136
Ni 3.7655119259145993 3.194847109235904 7.217225858134199 0.39416914078852117 -1.6620963234814856 0.29056911000766733
Ni 4.671994765942732 6.63779782849151 5.749218090838017 0.7687163935810567 1.4551795974881518 0.32664965778030836
Ni 8.181613559202969 7.2573757274418425 0.03215006613237579 1.4621534577028237 1.6985617653973715 0.6309338033812231
P 0.5735401745056914 5.791848356261604 7.925116098560165 2.247190442820775 -0.6806926199719051 -1.1025787670597205
P 8.854776425479294 1.910380426150524 7.709599572492014 0.03459085060099204 -0.4430224148457983 1.677902694386123
P 2.0277169678092504 3.378796869106059 10.2882835559044 0.27921743244027397 0.25694268020247363 -0.25388718120560144
P 4.137946191226261 6.438909007606055 3.544737472068052 -0.11683658407578588 1.023470550772644 -1.1495623348981105
P 7.275514709727249 4.0913279096369015 10.52943876545187 0.1618995378526954 0.7287444811738095 -0.25641123317903586
P 6.915386427357198 7.877081623242979 10.090764301322553 -0.109888692003043 -0.12698498536369743 0.5374271522806292
P 2.9473926261024244 8.515712767698748 5.7216530547540945 -1.0037139369710069 0.37049005200402646 0.07019908672290491
P 7.231483793050575 4.460187405758244 1.5604041225756933 -0.7001779823900265 -0.7527626984652778 0.21539596710893874
Ni 2.4472175036880874 1.7234501681830692 0.18916837433008984 0.29180658195919423 1.2584151294374715 -0.8361266047049147
Ni 1.781569881080414 1.1070721905028442 7.00149448020934 0.10360234477369899 0.4672974853430791 0.6203313452750284
Ni 7.214304787146201 0.706962263257636 9.178610286540568 0.011682064323618591 0.5431440001597485 -0.7845420477594036
Ni 2.809476019360809 1.6029685610474378 9.219636934276222 0.6736110305347753 -0.01941131464707625 -0.552362690544539
Ni 6.620966242610747 2.2146197978801045 2.395750884242905 -0.05062065037034508 0.2492643377216094 1.0160475188356952
Ni 4.211224388311714 6.943308026096933 10.17501182852193 1.2547747044714068 0.8414762990526025 0.30631454576738215
Ni 7.302540330511353 6.104151529591853 11.655250609175681 2.4646201525302907 -1.1325043509745594 -2.7493510585896264
Ni 8.15654446170973 4.461567943220491 8.149197442473564 -1.2348622818181958 -2.858866169303335 0.2023098233489419
Ni 2.92634628677732 8.746555088124273 12.638243566772072 1.4990523876117021 -0.10199026309157275 -0.5995714870198577
Ni 0.3863511800469679 5.202614853584087 10.033466511060015 0.15484185967496558 -0.6941541447934497 1.5192823415053318
Ni 9.12154929045202 2.438778854167205 5.564116359310623 0.017119433289106003 0.6806455687840536 0.3468544148629575
Ni 4.066112530028458 3.008117989176856 11.20607126064821 -1.2096122490021555 -0.8765746854176323 0.6528552860446627
Ni 1.15387332473621 3.7345915438131647 12.217259181687126 -0.7688290078995211 -0.2659343421781227 1.2891547246131734
Ni 3.59726920816457 8.521820046008552 7.717480521448678 -0.0796175518233274 0.5323191416301025 0.9967228503651544
Ni 6.066246176489385 7.896235437702619 3.2885014907061776 -2.102337318927405 -0.4612463940529928 0.6847930152935238
Ni 3.223052129573848 8.81042551667561 3.6068269158667694 1.2512674626490965 -0.036882731958962287 -0.8001180478207898
Ni 3.906491314443317 4.419292411926276 9.315325551411064 -0.24070513529768867 0.6601983566732952 -0.4182745184771571
Ni 5.224026898197203 4.991173198687612 11.63964779306264 -0.183127079772904 -0.015452587109644356 0.03047451443977332
Ni 7.971845005999149 9.075479566794678 2.2787059925513686 1.0013541784895785 1.4237170081034964 -0.4462116112070574
Ni 4.4697048858787625 1.1993304920361312 1.5410153424685045 -0.2005992684157384 -0.5016083428098072 0.6983689542057456
Ni 6.113952431310582 6.038260579324249 0.3308133464829895 -0.7292895550440021 -0.7074241224294785 1.3731272109710866
Ni 8.253273510388967 0.2672473675839225 11.376640778293218 -1.164159515985995 -1.2698861061915483 -0.7494022666334771
Ni 0.44056790325800205 5.02997452974571 5.625977237304333 -0.3492689378417211 -0.3655391357566543 0.7521674880834401
Ni 7.718100391911859 6.594772601356871 2.3519805325839407 0.7573567455938633 -1.3549600531437567 0.8321452514596637
P 8.74228547888673 1.8114205752144128 3.419222845906152 0.40363414285616295 -1.1957617162723082 0.24926459483192553
P 2.148500281807492 3.6473708326222463 1.1966224443784006 -0.7512737726245771 0.5036626542356745 -0.05525197849476936
P 5.097099735360357 1.345365756171618 8.06363794755344 -0.6739984957811812 -1.0022106129526032 -0.12324043071960065
P 8.663759410918301 1.969999530728719 12.49026183624114 0.14422886004580968 0.5830503494363829 0.7239126070028049
P 6.525444021381951 8.110118175396575 1.1152301612151772 -1.9051509328479577 0.057346913350585116 -0.12154298841251972
P 2.1933174648533917 3.557709038633846 5.86824327666414 -1.9917626566009312 -0.7312932157375922 0.09912348306673896
P 7.282673390740088 3.7389434367405103 5.821971500835171 0.43309512842975734 0.8133975385385153 0.36758881919683145
P 2.8557834514553586 8.759775334285914 10.365291946927577 -1.6517928846729488 -0.3439683515644141 -0.7181759616293438
