# total energy = -340866.66767374874 ev
CRYSTAL
PRIMVEC
9.24404507887235 0.00000000000000 0.00000000000000

0.00000000000000 9.24404507887235 0.00000000000000

0.00000000000000 0.00000000000000 13.52959437532723

PRIMCOORD
 96 1
Ni 0.07579377195090449 3.403851412520002 2.712291480950105 -0.0861736077742903 -0.9518347316032124 0.8824221453373448
Ni 7.453066567231979 6.4154964931621405 4.488753769071084 -1.0716856770252898 2.317275886783951 -1.4852252519206228
Ni 5.205737596996305 2.6156302023153817 12.588082599647546 -0.7168610994726622 0.10528050380707031 -1.6294373997958842
Ni 1.8790739583798612 8.670997198982334 11.42713595753205 -1.422718648745969 -1.3982425179814757 1.9801782941974413
Ni 4.677449681928708 5.34786478547142 2.9892014643235223 -1.2916126992353627 0.4338618313924528 0.11372657769189447
Ni 7.683160085822813 4.251632003234877 4.020305329070542 -0.7188349353695814 -1.6144540390131743 2.0064606249327377
Ni -0.27835667638130984 7.468337729206671 6.056049207171634 1.0369004510253044 0.30107000953899116 0.5826790821398933
Ni 5.994208396409955 1.924526926557561 1.0433170967088616 0.5584623756843737 -1.404261470482046 0.6225687192459795
Ni 3.4437209776512647 1.459801063389469 13.507513781443436 -0.6039207651274889 -1.478929391609582 0.8332847643807456
Ni 1.676222639752355 3.740648939993323 5.054155599521363 -0.5794518334518471 -0.2988215798244466 0.14416561090804203
Ni 4.262835785506866 0.9046721399019475 9.193805244305018 -2.721367686002823 1.8154551708530218 -3.707568553790731
Ni 0.471675536032846 1.6309083322463382 4.419604616507232 1.6112974956620638 -0.4427161964592891 0.6872131946992422
Ni 3.208949972402323 1.5717834218406905 11.22140419455145 -0.7557595763100726 0.7080525000420966 -1.200101738408559
Ni 2.181492883320568 4.262271898775356 -0.22918760220250448 3.4882660525385347 1.697437421984941 2.015264339267297
Ni 9.522752728952122 4.117177371926224 0.6325912455210119 -0.4539544883772698 -0.4792181480400651 1.5090786614994527
Ni 5.534224728213423 4.870308188150257 13.71427255779897 -0.4110587174550082 -2.0822631738853494 1.150594889927683
Ni 4.443695521605442 8.967527667398903 1.5448092991759503 0.8360808390686439 0.136407564229178 0.287141315273041
Ni 3.807169086222066 8.693118198138169 4.946365415377359 -0.13081747173591018 0.8552468704741334 -0.12262516573310495
Ni 2.533543084679023 0.5134955946124504 3.061828226533186 0.3088321699829133 2.2702218707189417 1.6452738526075081
Ni 5.756368368294429 3.4213319011968437 2.6968807338992526 0.4381907977851099 0.39609335439442755 0.23966666673084527
Ni 1.0949201278779432 4.090203249261483 7.286687627279502 -1.8631321652140107 -1.3085436706627465 1.0451423793191226
Ni 2.4932113173088166 5.992988182499144 11.444304921899846 0.7765014368431143 3.095776099224649 0.37763591902018834
Ni 3.074809638616152 3.032850919364865 3.38473934993969 0.21129737155953288 0.5624367869510893 -1.1081776013037368
Ni 3.8391442371121745 6.451289434545922 0.5403837476607473 -3.4135482520096696 0.36223423975313745 1.3434949899269506
P 6.257330886995688 1.5394200210698696 5.421362336699253 -1.420301040443412 0.3721802952222558 -0.8692064179780193
P 7.463558558055996 5.011991662475984 2.1344554858677696 -0.4594435365162991 0.6545797249349372 -1.696189151400137
P 7.937852007570218 8.692970293421707 7.896236242380227 0.812870976611084 -0.5122377974991952 -1.9739153440068649
P 1.2846911231433493 6.443986639170616 7.487480297134754 -1.2449430630929654 0.22444805000887796 -0.09511898989303617
P 4.882316202318008 7.4986951722604775 3.0779960608514285 0.3103133825141301 1.0586779519117122 0.3462969996975907
P 2.755834629476491 1.3378998448905206 4.961626408902794 -0.4441418731622222 1.0665684104033823 0.5094149833384194
P 9.358855815022773 3.6492345811750853 9.439814234791632 -0.9440134357865805 -1.2175641568593807 0.0048377877082755386
P 6.5731259447314185 4.036865110887408 12.034086996049913 1.1047446643627878 0.9058762625952269 -1.4459130845845614
Ni 8.898530117169422 1.868905509123105 7.931426472044426 -0.873772697192463 0.09151147504743594 -0.06843993793995311
Ni 8.834949577180359 5.573345525717597 8.723692876244279 2.4589015048789586 0.9430230468488533 -2.871719885337551
Ni 2.6497592156389667 7.478339785657408 8.920345138443075 1.1414451051076149 -1.06345583291633 -0.41776544005122246
Ni 4.520513533717845 3.3763873554819814 5.370720686187173 1.4542113200376114 0.4765074339771213 -0.5612810760800915
Ni 6.87273468005935 4.234456568035737 8.124967188770654 0.6424767710238161 -0.5562967354916225 -0.47361031493498434
Ni 8.472980515774177 5.201707193472719 6.124359924874044 0.1882561734693532 -1.8076526440894674 1.306651595846356
Ni 8.010399270994784 5.158833313788323 13.197645080815438 -2.4058660744195337 2.726194675077821 -1.1793521645660334
Ni 2.6431312355325174 7.50880815724856 2.8754035754777307 0.681446210308478 -3.3419119186196062 1.9515326054362905
Ni 5.255655438802199 8.194291053780828 8.900348420777425 0.6021225355764855 -1.8143146294906753 -0.7157501257966704
Ni 6.956236136546875 7.626605019865691 10.559739503796417 -1.3745135497956522 -0.37685301810757676 1.218454529884134
Ni 2.9287167549309028 5.219585176075051 6.896994751177013 2.070930008260717 -0.37877646038253476 -0.5680831866035894
Ni 0.15047086329252157 1.4305806378434633 10.546643465558192 1.6372545818474578 -0.3392640041102093 0.4034765342323761
Ni 7.096394343484089 6.743983624379259 7.864563371754387 -1.2778526693367926 -0.18651322263631748 -0.4606105602412067
Ni 4.163730381432609 8.808040162829071 11.103358667129767 1.6819858633165614 -2.285574184805296 -1.364791694522198
Ni 5.187739441811846 6.775154543373605 12.392918628658148 0.8336190077917127 0.4215413621538869 -1.9848425324423298
Ni 6.0186588948500646 6.804005207128456 1.3673282614440507 1.4989053205108764 0.2728860909056074 0.3233190507451787
Ni 5.977513651539318 8.715719887622505 6.430629918869627 -0.30813848634999835 -0.2107067891633855 0.6072092060707737
Ni 0.2347210874071356 0.45409243845895886 2.341729155517487 -1.627939989314751 -0.3095307387118347 -0.38493913754982095
Ni 2.270402106003732 6.844577319662912 5.443713512570081 -1.0831085741502509 3.273691038668994 0.7111645633085172
Ni 7.4348557990176065 2.636688136321646 10.322363526728788 -0.3532307507029465 2.347706435359666 -0.955394938150645
Ni -0.08685704474225515 8.15831323150147 9.871759790769374 0.7995117816953585 -0.7906458466642964 0.1385060986294195
Ni 2.024131509049877 4.778163549794488 2.120831612672672 1.2593684944896761 0.37333549187262155 1.0953215712766748
Ni 6.385176026287449 1.7528927471482962 7.635724270040046 -0.36604075798342117 -0.1720209425574134 -0.13111109171692906
Ni 4.702390114742097 1.4419508129214724 3.5439828117273584 1.7632185821458086 -1.1666262323589327 0.6362991814581945
P 3.437573687873317 8.389349642659749 13.022194035316978 0.045494384887373264 -0.6368697092496839 1.2991061793989302
P 8.974608605699515 2.923780435018987 5.9909313825358455 -0.18764065137254135 0.3499939889332037 -0.3542856743300221
P 1.6747990568564093 2.494773560876445 12.37884826810023 -1.4882673811810563 -2.257971849706995 0.15505808945082974
P 3.8875460555743335 3.160085951701221 1.1867116437231588 0.8407507337404876 0.9678164517434493 0.9515524244761031
P 7.12991324985227 7.625800787969929 12.78236838638295 -0.932922982300374 1.0678184807603996 -0.13199786519725654
P 6.253392923919891 5.060458189251597 5.822352359925997 -0.12086293162635958 -0.5112836611160421 1.0171669771521192
P 2.96871573668907 5.313883676864296 4.421227870770401 0.9614450009994666 -1.8488499442633837 -1.7642297970191423
P 5.596936327993271 1.3602611892106053 10.56593671141617 1.323312858552121 0.49286247829637697 2.310061371313383
Ni 8.717152714563229 6.97540828541825 2.2106680130471568 -1.6118657094607078 -0.06791286179188949 2.873061229856794
Ni 3.0244573267056514 3.92117589047986 11.336743990066356 1.2655468553862461 -1.4228757431491237 -2.157836894656606
Ni 0.6388910620378113 4.356940161355755 11.553732226374187 -1.0170404788765839 -0.8548488637047664 -0.9148982635881792
Ni 0.3292044690919579 0.40780380863324917 12.956615857251203 0.3561227275387609 1.8400562572311536 0.6590547299871553
Ni 5.598905309531171 9.379192713536286 12.883461260084665 -0.9470722772175624 -0.5273869944358078 0.6387862095461063
Ni 1.8489938366694207 5.0495132402334155 9.371503517089222 1.1310568198947553 -0.3750676440723798 -0.15881755649326196
Ni 6.569132517386947 8.87451408883392 4.037190501263624 -1.3536999554844105 -0.7883233691787069 -0.5001937218504676
Ni 7.2170383718931115 8.966325941577649 1.2030745273862353 0.16901558007218634 0.9727102895006409 0.023529707690823992
Ni 4.8695316883888315 5.3376223838564325 8.22470765872122 0.5834599261699758 1.18461958361256 0.7313724057149598
Ni 5.0156060839845225 6.772020812193568 5.096665263841471 0.2922369846283935 -1.3046165676941983 1.1087923520696001
Ni 1.313846840375903 0.11962256146095711 6.9327128157980855 0.7800847833189986 0.14468343108472503 0.42792361153114694
Ni 3.016239370897237 2.283759750709198 6.836409281696304 -0.38152676943416225 -0.583296404008918 0.411730289600736
Ni 5.056991672459521 3.6883646227240385 10.16298417748287 0.5013088092915173 -0.3752100831875151 -0.5349128704992078
Ni 7.576372880537315 1.7420032623987884 3.5407621865264 -1.362464331940602 0.41290965462081786 -0.4459799548122255
Ni 7.461266034950837 0.8496839395348439 11.877657421492932 -0.26094845892775703 -1.655759839740497 0.18531611700442277
Ni 2.0670608530029457 8.787869657121579 1.2925670492949461 -1.7783904047902406 -0.7282585426763264 -5.867375427689515
Ni 1.6883415824574526 2.256868824447467 1.4186595176966337 0.14969399692543894 -0.33347208001878054 -0.45495130507290027
Ni 8.983214811388644 7.566740585877734 13.723067342001587 1.109916181261398 0.2796789454577248 -3.0209785944977843
Ni 7.35954456620416 0.3958521831386491 9.566843124929418 -0.8777746192630044 1.4409451990563247 0.19043826872233655
Ni 1.7554995677759375 2.2859228571874532 8.868648742421728 1.6034715718597419 -0.8570584697615755 0.8404221467564753
Ni 0.573411795251169 5.855575456861253 3.975211029830262 0.45796489508824356 -0.5180870571911207 0.37206639535221087
Ni 7.605713478665447 5.484824552915145 10.368039276385659 -1.5964174932264377 -1.7220027700291312 3.1269108729562407
Ni 8.420123067728603 2.7298033993791955 12.633515230926731 0.025862469589058683 0.06404720818889614 0.12763881689761244
Ni 8.091414079436793 0.42504580095479605 5.939843244660947 1.072387588188321 1.4199241167199674 -0.3228526526317214
P 3.500553364951753 3.6506674081158104 8.395140112309232 0.3084413623023978 0.05251143963515472 1.0859696977481297
P 1.9130550669869844 0.061623575709375863 9.526241431451668 -0.6096959770483693 3.2132498026638014 -1.9005707696764431
P 8.233337898926772 1.993949702846869 1.1462976043544204 0.1850790612929522 -0.636320264504117 0.7750014552588201
P 8.655310054992594 8.412367314159132 4.006125888784234 0.7490510539416455 0.04019636971322755 0.12877370183300402
P 1.2420021243545314 6.4432286274987485 1.119945605903298 1.9242169483404732 -0.20701468502377898 0.3827716975848569
P 4.675083206465318 6.43724773052682 10.223177699464957 -0.27313754479478125 0.17005867662472002 -0.04738697392439581
P 3.961516901894845 8.31633093295146 7.14252952216647 -0.42379493407475405 -0.1767556290289214 -0.38408321730742884
P 0.28327728141710196 6.413814077012386 11.507609989354496 -0.3956033021318865 1.9988136499104416 -0.10845915864536805
