# total energy = -340859.0506570545 ev
CRYSTAL
PRIMVEC
9.37336182128406 0.00000000000000 0.00000000000000

0.00000000000000 9.37336182128406 0.00000000000000

0.00000000000000 0.00000000000000 13.71886249938173

PRIMCOORD
 96 1
Ni 9.014268434445741 2.4483127627497354 4.77161206010309 2.4394058580481923 -1.68029973386339 1.592398858985348
Ni 8.666038665384928 3.4503813932365412 6.988128143677686 0.026442253351928655 -0.4695556852496365 0.5169064066194582
Ni 6.36566567397612 3.426798014620703 7.588685066548881 -1.476152085974761 -0.03006493770618048 1.632896819099394
Ni 8.661061410200107 9.046212851903125 5.820460327973863 0.26161591730842687 -0.6587523682553881 -0.07661707443410676
Ni 6.3595167485500514 5.186899797747198 6.019095927313106 -0.5007627069800601 1.268245485264332 0.3753147270861794
Ni 5.373082885762457 2.7724811117362815 3.100929337780058 2.0683959289849536 -0.0662447300608472 2.252498999517882
Ni 1.836325962341119 6.720616143540732 8.602111399686247 -1.3827037989159283 -1.026352243195813 -0.8174390555977405
Ni 5.950463233925575 9.056467309854526 2.2519098982222143 0.49473526983905775 0.729617370697066 -0.43718703911094386
Ni 4.441070762340347 7.029871473696674 11.333509066083412 -1.0224889035856648 -0.07994176793196554 0.9527790977943528
Ni 6.277687298901296 5.621786297850707 10.293632980252019 -0.5351201014140075 -0.33444267146216594 -0.5761353674841045
Ni 6.115762471560832 5.465269900343844 3.8236249159437086 -1.365495919678074 0.6115194034103533 -1.7755107692496002
Ni 7.3877651789073004 1.2972264243000533 3.867896241675213 -3.4795626112272653 -1.5337951904095262 1.0679097549226255
Ni 3.701793706922556 5.989484539640095 3.6276372913496857 0.4117966240622973 0.6579355287810476 -1.392612316278892
Ni 3.039312605797119 0.21569043137084815 0.11653057284974669 -0.06615731255336348 3.1683853380509435 0.9013408366187186
Ni 8.029034361985184 3.8633154797000304 9.432445042236669 0.6124959083910096 -0.8092714321852836 1.292207395396568
Ni 6.149965869243342 8.510300256918253 6.178427145407544 2.7215587189677066 0.016010259385327266 0.3111335644225803
Ni 8.319336754318702 6.0679114589082666 4.637455817480202 -0.6700122574399235 0.7818426465503696 -0.6604333555022368
Ni 7.925946127479227 9.293641486768896 0.847241312799726 0.6842520551883893 0.2261832875324298 0.27993142778816305
Ni 2.6963694128648164 7.865909744317683 1.8093259933018015 0.49717036164311146 -0.40642867488216455 1.0272063636659923
Ni 1.032447696501882 1.4432540298072647 13.517881079591517 -2.275380789212062 -0.7986383779514697 -0.7064684433844285
Ni 2.572706648922545 0.7371418035701409 8.1575375300281 0.08091775869198968 -1.332700470414608 -0.8711100627586352
Ni 3.870354874509448 2.1970504228546 6.747211183344673 0.46096305848461905 -0.16333035676195098 1.4797927680511418
Ni 6.374776581772064 3.6037577144968593 13.569998846594611 2.5492097036469126 -0.9970344680683022 -3.057711174032127
Ni 3.293480687890549 5.354832950084779 9.724725213937411 -0.5108481162405202 0.31712526322964096 1.5889875193109537
P 0.4054700783586432 4.404524024175342 5.05957111195411 -0.04191258107338588 -0.15405664476950887 -1.3250547809438922
P 7.550833556403222 8.211280637989852 4.0002968536086145 0.0462978546252751 0.6858327694119479 0.5745531105986492
P 5.609919621647348 1.4568454046057409 8.04806134936686 0.5937561658896613 -1.901017113185242 -0.22159309705858612
P 0.9501495787566278 8.821645846784582 0.6914166694032958 -1.5225707824486165 1.30412831520387 1.3295968917886198
P 2.650149365188068 2.550154340119005 0.20291828840505277 3.4842376481054314 0.7831814199664512 3.012861364707289
P 4.815058529984755 0.09969695215968949 11.520209563677207 -0.38570764028472926 -0.10456342313538768 -0.16966349806883038
P 4.249376137510257 6.261536996295934 5.931624651118694 0.6426009553065062 0.25565635729088226 -2.180070509243826
P 8.017102072248317 7.039310449160167 6.427547672101677 -1.4078391605309755 1.613804064134001 1.438210059513349
Ni 8.04864343514271 0.7212352083749591 9.226606951590426 1.1721972986888072 0.3113053141137542 -0.4805288964316885
Ni 0.3786875713161016 6.871292936565215 1.5149330658220408 -0.12200552987123503 0.1280288532471795 -0.847963706549159
Ni 4.370236266235462 6.4856165865941175 7.930064782711263 1.7602962662926909 1.425275867950184 0.9504692187142534
Ni 4.571669814110806 8.920816016003807 7.4982911761047 -1.6752192340166894 1.0439005364922216 0.7784678165408657
Ni 7.566346470397344 5.46196110358256 7.918664899932017 -0.3596204562793742 2.23855050775759 1.844847765082526
Ni 7.889436882761942 4.001825648939395 3.6999359065880335 -1.5312881077169562 -0.3718306251923209 -1.284991080153787
Ni 7.477599479644261 1.3365476775963336 6.803499159070417 -0.5769943730502902 0.3868065297758629 0.07824201163203943
Ni 2.0105955073433703 7.806538869853169 12.998128160573936 0.21399651565825079 -2.1154512306015434 -2.000526261726174
Ni 1.8052438941812938 0.948387386713791 2.5662230944755753 0.21509849047317794 1.1082411075518204 -1.0080801843595024
Ni 8.3600077717329 5.760633908119551 11.640413557067314 -1.0921753123382092 1.13958388352916 -0.682451768754857
Ni 4.7493325161317115 3.5198473784996485 1.2485299344014036 -2.716287186156122 1.017138952127661 -1.690855140781733
Ni 4.948788284639828 1.1380667387289352 4.915921528368535 1.5257957171438175 -0.6145944427912512 -0.02190554182383969
Ni 5.439989943218679 7.923218479157603 4.20395376293375 -1.2133429196891814 -1.3309297516674303 -1.034914273833211
Ni 4.436056013707806 3.9513126014987145 5.0975997786402445 0.0826069734689545 -0.4287206535111455 -0.6234711764555908
Ni 5.082536786018762 1.8473396626088494 13.048655268057512 -2.622570475927251 -1.39447199519545 -2.518272133527792
Ni 2.667593191739767 4.948863271535268 1.185050715402977 -1.0815638553709501 0.6003942400314692 -0.13745863120151167
Ni 8.82315495805531 8.295481548206894 12.495866872253897 0.8427469382349098 -0.8808779407786764 0.025131247849988974
Ni 8.473931612629917 2.6372797392582012 0.8077897697726188 -0.7626470474585253 0.3414435282600313 0.7973186306987817
Ni 2.44550075417074 0.18637617927101804 11.187032476539754 1.211824683272442 0.8852644998821464 0.9663126135044132
Ni 1.5552282114228466 2.3212193483410903 9.395871121322068 -0.3417849707598501 0.5678242765152479 0.08370920539419777
Ni 2.403245638590375 5.29193769153459 5.3614271102025235 -1.3831591412857922 -0.005551011725216246 0.7200690648869986
Ni 5.889667608447703 8.832687667138103 9.420249361029569 0.59282182700085 -0.1120594744021167 0.7514105553127575
Ni 1.0204310465076434 5.296549385604143 12.699894029375269 1.548297497790759 2.2696819390550718 1.6688560108028225
Ni 5.363119002030884 5.611569333347025 13.029873862758405 -0.02418662454853254 0.9942083114734168 0.47132074756985926
P 4.592619278024319 3.8065878932997705 9.472586464701823 0.6847678184825433 -0.573935017398676 -0.5425256498494592
P 8.140999170238837 7.0478683286022425 9.839223641920738 -0.8578295435996453 0.5327981381490502 0.16706334144182197
P 6.011858754566966 1.5389748018362552 1.0533606043038681 1.2365741223029798 -0.33118508375681677 2.3034284393778974
P 7.137515162100604 7.135340542132847 13.451701395021063 0.18956486497844774 -0.41110294042938234 1.1874426548836516
P 3.0131515526505352 2.0204094172840628 4.7426521210842125 -0.3358740045920538 0.849727483317801 -1.4763636877649349
P 0.9557735959146179 4.293524672200479 8.326087449580676 0.5874181394867755 0.18051406763008912 1.3049266427354493
P 2.00505585044275 8.479011974795968 3.9394815440706896 -0.007913855530437984 -1.2719558442363836 -1.1791547038432466
P 6.7736506253405775 3.7242241620210064 11.344758975071777 0.694946815898074 -0.13571413770657917 0.6128805454239381
Ni 3.4350278263952285 8.617147209558134 5.427840191485035 1.60314427042731 -0.6933139082803415 0.6207560915172728
Ni 0.05200809866851292 9.2513769978266 3.4280418597488116 -1.5544025822472327 -3.096441757833106 1.3269424848849083
Ni 6.695823601235926 1.4079914422266673 11.034465076413994 -2.163203301174842 0.5401334954681989 -1.262163283625994
Ni 0.18435153309414162 5.669890391275382 6.816806521002414 2.1716177504907828 0.10884071035450288 -0.28231252642582993
Ni 3.5405718817268412 7.95875289423417 9.45233719092448 -0.1781306549995771 2.0571432388892696 0.13844490637418094
Ni 1.4332432792660423 7.727465188611829 6.422073628734568 -0.23901874873420123 -0.2517405671762439 -0.10405717292293047
Ni 8.198457878869634 1.2592643084836204 12.52126118439461 1.1851428031058815 0.18566758680657056 0.2540476180428657
Ni 8.885600295232859 3.718290823919327 12.565572815582414 -1.0302009275179418 -1.7479652555311638 -0.9627194968365161
Ni 4.082539668518482 0.9609101982522488 2.6381645846243913 -0.33694744016189065 -0.061142632947591466 -0.2957362560309036
Ni 7.323866970630603 7.065049701019902 2.2066656175223773 0.3255443405312716 0.36526942703503545 -0.43131026861519267
Ni 6.860232369487835 4.968884772617713 1.4856703672128257 0.5097854793039608 0.15380621932159963 0.6728651535076864
Ni 6.54089130189523 8.174911993701517 11.740780704604997 0.8964804232026239 0.04460298342135544 -1.5331385306621337
Ni 0.9359189406745271 5.934228571062843 3.5540770215955617 1.6818477950768003 0.20012078611742307 -0.49953423388959783
Ni 4.21945636622975 3.8089499805061267 11.709186850883794 1.8753096811168093 0.7632988221099113 -0.5956623817734387
Ni 1.0575026929407279 4.373488822825167 10.59378771331014 -1.3882221576309963 1.311951925013347 -2.4224381198456024
Ni 4.342163047255163 1.4897646517038423 9.740899887283792 -0.6060630082814723 0.5615240453288329 0.851050830114915
Ni 1.546557851637612 0.5881868971321956 5.512979375231267 -0.7679676883404903 1.4457328502529552 0.8190130849530798
Ni 4.851464667720811 8.434600985971707 13.530804133684384 1.5596345200701331 -1.245782014054493 0.53141411331733
Ni 0.6642376691511159 3.6156431374240787 2.671583431913361 -0.9561181894699147 -0.19629189928963614 -0.9017306158579695
Ni 1.6059380994640569 3.0571594869118073 6.403128189601684 0.030825727131604974 -0.5994218488158709 0.5538942966977171
Ni 3.44545100486137 4.557731624920921 7.351032848176081 -0.578865364820758 -1.5471153045572 0.8673313124424933
Ni 1.0461702983673777 8.835724636403416 9.559646250307509 -1.7362613368306745 0.05786319086537132 -0.7201464550921532
Ni 2.928125786583656 3.499572796645094 2.809294053380098 1.3364365404182725 -1.5259738945928945 2.292388379513652
Ni 2.137885762352545 3.241664743141601 12.099666111507815 -1.270130875212503 -1.2438891679071544 -0.6164682627751963
P 4.975221165282382 7.119893241672235 2.016412615757118 -0.48330825894903867 -0.5228561964449898 0.36639017090304
P 1.9407170941553442 7.290563415693373 10.86383052116819 0.05887260596649216 -0.5600826848966161 -0.8924381348124503
P 3.055181707544581 5.94725754414552 13.107193787982643 2.389740115391949 -0.5664191686376051 -0.8775527330601854
P 0.4904564763054167 1.184389893386913 7.660119457817284 -1.0721628737720246 -0.489195570967751 -0.8052746523210648
P 6.5248909730807485 3.0476080311051543 5.49101571355693 0.3308081600333722 -0.7423605292953472 -2.11218001604944
P 9.109811112598063 4.870483219076747 0.9108995630110154 -0.22052326103317504 -1.0337935299652066 0.11285317394800563
P 0.5974224706418083 1.5182034317994122 11.16454765594211 -0.6113381406374826 -0.02252389213412895 0.662111514535608
P 8.852812275201776 1.5734687737385942 2.5262185230945993 1.9500465078090672 2.435069949677 -1.295992573470613
