# total energy = -381163.2131662531 ev
CRYSTAL
PRIMVEC
9.34393574373808 0.00000000000000 0.00000000000000
0.00000000000000 9.34393574373808 0.00000000000000
0.00000000000000 0.00000000000000 13.67579446046874
PRIMCOORD
 96 1
Ni 3.075114131583535 3.6336642817243807 8.446899281323388 -0.18002607225007705 -0.14921294352396236 -0.8058716624751152
Ni 4.488132820140996 6.609356393421282 11.929694001686066 2.4436551202428496 0.1317602952651537 0.2515078823401475
Ni 0.2947184673461042 9.3763386558378 7.663764551590425 -1.7522726246572662 0.5915779272914199 -1.192615971554475
Ni 5.29940234185837 9.276571938168578 6.986738978726351 -1.1844102958152312 -0.8727686814079807 0.21552992158364168
Ni 1.5080527988332808 5.413143293956937 9.329228716729599 -0.5199148544284787 1.725774064146105 -2.462719593073468
Ni 0.9287816538806055 2.4784981668571584 4.13351892079947 0.4530330050042649 -0.47268728890008266 -1.1031868329573649
Ni 0.5400380159844803 4.380363524221902 6.983385162463309 1.601734791674293 -0.12831244592586935 1.061832438380294
Ni 3.815329329305841 3.3062386528885845 13.026000641136893 -0.07081383748876836 1.5489682986055389 -0.5849419100321409
Ni 1.6465281458717853 1.8519866566082743 8.583686540842827 -0.7389111372941661 -0.37139688008901195 0.04241600307236566
Ni 7.3454165854399305 0.4886119016688689 11.793574710572349 0.30892550102766797 -0.18942139742204797 -0.018422725481561823
Ni 7.614429914361072 4.639548308261072 7.76673695863774 -0.1029935075451065 -0.058991648042859696 0.40134251860850884
Ni 7.840998835242155 1.1689912907959852 5.909304077064537 0.5787167550580357 -1.8691421188535162 -0.8905409177897372
Ni 3.1609252471359883 5.738454155315758 7.423540940440616 0.2978183353709129 0.19538584253559899 0.47128783744939484
Ni 1.7583033889939579 3.0095749721099154 0.1531678571175157 -0.026120608346451787 0.3782902647747356 0.04126414885610958
Ni 2.611309290873636 3.9318278636651316 5.556958661778706 -1.2843480472531494 -0.02009805630145571 -0.48928607379902833
Ni 8.669158548306461 2.265027761714513 7.898275495705518 0.8827504752110411 0.5846233503504576 -0.33456762707580445
Ni 1.0858352797851072 1.8153275816219643 6.235661142774302 0.2826596253526035 0.5341844769736154 0.9006790346650037
Ni 0.33070771069543453 7.09581812621929 7.872014182750268 0.2552573220802507 -1.692294444331421 -0.5775607870767214
Ni 8.178141215084489 4.017937096218744 3.22919590363273 -3.578511259279037 -0.4176751943302613 0.08588281600674887
Ni 3.1233066080521965 2.3413363978550126 2.327531717470079 -3.273752488034549 1.6128404146691513 -0.7185037772824078
Ni 7.426103815034957 3.157878864030391 11.81608627062239 0.8020695151202057 -0.06759687321336745 -0.7872028824210184
Ni 4.062263367828621 4.513854727647273 1.5617688243640475 -1.1701373308359846 -0.0012420999372172157 0.40438027699356816
Ni 0.43416269463837626 6.6664457991432915 10.968403620444665 -0.28140235590673474 -0.8733399805304185 0.7231790712708901
Ni 0.30962618063532743 1.4071495100971374 2.1531109130167896 0.2516166400038699 -1.5556166571599919 -0.6711175746889603
P 2.4163873528968716 4.359057474795297 3.199934788353314 0.3288659487053368 -0.34688706787310586 0.29850276303244716
Ni 5.351964095625273 0.18861676340224476 13.008178834161336 -0.49419790927834895 -0.7779080873826538 -1.0136473940346349
P 0.2343581591519994 7.660721894947343 12.828400308227838 -0.8347747186627108 -0.0519869345902524 1.3296210601583358
Ni 4.9700669009838965 1.963678054323871 0.7469209670171338 0.7397467458215841 0.287841169553543 0.5738046624683989
P 6.312729977267757 2.7858195304272733 4.786669048333197 0.3702799928757494 -0.3359866189105181 0.7688927712579209
P 6.681780192390424 3.3844384687551887 0.8772353611489018 -0.766611174312596 0.2084161933569959 1.013195394098881
P 4.762940798272172 6.744906467385911 2.0157097187980875 1.1378211352017824 -0.11611410408746456 0.7202153606568757
Ni 4.74088945634267 1.2185998230201533 3.0181644682058186 3.1151971840637382 -0.8691953622344256 1.3788592283588574
Ni 7.856752455522168 5.810207191032292 1.4884525376226843 0.359380058133794 -0.31901348139128927 -1.4412933264243628
Ni 7.18714440629319 7.476038412729144 8.31703765238713 -0.008706012414430168 -1.2340582978596617 -1.158858929708688
Ni -0.10527629249689952 3.88563836079801 9.538091350973076 -0.1828530001759109 -0.3796542350017978 0.8468241936280771
Ni 0.5141195375805633 4.757751699220743 4.321001907981681 2.0880250160697913 1.7944091488159999 1.9658459367351693
Ni 4.532682679501742 3.4996141089218344 3.9825096170934735 -0.9174505976963877 0.06433594307390855 -0.026626087227960598
Ni 3.0602175976818553 1.7751190510906008 10.37726555561459 2.420638090522386 -1.6883647702597113 0.10887490602654798
Ni 7.1270645144033 0.4660472395279942 8.383741331396529 0.6700958182926653 -0.6891201819139681 0.5837296348915947
Ni 6.380803131251232 7.271511517621278 4.807694681455587 0.530532224933009 -1.565807995870697 2.120523502918129
Ni 6.801613910700184 7.783397040924403 0.6044145191535782 -0.04255612819465575 0.1200664038669932 -0.7882441792013392
Ni 4.61924840371338 8.935330449560304 1.502946613572799 -0.19560644318683731 -1.2215570800688573 -0.9216332683191677
Ni 6.364593019313193 2.2207294385734953 7.113559814250784 -0.945303615352914 2.319201643051754 -0.9547742738475103
Ni 2.090983329975187 7.47775258548581 3.699198783119857 -0.8993477174480898 0.7812973155698608 0.0364808685348533
Ni 5.197427695149309 4.202909379281817 8.657465840551616 1.5069950394975467 0.8273223761497236 1.4754015809619816
Ni 6.669277910654306 4.783454974414448 5.704327211608045 -1.278140890001173 0.6138519081982718 -1.7782829326780987
Ni 2.184964714590663 9.159337427462674 5.6145949258747185 -1.417659746165823 -2.400863221888304 -2.945535742877437
Ni 0.5475449747199235 3.650209775288723 2.0184095408898366 2.0124458959818954 0.5781557403482429 -0.841339516364422
Ni 5.723483092163789 5.351405126248098 0.1312860692324216 -0.00014012512229008125 -0.1629287504481581 0.637478032257644
Ni 8.246456589131403 6.42097439715745 3.56483838231298 0.27194378159699617 1.025314545959918 1.4461529685095094
Ni 0.7508831282856668 9.175864288714443 11.247814711396865 1.1590808159115071 0.9043377144635135 2.583886429093492
Ni 1.0383601473504855 2.2368277566360986 11.123516690994744 -3.099557163533636 -0.8978089122060602 0.9820238535920829
Ni 6.374374983413733 7.703594846176567 10.515785620203268 -0.14863110287856338 0.25866609065148355 0.42553659935620913
Ni 0.8741899096589335 5.671750476306361 0.06407559132105281 -0.2589630530666121 0.8576876187051422 -0.3286445767231502
Ni 7.127847071531344 5.214159511839377 9.979270042910612 -0.47659587992586944 0.520793143268374 0.542973021799523
Ni 5.20379994604909 2.4349078715938943 11.549451356401123 0.3584421197005569 -0.6012864128284354 -1.1517166622369521
P 8.422122032064534 1.0933441017518077 10.037696317059694 0.6064697568015878 2.3435497328788153 -0.08487622911910543
Ni 6.005287503665923 4.980566209118476 2.94790294911071 0.4483939635703568 1.408186773678381 -0.39897890347233866
P 3.3076640248003772 1.9002443461709393 7.044007254649056 -0.14814259327791907 -0.08099052091145406 0.5275003800852206
Ni 2.4836034205020123 8.873815869602335 7.617037506505587 1.2650128372596472 0.18822172068699197 4.093702225869285
P 1.6874726527497605 7.775683263519405 9.369357128316901 0.9897569605702826 -0.3887034896882596 0.8988476378832198
P 5.132251865770853 0.35346335404017687 10.759895000140064 -0.4999569232493131 -0.7663093268014609 0.017183453757822018
P 3.766205237208557 7.649514558935009 6.395464898014499 1.1118329386681367 -1.039278721449494 -0.9195974688360613
Ni 5.05231924483501 1.5081180119272846 8.828368864391225 -1.9417930095510232 0.29991712688147054 0.8520409619423261
Ni 5.8555768721462265 0.16329358738501773 4.867511857738204 0.5867236845229121 1.7589875747835966 -0.8082908134395692
Ni 7.404313325481469 6.149212802131871 12.31383732160805 1.0743596243130271 0.3236484090601394 0.02677341143910228
Ni 4.259337337907504 8.046680933729514 3.819447070384354 0.2892694173596373 0.10022340099913707 0.1553627651754421
Ni 5.5841320264343794 6.260382495095439 7.168673263224484 -0.7419648365188254 0.3707278790464454 0.0029832509980400232
Ni 1.7320597767356516 6.5273090050084654 5.798028179919306 -0.3085758309977331 -0.15377176653923838 -0.2112760314032942
Ni 6.496752012389635 8.342459579660991 2.8589336565772254 0.9666491709082254 0.2687116478129437 -0.8925993429806627
Ni 8.64337142770618 6.064985433148077 6.072898576297599 -1.2615716727885822 1.5097252939445163 -1.0783016396799106
Ni 3.3696257802600846 1.487445461128143 4.883069838736206 1.2701056784015223 2.3767298191752095 0.22428349940655568
Ni 4.125706392137839 5.757952870422835 4.969271301237052 0.2680979254883447 0.8820940725739647 0.026844116776037638
Ni 4.667571306370048 3.8345858243494764 6.565876960417824 -0.19888382838652846 -0.6148214712003928 -1.1204124528070316
Ni 2.6517041445307243 5.33909848379399 12.199370640934786 -0.3936279235730705 0.07441518168678152 0.7060483251278744
Ni 7.368585866123781 1.8197620720142091 3.2142518573339904 0.02156718464781447 -1.3874276867541588 -0.4248740260715457
Ni 8.560234049007875 3.916717058168869 0.03159481242911623 0.555873789021591 -0.172293993713142 0.4392894301659273
Ni 4.376851333301993 8.380385651902229 9.042045156587797 0.963080736830677 -0.30533161302882256 0.12398759329827035
Ni 1.1382013942699991 5.98699057271977 2.3624514660777503 0.12486973879290753 -0.8891077848876365 -0.4018066027291209
Ni 3.0802007529158155 8.305921614706403 11.051619254855774 -0.24001685098141246 0.6264603409909018 0.3243966000800736
Ni 2.322834511470562 3.869325771140823 10.543314862029074 1.2210693417991616 0.39843897180846866 1.067703038228458
Ni 9.386679589315515 7.99125911998274 2.056819121642329 -0.4970934856585891 0.5882138959151935 -1.1000362031435247
Ni 6.9960327762374925 2.7758326108884357 9.39402258370032 -0.2778177238792699 0.09832952641053387 1.041730011203464
Ni 3.492021441548558 6.906774682859136 0.3604066853203031 -1.033180578971556 0.1926692149353843 0.11743642244331387
Ni 2.432494987115761 0.39268250877394273 1.111376453859432 -0.8094128428591544 -0.3865134240154763 1.9767024198336989
Ni 0.0021725276459485473 -0.2766665513102787 4.256071093513552 0.06968846563507353 0.5063913660207473 -0.5045661398865504
Ni 3.5419280907738857 6.216494082831015 9.933946942578107 0.46459037082456117 -0.5418756749702862 -1.0015020169213524
Ni 8.838423791870952 8.437065146747646 9.61398448654321 -1.6862209844438314 -1.515705422787351 -0.3308773227084108
P 0.41439008453648435 4.425509617584967 11.824158720044407 0.02818057619927405 0.3263879194784895 -0.71191018322529
Ni 8.37663124091888 3.259061637455122 5.526729597861152 0.7033031582825694 0.673620286506156 -0.11614752842856126
P 2.198342715017687 0.3956711317105649 3.4470029795266153 -1.009564482214513 -0.2374838001469136 -1.5270262471168088
Ni 2.7859779050841387 0.7725059270260038 12.685149499477014 0.42202010156251835 0.904800770142861 -1.6000507191036508
P 0.32491492471665745 1.6427271541070039 13.17268724832608 -0.6202660392547318 -1.4056359822320694 0.4590810109705577
P 8.149549931442053 8.452585863120502 5.973143969631548 -0.2198115796781311 -2.620554473938487 0.5046399305472793
P 5.763365557225135 4.644066644059893 11.686607535709497 -0.3446805471400903 0.3029821389600395 -0.5488572484944418
Ni 7.6971480660264975 1.4191207709249412 0.5788593708448242 -0.3153522304896182 -0.08439234750415144 -0.25553834365577927
