# total energy = -340858.5594477654 ev
CRYSTAL
PRIMVEC
9.41129016538935 0.00000000000000 0.00000000000000
0.00000000000000 9.41129016538935 0.00000000000000
0.00000000000000 0.00000000000000 13.77437446483429
PRIMCOORD
 96 1
Ni 9.148498721596562 3.7190218941693174 3.5645468594585465 0.2671756707843915 -0.8711892527360029 -1.955883169095502
Ni 8.212084760253854 9.129422036407348 5.422007086413591 -0.2815946744231989 0.2370138024890305 -1.2800378499135696
Ni 6.549740342381848 1.6742026434952963 13.726439190402347 0.12759845057798025 1.9505136772534735 -1.0045006945383603
Ni 8.195257373416993 5.547682632053065 2.4790702963859834 -0.4197565023393222 -0.5961645182208378 0.05281534402881872
Ni 7.642889930335895 2.460939445859579 1.9442671441626207 0.5178407455082694 0.46362209337402094 0.10580269485912747
Ni 5.6625380173757955 9.000722643233933 13.252381210627817 -1.7070155525916795 0.16556413118847615 -1.4386672016554254
Ni 3.550079824198132 6.185184606077251 12.032838936722793 -2.5118857703854736 0.8446091882546293 -1.3271384029457982
Ni 3.7763837077994418 5.629956130782278 2.609651947594841 0.3081127753183855 -2.0493085733361998 0.4138979866760162
Ni 2.9602272123411857 0.19743475098270352 7.1962837428792845 -0.24101752433178492 -0.11219651420061322 0.974524202780928
Ni 9.167104842276917 6.611732510779164 4.500900588544122 1.7651561654881534 0.437137416819931 0.48164809763779626
Ni 0.778814378293103 4.3340873524110215 5.409059033387778 1.2550613824738903 0.7006559504677095 1.5178787762895858
Ni 9.451570499173416 9.04727088445044 12.172510953113823 -1.2606553316219 0.7839841183734045 -0.6735228416963432
Ni 3.148151854599814 8.835178049016722 12.878944039782983 -0.931795296453834 -0.047934876008065834 0.5002608276429771
Ni 8.0335055291412 5.81898189399164 8.221386879465014 1.236460222432935 0.069059573801823 -0.14799218374298384
Ni 7.685061921619996 8.428553845619975 13.62731948225592 -0.09148550690550696 -0.5008830346080083 -0.46497757896065084
Ni 3.6090980248994464 5.253241007568719 9.133553592795145 0.7040369511248004 -0.2693878479443619 0.24616821529478894
Ni 3.859447754903541 1.2316179003314098 2.685410951263386 -1.2813532262908836 -0.29734293839639114 0.00568522331023537
Ni 4.922490625580677 1.2692630610402695 8.399268733975534 0.6048617888845196 -2.272458216248628 -1.9670373859401094
Ni 1.7617088195630408 6.179641356162871 10.094729599723125 -2.325124950514725 -0.3156576775451789 0.20833288961457022
Ni 8.889782354624923 0.8010758440782872 1.0654116924147408 -0.2087411807965824 0.06786992436909602 -1.1118105700706336
Ni 8.154525309530007 7.775400896031081 9.78871773509491 0.12646819362827896 -0.26860494703175025 -0.21620226506031798
Ni 2.0734107502323997 2.8676012944170366 1.5579365057750008 -0.173933586199094 -0.9547516481396912 0.5557712020054557
Ni 6.101235897696493 4.955919528290144 8.932461614449576 -1.3219288337204007 -1.4143653916852674 -0.7572826978228184
Ni 4.784615224484479 5.9600947789088 0.0032356015629264948 -0.10627937738522987 1.174490465598358 2.6500421989849583
P 4.435832810516892 4.2128981687990255 0.8727522300679561 2.180991735506515 -2.5411847764599074 3.1448301764388225
P 4.760390563568326 8.006353956979934 11.555956628766083 0.98199017214067 -1.1309830292340264 -0.20635442573196075
P 1.0655839190249838 7.404652530789876 2.763442781509728 -0.24289237275699457 -0.12056082700490849 0.11129714231479541
P 5.185677355386493 2.463612252269908 11.987163122105716 0.3579628660712932 -0.1819988797057317 0.25983362859702347
P 7.9111399342570525 2.363880810261961 9.701112740480305 1.842533772237369 -0.35401493716713867 0.4754242282152715
P 3.651712346821876 7.128468809249326 7.921215661520778 -0.1164966842378639 0.2540995543267237 -1.0465114917525074
P 2.074511871183134 4.298032699742111 3.289761655638331 0.5847285084697542 -0.8467069513239225 2.948113273796626
P 5.049251292977585 6.768345790618196 4.774666549638145 -1.2622067352694197 -0.8223971709339642 -0.24338499612269693
Ni 5.251706967269833 4.8703991344497926 11.210012659915945 -1.1897851869738996 -2.5225098257582235 0.10742557517453112
Ni 5.590174607203191 9.393408725878226 3.933121216668815 0.2568328940974867 0.5824571959370742 1.986631763132269
Ni 6.992033335550241 7.3275175964974215 4.175301946799087 0.03203594538962225 -0.08108616594905389 0.24547118922776434
Ni 5.405016884256664 7.228896686730387 9.372965521355281 1.9051733014454606 0.4243466928131659 -0.24346367187943233
Ni 8.496004562320074 0.16057166848757035 7.690509176374567 1.324478596725448 0.5326389868633665 0.33995640219154355
Ni 7.668658042841109 4.16942741947047 12.02796294728198 -1.169591999855476 -0.3141314707086396 -0.15540750237044848
Ni 3.2955608926455313 7.83724248378556 9.965139898498945 -1.4415671489110398 1.802591427516476 0.006660185628994981
Ni 6.070611559459836 1.3973318977718103 6.17786168119036 -0.574774482580836 -0.23065674992275115 0.4028360724348998
Ni 4.285958014444745 0.5826021539044196 10.867513223270668 2.5430624530985946 0.2872351605384279 0.26660540010321826
Ni 1.1561299418199686 1.3248555521170782 8.081343117111983 -0.054628228867841404 0.8991625980204773 0.05925364345499473
Ni 1.3343044874550019 4.463906689115525 8.0873343444388 -0.9236233021660029 -0.02358318663657874 -0.19080362248155525
Ni 6.87224643417465 4.423240504259779 0.3507521970016766 -1.5921327498081548 -0.6885100591337948 1.666573899636865
Ni 3.135691306405181 5.104561445349077 6.689497060384472 1.408390405048755 0.9632422021092057 1.4551191765638616
Ni 1.0086738473233652 8.070087214060035 8.541779195484013 0.019010479664231777 -0.10217461118823695 -1.3584750082755508
Ni 1.878832325818481 0.33194561584054794 1.485276639961813 2.237346974367792 -0.4803391490183856 1.444566854969312
Ni 1.662184425938993 2.1014658062506775 3.7992202034144538 1.246053522548325 0.7943585196291932 0.08104091453341528
Ni 0.35018657846202594 0.20651476374568048 3.193285578902683 -0.9099352631559491 -1.1630603693845454 1.3448062525392064
Ni 4.596850574158863 4.438863245953955 4.3907056741171475 -0.4300607124788077 -0.2537953928227435 2.054569821735139
Ni 3.0462558158511075 7.968294699503279 3.775253411849159 0.29218530545485166 0.4369440698622023 -0.8576842762710325
Ni -0.1232069642259916 4.498615527289093 10.565619739224005 1.2216588957540442 0.18046598800097308 -1.7469134172278817
Ni 6.2556657582144135 3.9174965927166028 2.899574270536089 -0.7670624029174016 1.347918058695311 -0.55168854729565
Ni 5.133030598135153 7.520439633840151 2.590615730953388 0.8857941471333713 -0.1068283079101644 -1.2214971733651994
Ni 8.165150656140083 7.823652580769662 2.0545721706846685 -1.2838001451694794 1.4360814432061202 2.6246846940567763
Ni 6.78665075001288 0.27284836030174453 10.16378023575335 -1.313481474283996 -1.1854896449223389 -1.9041389466436753
P 6.7612308552442215 6.552667253626962 1.0754027180668722 -0.26556127510942007 -0.09510844837007491 -0.5823646362232681
P 1.2132941183563724 0.7598713334244048 13.436089594887056 0.45601522756104046 1.954354905376434 -1.8741316016483078
P 1.11581197470078 8.281182452734965 10.574532231021825 -0.6259672034045671 -0.9925440363971164 0.13912496316034104
P 1.514483637897782 6.594349857821847 13.22020400951192 0.3474856206890532 -0.869823739847044 -0.05065561737333857
P 2.1330312735050563 4.508855011001904 11.349216935185165 -0.15517327487245533 -1.6866606430844113 -0.6924500176181494
P 4.403589730369754 2.1575100392559925 4.498035791814177 1.2349823523358279 0.8193378152823502 0.9068933910058317
P 2.584904960073854 1.057584322374351 9.817795798355451 -1.7923646075821453 -1.3302638359486574 -3.8385228082148215
P 5.1544601058686705 3.550832727412309 7.180347605222206 -1.0140348592810406 -1.8780808161040428 0.9580156636029437
Ni 2.983106058761995 2.937988333652427 6.115050730547627 0.2689330197951304 -1.562856883662173 -0.14920394466289788
Ni 0.45692566713592686 3.1655345075571297 12.45943107448854 0.4777323075231578 -0.449230086318407 1.1446954937241127
Ni 0.34308764228135274 8.002749432842062 0.621174326695735 3.4282115104487993 -0.5651796398035492 -0.8940142210503185
Ni 5.868852320640702 2.6680725313699023 9.81977875719579 0.49227241012086187 1.0021972432161645 1.785221568779461
Ni 3.663881145021015 2.786466561799266 9.37729095032073 -1.8437236787804119 2.482437897438002 0.1295882273144994
Ni 2.426785873806466 6.06181200314414 4.839488692991747 -0.6290389003513553 -0.44844487141295025 -1.1699992625962239
Ni 3.8511469969672376 1.869166930806481 0.3455261075662691 0.8052065180872907 -0.07535646255412828 -1.1647989493422068
Ni 8.933140168471352 6.741683605546147 11.85337222094643 0.4002153469826011 -0.4441462440375964 -0.6581592147560794
Ni 1.3869135995456334 8.023783666388137 6.178413182794744 -0.3911270115280877 -0.8249279077756181 -0.6864683461134178
Ni 4.718660902922556 8.588094036704122 6.165120676548446 0.956230546678063 -0.9777306255333679 0.05767112945922325
Ni 7.692807413435842 4.775674498816124 5.011998583069115 -0.5202457554053362 0.9180995441342963 0.3619786720989056
Ni 0.4557812542503775 1.7890580288180276 10.383357870265005 -0.4730287313999014 -0.33836463222439145 0.32420453867392557
Ni 8.912218870407404 5.468957189720662 0.07493457464902074 0.5855319782076561 0.08962531376831662 -0.08673513670471514
Ni 5.893942820253157 5.33646504660583 6.511312162330244 0.04248953662277844 1.5371656495436559 -0.5603907030553381
Ni 2.4952153646849955 1.8209717138089634 11.642142400821962 -0.5405106763019594 2.336734509729195 3.939047028283829
Ni 7.571712342725618 3.1212637985635103 7.787976261965875 -0.8309111219422465 0.516246404437956 -1.1599056258056475
Ni 2.919617495226503 7.0390615525657845 1.2018594007910561 -1.15868280914214 2.794692205728587 -1.4039825057890465
Ni 2.7913698439815953 4.15611044386971 13.514135542068663 -1.5970214453590237 0.41117056044252415 -2.554634731317226
Ni 7.607955221198073 1.56440112099773 11.668107209291882 1.140917000518287 1.1304014456989435 1.6700569730894594
Ni 1.4578559049014794 5.180030581280163 1.5688601902836943 -1.5680463982829125 1.5024076772371802 -0.7326232474029254
Ni 7.214977388558286 2.5926880970504107 4.577500020425491 0.35305977234272096 -1.0968230955228657 -0.18688988924944588
Ni 5.863102022342424 0.4897098964682551 1.698325662477534 2.851207367206496 0.10008738964190506 0.9674652390516176
Ni 6.357194756646208 6.50526258500433 12.457929973705273 2.0722808658616567 2.1085984693457687 0.11218700111891647
Ni 0.9546059852552653 0.8965091498622998 5.657796609384516 -1.6441644215934137 0.8087253298738266 1.230465695412397
P 6.544150036016583 9.09643546433621 7.891063770051017 -2.1885731473981984 -0.29900232837668506 0.3170771836005249
P -0.06493884335180078 2.7841231505451396 6.616396746190991 0.7584402084660293 -0.8127527058656648 0.20083195325183478
P 4.180909193486672 8.96613615183267 1.0894923605911806 -2.287775306221673 -0.6136667887706593 0.07765914254537594
P 2.833268907850556 0.2193837619340042 5.0290518408702285 0.4450183622299046 0.5514311798692052 0.16399550114977562
P 7.022450625403 5.803199160364451 10.62602045845235 2.832009968342439 0.8764397025016648 -1.474834652714918
P 7.596096995574782 0.7062316850593682 3.4120641948782926 0.25630813194226826 -0.29382978303681007 -0.06985815844371839
P 0.058837503929912334 3.4672416480582857 1.002027594200216 -1.3568711541235405 0.13145844775401874 -0.3925598873198723
P 0.3438292519473173 6.222848589366465 7.0238566721554765 0.5798791507972529 -0.13262418592734576 -0.7701490122625253
