# total energy = -340894.2531806725 ev
CRYSTAL
PRIMVEC
9.01121930405737 0.00000000000000 0.00000000000000
0.00000000000000 9.01121930405737 0.00000000000000
0.00000000000000 0.00000000000000 13.18883031950067
PRIMCOORD
 96 1
Ni 6.410788815646224 1.9722225350582978 11.561421661712583 0.4139980025889902 0.07746271026385369 -0.7493343895100191
Ni 4.566192182471893 0.5319349908904284 6.068418343924196 0.29503151665439514 -1.4185241510486473 0.5313994580293105
Ni 2.792630992674764 1.4342977865612696 4.87934017045322 -1.3865015753954637 0.8907535480211757 -0.1202911182832896
Ni 3.1952883251455106 4.370828943550449 4.840287347351849 -0.2586979723306835 1.0203847127584684 -0.08978137973020667
Ni 4.829292758430812 4.475629426422054 2.6182206413520355 -0.28293961848686755 1.061701055008752 0.6545560707858534
Ni 7.12518027575758 5.863834825202734 2.5467364392433622 -0.17149977994662077 0.6471605496527307 0.6016813342740089
Ni 4.86244503499871 4.302307630415825 11.374020736347921 1.0961600080175702 0.8957363459477476 -0.3340598342014505
Ni 5.915730438346119 7.878220856336375 12.275504036994835 -0.8250844879581404 -0.13887402349179953 0.1892049105358677
Ni 1.9852167135880359 6.424855329297348 0.34329772620934307 -0.06179157938550003 0.17646740836454125 -0.5438734221266054
Ni 2.8302978902158906 1.7026969595905683 0.3298421732408237 -0.6751292669515147 -0.7416383064173421 0.44509549532474313
Ni 0.7484989259470417 8.87007677630152 4.5985631863084935 0.2597585523847139 1.3032667385345234 -0.5515551070415791
Ni 8.465229717490464 2.3645079538759735 1.4257650628096683 0.29477492055889876 0.926732794329262 1.0529130244034768
Ni 6.6249494584602004 0.7879851887067223 4.666683500175036 0.8828348073947312 0.01775629554215652 0.28022376221760126
Ni 0.7533370497005899 7.278389029823187 2.4715080754293455 0.6470983289562274 -0.20352826913707528 -0.44330755018638496
Ni 7.835363496358958 3.6151931317535095 3.7441770244172488 -1.200973085269919 0.45084936708938483 -0.34095090489432894
Ni 7.524269165303377 3.8958205296544133 12.616461549498094 0.6702858228162843 -0.45726349814584477 0.6175555823021042
Ni 8.367719311200384 0.07776231873951094 6.516575125931943 -1.6246314937668085 -0.978217078251483 0.5419957454879182
Ni 6.792395939347574 0.6445509044408415 0.6838551405664717 0.8205842860949415 -0.11697259543301788 -0.988122253180337
Ni 1.891590142905665 6.703752573052822 9.299655127050764 -0.06926320517219683 -1.4142759172952546 -0.9537882557851572
Ni 0.047607173779791435 4.896795803761096 1.3881116820978026 0.6396228465147887 -0.3956210427436993 -0.06242587053538926
Ni 6.513066157055743 1.7594856649264972 6.931732822103419 -0.16239730342472034 1.232051551842278 0.17950902340434244
Ni 3.478357763532932 4.16126402268527 0.24120691704362768 -1.618076723367426 1.2226791094884426 0.3833360547287592
Ni 6.055539509004154 5.466584224436455 4.672921066318091 -0.4801846257183923 0.2840107400638593 -0.020046120017597736
Ni 5.568771453650901 2.9108491813929565 8.994624445601744 -0.1555586832363321 1.2847056877028842 0.5509457555923545
P 0.35281807961896045 5.44076708054762 12.333877815842124 -0.6383802323569393 1.8164712708223618 0.48316119184821305
P 4.076234155413003 6.149319270418151 12.391446892787396 -0.9023301971151814 -0.22816483673883287 1.1894964520888869
P 2.2445415885733357 8.494245844304443 1.3241058910583596 0.7139030452856028 -0.23235110690603855 -0.6159620125627392
P 6.409788570280898 7.987382769449583 5.971388235633864 -0.09536221625209383 -0.0021353011754479353 -0.2938482949795714
P 4.849441845249463 0.9087274200089508 12.665511419521026 -0.5444292946300753 -0.374202210748291 -1.4503927176224698
P 3.9639633715697253 6.021909637802363 8.321506173078395 0.42264693651323987 0.9096879230318333 -0.3701298404511303
P 4.558289342963862 1.02159294433972 3.7205162653565464 0.5027332004428697 -0.24914272454208058 1.1103892642430748
P 0.07368113742458833 5.577575415109676 3.65454602846448 0.36913122398328685 -1.5389826481477367 -0.26145985134653676
Ni 1.5360344548003424 1.064017765780779 2.6263316400306884 -0.3266941378649987 0.7614800237336176 -0.8505155264367351
Ni 1.7308299868928168 6.567511945319736 4.789115335134911 0.7668436020383761 -0.8405082787123783 -0.1341979581723689
Ni 6.072399500702587 5.675112855058278 9.22139268562859 -0.15786239166884428 -0.4601205079786656 -0.8410903764680934
Ni 8.669243727139056 2.2457040358897964 10.222464379784002 -0.008894731386468553 1.051941147408511 0.29158546708732364
Ni 2.40432853287938 5.23226548358432 7.0321655668797645 -0.011201010922141999 -0.02337749838367587 0.019233394308315267
Ni 0.586014022520468 0.005859094923741817 9.095611380377797 -1.01918786423689 -0.42297500927661996 0.2042877730109191
Ni 1.3958649353620098 1.022881548729285 11.479743066975137 0.03229022749227342 0.7793170519150385 0.5852028770030115
Ni 4.043550462259494 7.000663244603682 1.6445944184504537 0.20078670183619615 0.058334731185151145 -0.5689007974088782
Ni 5.330082271337653 7.958330597757575 7.967583317947821 1.5059797108591548 -0.19432243426809115 0.68577286270829
Ni 4.963379704701619 3.0100627081699445 4.684988891482464 1.5273910866553952 -0.8305822778479179 1.0129753076682748
Ni 0.8169391381060991 7.337538674670068 7.038390517315508 0.34035672295375574 0.3973688786727415 -0.6732896426396147
Ni 5.074361884155332 4.611068055618977 6.881430392568951 -0.6599543589832891 0.23906682836331727 0.781617417913441
Ni 7.931044625089027 7.2855439381121005 8.589859388888206 0.13187110981140515 0.5249806989871604 0.8426821464352454
Ni 4.58635028051005 0.32164106236709655 10.451198867907372 0.37289120524635133 0.03371770396741935 -0.5873734022917692
Ni 8.28127468246545 7.210291244005414 4.703400615180079 -1.7998591161869777 -0.6182474661628062 0.925521033409348
Ni 7.350938358077641 6.140389151886272 6.687475607256521 -0.8978189395083893 -0.6107154194518192 0.5261145554812875
Ni 2.447501285539557 5.323404957682635 2.495392312733833 -0.6869751105465072 -0.39761184792148296 0.6853404031565615
Ni 2.383107110939343 5.293613865991017 11.090738633180122 0.236520922013012 -0.30509944241335846 1.62885787314333
Ni 1.1807941593777804 3.3147230284972085 3.8944508242892817 0.021698825129672306 0.1102051948021973 -0.5922813811163478
Ni 3.4844853927979957 2.6302938732481125 2.628019441444433 0.047902480108233635 0.01774292580571783 0.13579872700058548
Ni 1.2567317061670333 3.4812593762143296 8.273616948128021 -1.425689815559151 -0.49276966147225454 -0.8216338104053785
Ni 3.5836178185994165 2.6933543873612242 7.071085925054377 0.13226783102919157 -0.018326823333645857 -0.057158194378546724
Ni 3.998971959356155 6.872812062232029 6.0844556112816 0.7082142224309417 0.04086742763832316 -0.559490559838572
Ni 0.8628549059843428 7.485151461421552 11.313009373550802 -0.5929215858035078 -1.1463960213549869 1.2847987616373229
P 0.38345442370037763 5.570681832186479 8.089579911005487 -0.8322555517852827 -0.5172267660733544 0.2768982973887941
P 8.483549526749105 1.6607947888809413 8.072922671745971 0.25322435081062195 0.5118631877685959 -0.6788254848561793
P 1.736398920548419 3.300232987529234 10.341375531282317 1.0459854440457084 -1.1282993117542761 0.6505682897826989
P 4.056499584691695 6.2678888966971344 3.850967184556098 -1.3393503716309578 -1.7925767235929515 -0.0357056809317256
P 6.866711466625487 3.9779668066842975 10.475162403943527 0.45706552320242577 -0.1053524946955863 -0.5895369856019912
P 6.469334708786104 7.8321464909948 10.067272256304804 -0.28976898270387513 -0.26254305710838655 0.7811471631452418
P 2.3970925236149005 8.423120288732166 5.856540243011456 0.5549337937058249 0.6879259044955508 0.8107068790802295
P 6.585426249700539 3.9654051666909167 1.6074681940797735 2.7960510337493263 -1.6848937809919757 0.7532360385572706
Ni 5.207232315792632 2.7642005951287696 0.41224617114862044 0.5488801313125773 0.1289323388980554 0.26918421657398806
Ni 1.4610340748398638 1.1564909003661967 7.167100468906221 0.30409414107729565 0.26815757508168653 -1.2757258528017772
Ni 6.862350036383884 0.9229831692697313 9.27112830945604 -0.6255763957240515 -1.5877521042419558 0.05467245184221552
Ni 2.6033052708233093 1.4724062338582613 9.266169435361093 0.6217577933089099 1.008522928323876 -0.41614307395645106
Ni 6.150932278709985 2.032822986245877 2.6712525692753095 1.0647817508166049 0.7850608963773512 -0.637627927571947
Ni 4.340253875761683 6.841480052004636 10.396188076180264 -0.32652573060793444 0.5600708578220742 -0.5396496138532447
Ni 7.87654476950799 6.872370512476164 0.4183458656332111 0.4086619350880574 0.04285951836768748 -0.32818872013265415
Ni 7.73167139348677 3.9544745574283837 8.24676441511778 -0.029077634092246694 -0.30255585005589825 -0.6469977988226212
Ni 3.2198799431813323 8.31790528976322 12.30138065493242 0.03958161894736409 -0.05409446785155844 0.8858944201566614
Ni 0.1202880658390532 4.812658047220067 10.227080827537668 -0.4265583557525041 -0.05219545105663269 -0.4612435658395153
Ni 8.629630406184322 2.2870024548924244 5.717899026401586 0.01631030712424933 0.8752549381649444 -0.20541905840188493
Ni 3.560603163977398 2.451439188464311 11.288887240051318 -0.10230779433199154 -0.3184074723761742 0.44252799170788304
Ni 1.1142553145347942 3.4209022279534524 12.499648209901112 0.0704040036448594 -0.4377436829453622 0.4190373647851106
Ni 3.015802854996188 8.31356188196063 8.046162954296657 0.1584228921580046 0.6596052031739865 -0.5577175270985492
Ni 5.454842605418252 7.809122825153274 3.758394926556098 1.2938073928938363 0.7383940884484316 0.036457214385769474
Ni 3.035086864742124 8.316859988300356 3.608424804781466 0.22296349504355148 -0.103980296938408 -0.5083798572056858
Ni 3.490585988404537 4.088651615894264 9.137564915038617 0.10346967585057663 0.20596978869903235 0.3899787568562574
Ni 7.319561291752711 6.022540423167884 11.382409280587403 -0.06032579347325095 0.6054719116646927 -0.322213990606458
Ni 0.20871245949977502 8.806070084140128 0.40018195047205085 0.9364795893033806 0.5485392030333908 0.1566665715885302
Ni 4.6240712453682224 0.5074127592448139 1.609749834859059 -1.4037289950173437 -1.4394339046181208 0.16152801344588955
Ni 5.734731083319546 5.409335946905646 0.4240265384107054 -0.39388374833761847 2.015546903504722 -1.1105322175788424
Ni 8.080378554766433 8.94578003138358 11.238189217980473 -0.7067828893010537 0.11604699829495498 0.37246825877631984
Ni 0.20760317837840833 4.888892964253064 5.91807876214976 -0.24663924139393656 -0.9921609420260848 -0.5345156350607891
Ni 7.84806030464495 8.466383153587417 2.782395148436255 -1.322656970135677 0.9126842866559958 -0.9692197598488791
P 8.543780517936877 1.3946484207285041 3.4390670442365634 -0.9274192788733253 0.8588772681378692 1.1473876958442948
P 1.7202508151910743 3.367573830908383 1.6667521060973143 0.071628877190896 -0.44828109214157635 -1.2346403956153769
P 4.662179692665215 1.163159202801707 8.276031053834066 -0.15904972710872609 -1.001254676797237 -0.34333791706926675
P 8.621565364725157 1.7154658576326203 12.612611055402562 -1.1933363946602673 -0.9640749824231459 -1.2070514302535147
P 6.13432460115776 7.690354952045126 1.4884912606790537 0.6288368116428784 -0.36336989601947745 0.18139107091840373
P 1.7142853878771447 3.124793554938755 6.027783150677316 0.39626536119591754 0.060090537533993287 0.07984458023246895
P 6.802146078854632 3.8947662169720423 5.9570126371536345 1.6059660561468212 -0.9629915195509803 -0.42194142580578303
P 2.3617234870481725 8.584646398403148 10.214762490470987 1.4723836200712643 -0.45264091177216886 0.6090280044470673
