# total energy = -340858.87073552044 ev
CRYSTAL
PRIMVEC
9.39358894328729 0.00000000000000 0.00000000000000

0.00000000000000 9.39358894328729 0.00000000000000

0.00000000000000 0.00000000000000 13.74846693702247

PRIMCOORD
 96 1
Ni 8.059107283132667 7.768366320194549 0.4342139394957508 0.9243920620112274 2.413482196203895 0.06034996184296703
Ni 1.8742369922878708 5.425915294218349 11.204973160912402 -0.13503690913389646 -1.3943064161518632 -1.1611307564620004
Ni 8.115027316487668 4.120225256207545 8.691890414814655 1.4857731540042927 -0.5382928427150342 -0.8469152106799865
Ni 5.007290015121158 2.2781519115271873 0.4377280810173542 1.070756223232485 0.6857669491710189 0.19489270494926433
Ni 3.8226833350720457 0.7583265655443957 12.630840075578202 0.9701589838336969 0.31613101763717166 -0.27464575390919155
Ni 7.158976042378503 0.8473787254988282 0.042055096477462736 -1.0089996108499786 -1.346276666437146 2.4279909313430315
Ni 3.279395740729733 0.8323377113197545 10.357778549751515 -0.38042865127397707 0.7603726496020518 -0.9604029328881976
Ni 3.161271363199223 6.936733128025077 1.7326370973111183 0.32625447922441875 0.22196564990665643 0.9264905964114689
Ni 4.417541731214956 4.75516609520713 12.950010734627341 0.44478182073906625 -1.511942870421125 -0.9848659510265685
Ni 2.2942900968629663 3.63683118322782 6.857515116049705 1.0128704066592944 1.0288189595687507 0.6293510322751354
Ni 8.52830764363139 1.4330764939703458 3.1787969815816224 1.4032682533308412 -0.46181460785163686 0.6135955692130916
Ni 6.4715062555339395 3.1928713954865104 10.284870211286064 0.02270052692130929 -2.3410120540586266 -1.5271632869153053
Ni 2.1084755193734215 7.328426988404178 6.859783667713611 0.1911700046820385 0.3227816901844699 0.09541158143279051
Ni 8.6740585654416 9.326678138318911 12.368368178384843 0.8421959508274464 0.02589640815078766 -0.9061431431033685
Ni 5.545476890815433 4.469920381641208 8.091261537151508 1.5275674643322594 -0.7910232846083732 0.042028537825959875
Ni 3.6701972101851457 4.486960351489347 1.2774745157214678 -0.07884184999956743 -0.6601047685182245 -0.05793183931977765
Ni 3.080852850591772 9.153573086300444 5.278641671684664 0.033197569797891215 -0.9003201086636882 -1.0236119614465145
Ni 2.369974240780526 2.639241460018067 2.410119620681293 1.227498899474589 1.5382488553055056 2.7154726606746267
Ni 4.53845600458058 4.534905228063161 10.273431638362096 -0.7921897941126486 1.2641240068967905 0.6244327690379117
Ni 9.13148875933629 7.863842755440681 6.250891250097097 1.5919466019392776 -0.7780073319646794 1.2534508434536606
Ni 1.9321202856749884 6.987524261966028 4.336073954753019 1.1338696067532021 0.9010788412065835 -0.4042013282135426
Ni 3.066104916379216 4.977117808311774 3.3892584570246105 1.133401665977848 0.1523527747045247 2.4778603053696484
Ni 0.7513518259566101 2.0564632189053156 1.1865577284159572 -1.140887432831932 0.7242859311818236 -1.4471374439099658
Ni 1.2801676575932768 4.901461845160225 2.13552153987329 -1.1284520352820566 1.4368301484466868 -0.6186644990955668
P 7.605237259344065 9.6675057160477 4.9468629379220905 -0.08712414461301769 -1.2736013502596066 -1.1757263948879881
P 5.455204503692713 6.532667911367033 1.9637898305184367 -1.0241513788897523 -0.5462426936897302 1.4060324463395397
P 6.109777943013472 6.44769350825443 7.069654286429229 -1.618804088451754 -0.16315860707077706 -0.443769577424468
P 3.77380849321986 9.088287645041037 3.230256939035908 -0.2554064460636053 0.7537016653397793 -0.054997439281802056
P 3.532092669552656 6.440103488608731 9.878053612506456 -0.7490644236780841 0.6351432134768803 -0.7441538737503443
P 1.2874946567562027 4.04959486299467 9.361564987281978 -0.4467260889496306 0.4408812001330794 -0.3021316180342861
P 7.970337870197214 5.37830858683667 3.09233275530589 0.13730153679835708 1.2615955840479822 0.4894012592206539
P 6.712367262632135 5.124982287572829 9.8802526516142 -0.06862300048503665 3.1087614557407237 0.5303861862734478
Ni 8.001430648696298 6.565357599940088 8.18290820629671 -0.22941285021332106 -0.05788710212477127 0.7766870704913591
Ni 2.4999251464470933 3.203401608386049 11.677823869968453 -0.3220111305670325 -1.0607350915510572 0.44777689881164817
Ni 8.343892710853737 1.756431996772155 8.954761539526508 -1.1540468530320254 0.11474807697787334 0.2507779461526584
Ni 0.5676160496398293 5.209487011251912 7.224750889607639 0.5743114269014883 0.8744617528396874 0.7927289544455701
Ni 8.136933165267083 5.600551501190096 0.41418868716815305 1.90005294949976 -2.2047932088014868 0.3466330428807708
Ni 8.70279355318441 0.7012389091176626 6.753672750733699 1.3431167806519257 1.597739554471971 0.4677636263462202
Ni 6.118175811284825 4.400501761366817 1.358953564489809 0.21576851995700905 -0.03594376508446068 0.7235778493712054
Ni 6.845906519170802 1.669729173344194 11.77127222942064 -0.05658895213863803 -0.38779460472074506 0.2959972230017741
Ni 5.116715929542861 8.681385564604525 1.4812045455232339 -0.3712343863692187 0.5159656399727437 -2.0100599122482223
Ni 5.770528488181315 8.027413314958675 8.95800608505327 -1.0384701095052695 -0.5866210975067768 -0.13918178454020547
Ni 5.873980080208632 3.9294978318433724 5.8476216703994375 -1.3120974494522757 -0.06838877298704352 0.29662354373186334
Ni 6.114625034767407 6.461567838720637 -0.017315201996182056 -1.5323322327107545 0.03983821504286042 -0.5928650215339597
Ni 1.987223076815662 8.752119287292777 13.520929570043688 -0.8425517915049684 -0.35232572239017385 -0.37792336835362006
Ni 3.7263614768455766 9.1822611060999 7.9513703359539045 -1.0150447886027938 1.162813800591378 0.2773883496513352
Ni 3.6589624781353254 5.504088739133571 7.599822794834436 -0.9397939983885943 1.3219144355426975 0.17560814568803948
Ni 5.728501572469863 8.125519955032523 3.5904672476272363 -2.589242808309399 -0.9561973794472821 2.47518044454464
Ni 6.876435682349661 8.786894352550664 7.034430207632895 0.37605571901726204 -0.9080588720688426 0.6302974553488048
Ni 8.110509000337196 3.004586304176646 13.68894987251486 -0.8579506425585417 -0.2897219315160236 -1.3486099425560127
Ni 0.6047930555207438 5.054210990529897 4.559211138747869 -1.007212694152885 -0.9425353085791573 0.11342215907759821
Ni 0.8127746235547413 4.142187466518984 13.727239079294351 0.5820345065773589 0.4522130802061309 -1.60759125045507
Ni 0.6744643633303693 8.89365248778997 4.39062816031534 -0.7573292347900376 1.8793715098910084 0.8663458086007725
Ni 5.7365330907830705 1.5239500707679723 8.296525539983154 -0.4710392117736985 -0.3964669356837624 0.11248370642372885
Ni 1.3541985299048434 1.9972930038703507 8.635989168636996 0.21589347557064756 -0.03497060253791396 0.06454394531965658
Ni 0.741671732831744 7.3622251204403435 11.717708108104182 -0.8046365045164335 0.9299281613381081 0.6426081543953578
P 0.7622126931773477 1.1679706345138003 11.479172014201913 0.6416450191511401 0.8428029882838259 -0.8832528687687563
P 7.1770399133917175 2.496984953193252 7.003949891115122 1.0885186894222285 0.25163360928473444 0.33918352858126105
P 6.940669041677982 2.012463649573076 1.9093323789194205 -1.062530492888583 1.1314134319032256 -1.394541672091121
P 4.219233680793755 2.45539014256064 6.640069507430261 0.24218171984321515 0.04825137880722013 1.7384151499488836
P 8.190035122020957 5.772097217489275 6.144450618154853 1.6620400163222537 -1.634257704002663 -0.11194763141460075
P 9.406833630443591 0.1990971118695159 1.313236847148617 -3.038559540804341 -1.945126701909947 -0.7521201797852725
P 2.725925496268687 2.7452950761070896 0.1936826473598868 0.2958612116445421 1.1994016270177408 -1.0485529476625683
P 1.4206487761593825 9.376003872427278 7.45443258682917 -0.16133183827468342 -1.70217802199372 0.7787691498313685
Ni 1.4954123483872415 7.020721204327287 9.443629256624487 -0.018465920014671424 0.26907597313089787 -1.0115876832921287
Ni 4.882364679393264 6.509155758924976 11.543102899975047 0.8207331529679801 1.394909854063817 0.08317852970170836
Ni 4.965986405737328 6.180154709332246 5.06287281864289 -0.5314524227544332 -1.755195711841332 -0.7301596163537812
Ni 7.337867545017949 7.328239116630771 11.688162453659116 0.4985186481408898 -0.2797969590928278 -0.7207833173452038
Ni 2.0023937225183874 1.51738395228735 6.174587129327289 -1.8217862552773723 -0.1920992013645272 0.49856389955652847
Ni 5.661938603151279 1.444292438842825 3.6627565485993077 -0.31284411935578377 -0.1298006004356216 -2.2418446051278296
Ni 7.257392670878476 3.175079938544738 4.310487697932533 1.3459699338300044 0.4918384079072368 -1.184466088753831
Ni 5.599180037244215 -0.37279208125648666 11.10737283526789 -0.4252198394467387 0.6681001280188753 -0.4065389752077837
Ni 0.42452351342334727 9.384542644528688 9.577250237384586 0.10868747260609023 -1.1808272064496632 0.6914542293637834
Ni 3.17624474353987 0.9112278870505285 1.0866268534223131 1.2146778364505209 -0.7870874398890767 0.587781179253149
Ni 1.7644165471420103 9.088935802659295 2.2791654797447256 0.4711268863914983 -1.1793606492064657 0.9383819485324162
Ni 2.6851385342617307 6.26604029054588 13.158904420121237 -0.3176999047861883 0.7463657937999985 0.7722370051398055
Ni 6.831243127256279 4.7305642864793045 12.120442253247624 0.2449369139908491 0.028606607993099116 -0.1290981750519583
Ni 9.470240353968915 2.980961428670544 6.523413347808937 -1.5955826560299682 0.1917284482886698 0.41666295101566303
Ni 3.4460098229769427 2.2749862721452563 4.6893546129821795 1.0646184857658632 0.054607145821918855 -1.8278003226819362
Ni 7.348773501464304 8.879909667565148 2.4991276307689745 2.6318488159053834 1.0125965841726174 -1.102156077700005
Ni 9.490154761950203 7.34640631711936 2.776901683906446 -1.5226671988171645 -1.5688881774579173 -0.29307953513434687
Ni 8.894375794117591 3.2026125469377345 11.22409662872764 0.5857998871570621 -0.008140369718947271 0.03723651575395522
Ni 8.578450619954083 3.7667351209510347 1.96523362509708 -0.17727293498497212 -1.2501996835062146 1.3700917665788728
Ni 3.0858596333531048 8.184690170067489 11.336229775404158 -0.3515998999677428 -1.0184332454590526 -0.20818633673437698
Ni 3.645304200208537 2.7885525519343655 8.900646953913963 -0.10150612436630262 0.12389349092256725 -0.8033666366650746
Ni 5.530860466844262 0.7826615963539812 5.761294590518294 -0.5823157852632036 0.8130499253911094 1.507239808518501
Ni 7.309386184169241 7.274977468869499 5.0622265397423645 -1.331042623096211 0.7368113173423438 -1.711469217487659
Ni 4.7733896572277414 7.998246222137027 6.294487834475375 0.16095337188934217 -0.22900558747257335 0.8827278495032217
P 4.71990256333838 3.5544681977655923 3.419834588146822 0.9531549930765325 0.25603353812464297 -0.3312380484819392
P 4.527878823737689 2.5946970625429433 11.080700679597106 0.12328671057650381 -2.323215392196838 0.28752492386470485
P 5.793354908650431 8.478775250572275 13.123625858510614 0.2875634904121241 1.0803281831916363 -0.4798177292972768
P 0.2999053480449769 2.774903667596248 4.456826658393512 0.7600085813944136 0.13274219956244881 -0.7621893910958163
P 7.829668879857699 8.338735630673678 9.419940504715425 0.36674806846309094 1.067788913074045 1.0715036429214708
P 2.677078835182512 5.3722121477895675 5.521589934185427 0.36177786894200925 0.2980170816452803 1.2204936718013497
P 1.0952924389707739 7.063856563501847 0.8994934160834419 0.05866306105884736 -0.9882862895620269 -0.6136212802447045
P 8.8568390137906 5.610489918003398 12.084600076316779 0.8919501394324382 -0.5607673696684665 0.2926051666010896
