# total energy = -340868.40359745134 ev
CRYSTAL
PRIMVEC
9.25374473244378 0.00000000000000 0.00000000000000

0.00000000000000 9.25374473244378 0.00000000000000

0.00000000000000 0.00000000000000 13.54379079878413

PRIMCOORD
 96 1
Ni 4.393298531173809 2.2819178951768673 6.182496168405876 -0.74345350524921 0.6813549361462523 1.2561142492184367
Ni 9.108090657140009 5.815071612305789 12.011120815048576 1.1232602066684718 -0.5926585619501084 -0.8856301107516812
Ni 0.4122080530777454 4.662749066352118 0.6778858365838177 0.08254603832403203 -0.27435933301702425 -1.1702527733679267
Ni 7.007684962235225 6.424116066708413 2.496784292474732 0.8844743998806832 1.5265264246622547 1.0048933019910886
Ni 2.4431736485259026 5.29090250334775 3.42909813525793 0.049392948610831065 0.6719745233726169 0.03530510305919726
Ni 0.5144674831224403 3.773158836999264 10.246987870432209 -0.7013920573027856 -0.32740067701372 2.115942825525982
Ni 5.058920380043093 8.484277226360415 10.549380811001729 2.856707213978803 0.037873378007005735 0.41806934444488647
Ni 0.42744064205902893 6.3521959636997645 2.322082848226113 -0.35508708718539495 -0.015326345944425217 0.6180338074901034
Ni 0.7545799464301091 2.364498311961373 4.400987467559538 1.547858867591444 0.026315755076393388 0.04608059640814644
Ni 2.90158564837696 4.234698602524141 10.419237997737056 -0.09454434833648878 -0.9125503321812929 -1.8288169368719085
Ni 7.01072944420767 2.627628539579864 6.423779230405078 0.9638194147689142 2.3654357343186296 -0.5767804572672711
Ni 0.549022816196925 7.636689743733791 10.083067964013669 -0.22789050003152364 0.6310014233943649 2.3608288316742376
Ni 8.18333619831818 3.4684515349060097 2.335179672954386 0.576162106956982 1.089247082947821 -0.9092701187681244
Ni 3.1823442594529237 1.5934115359189598 4.069827411161019 -0.38695025444257874 0.9792131236161652 -0.5846392911900578
Ni 4.635765147106979 -0.04611881232301869 5.345137775056885 -0.35232855060365126 1.045321070988832 1.6487512696331474
Ni 6.259797323897738 6.60711811986063 8.763414581382968 0.24682461793186522 -0.2768957262856328 -0.9968082109901092
Ni 5.146590356356001 5.115507028254348 2.7586800705639707 -0.3926694163145431 -0.18551280639626114 -1.0736883092776153
Ni 7.687178174255559 3.990723626221643 4.407962014862371 -0.6533427672040426 0.7439391866363768 2.174041272330611
Ni 1.358209109494511 8.603826352810328 8.16207016785959 0.13520917304570262 0.8766232792673806 -1.0355112839872618
Ni 7.310291664304938 2.486453412006532 0.4114612758887595 -0.486236231229111 -0.19135949498502527 -1.1831481412733558
Ni 6.48656958899423 4.2368732325044585 12.382694750226003 2.0210040699645515 0.6072063778572963 1.2272376753934027
Ni 0.3178985150164177 1.5265717386941184 0.15045755877868155 0.7373059975905754 3.1509578866031154 -0.9178102950286516
Ni 5.007228962723701 6.378356299675762 0.49444978280999713 0.5407526171094366 -0.564655391868963 -0.5846860852675931
Ni 4.089266752436143 6.303613804564998 9.870416913172349 0.46255868510651305 0.037500825158935415 0.88088899652227
P 6.998431217638126 0.635696164216727 6.326711151079356 -0.996888172298425 -1.876961100677303 0.07343353449980256
P 9.635739174066556 3.0834309834545395 6.334417669579819 -0.9991687408024856 0.9936745504571339 1.7064116004590932
P 1.8642501327868337 6.674892545289778 0.75569317190514 1.3589686600825175 -0.7134345902896164 -1.2694968411729297
P 6.453515213293394 1.9189027483772965 2.296850662833205 1.2246066655284586 -1.1876992509791482 1.1185126646811576
P 6.790656890199478 0.5243143927482126 10.047353136741169 0.5594021138898237 0.4234761172827545 -0.04788448238610463
P 1.8504805608263515 1.1303819175139502 1.7685479061636429 0.8357136855372124 1.5014028901217498 0.6865765895565079
P 3.214741619287365 8.689210654207756 3.7958638247427046 -1.094991955851398 -1.1182277864508872 0.5489302678242223
P 4.379723287849866 2.647394538039266 13.164510317754292 -0.3684128577600236 1.307483090608716 0.36786675544856645
Ni 8.52677042155029 4.070722248263558 8.23484161537117 -0.005593177817061335 -1.8033640440164427 -1.0356881758847583
Ni 7.5485385727018315 5.428135535722719 6.542639878256968 -1.1363877451893654 -1.4787303882248986 -0.36226843542518256
Ni 5.42931076128655 7.036639929079546 6.3467288513917985 -1.0502725014568364 0.17257604372993504 1.8489417326462418
Ni 3.124193728404758 1.8666746138712735 10.162773242351856 -1.6039770507412505 -0.9560719096130115 -0.11686332354866324
Ni 3.030462549380749 7.512495237496134 12.252308563478428 0.20435462169311255 0.13729639459203452 0.08185518290459451
Ni 1.5724055356835462 3.248277189707249 2.30423237489831 -0.1894764190296995 -1.2763578299588212 0.0051666318026040055
Ni 1.0192722061365904 8.75297820822636 0.8043873013495312 -0.6744952329119416 -2.7434308364504494 0.11788096617990021
Ni -0.2951824227794607 6.286466615826575 8.429113804068193 0.4150130741170659 0.43357515338996944 -0.3974118160955349
Ni 7.657732758947592 5.116339865268087 10.289610618046444 -0.5829457055377186 -0.6064332471366976 -0.7214320066727962
Ni 4.3913459910638215 5.0817308604749405 7.7588040081860195 0.5814596079104953 -1.3380123695458248 0.14736817700573976
Ni 5.590862634462693 2.5018794042498946 4.22730115909322 0.9462623797217574 -0.034672611681520936 -0.38548909651602
Ni 3.5117683133650273 8.912392466400572 0.5548480484207983 0.2739659542333475 0.8995873442627217 0.2938243837201714
Ni 2.116581240460511 2.8338667454153947 12.200706907481628 -0.12824174058893395 -0.09082293362084358 0.9377635982221268
Ni 7.591929381117625 6.393745276940736 0.1171477797269664 -0.5370255459668365 0.985246988515071 0.5585299956975156
Ni 8.824583683918707 1.6658220873912541 8.742733387582911 -0.9654991164641824 1.4158566315188132 -0.38261743139517973
Ni 5.787587990852407 0.3842080726758452 12.655141647904854 0.41195269002418733 -1.0432032533148807 1.7399966355033905
Ni 0.5137336611758904 8.226301334482509 4.255892453774875 1.9678987054991397 0.7901426817756327 1.817781504993353
Ni 8.821150544673182 1.2990221590514703 2.2174711163048353 0.9259807466545859 -1.7505029343513527 0.34051304602596194
Ni 2.411766439363351 6.486736156396977 8.007630722780776 -0.6021983831197435 -0.43019852360825267 -0.1499307955265934
Ni 2.2677596659433066 5.3471560167535115 12.415227214731562 -2.3318008198730036 0.17681913527700516 0.47050596497804775
Ni 8.224358048117118 8.673673617029227 8.624658382647317 -0.9502565884828151 0.6072750263117025 1.2795709375794801
Ni 2.2464575458807863 0.11929002160119465 5.955935814060658 0.517265846841406 -1.5938816141784615 -2.0490344937392067
Ni 6.671894332040318 8.690950358192008 4.5578245578634595 1.9101483860625488 1.9251392030444263 -1.1771227610148824
Ni 3.826580704558313 0.624686984269559 7.952643121635898 0.1544554228698243 -1.3888165966818855 0.10971077166428204
P 8.50495934553493 8.119550136810382 2.7285045348072927 -1.9724845250976093 1.0836994136567142 -2.3046453425041338
P 3.917804118796508 3.9238930827413987 3.988998728228744 -0.5250393201392377 -1.9963983556007296 0.9880494909608727
P 5.659997360347615 8.3953487407823 0.9628567522003805 -0.6567330238325141 -0.47514912017701394 0.5667390138708691
P 6.8509820512279616 4.7629393591049025 1.0894017095657003 -1.3998777395920536 -1.9564004750515533 0.6436278539091237
P 0.4411435870584122 4.479506415840377 3.7273324430055133 -0.4191286389473363 -0.5492506272781187 -2.861688726353794
P 8.776177345931286 3.4290398366669685 12.432048671660167 1.009644700633145 -0.24884267680315852 -0.7532429805358061
P 1.0779224393929998 0.8068636034037147 9.790534888312356 1.381769460027117 -0.8830348392206792 1.4870723324316906
P 8.58650334292456 7.851376618386472 12.510670336506033 1.2465278910815822 2.2603300655265266 -1.070600671491227
Ni 8.125750145690438 1.3150033759706592 4.30326884998864 -2.653160947119598 -0.4915581576626567 1.4591416674596935
Ni 1.42942592791378 0.3424366695645434 12.050194751609824 0.4947129012415545 -0.6499537961271515 -1.4912264638093802
Ni 5.0449657331906685 0.2455518143818432 2.847771422046994 0.2767545727220782 0.03862722545389476 -1.1172530812424435
Ni 2.9862944264187985 4.272861045242574 0.8426691173732673 0.6677807970062435 0.9842445153924855 -0.5955536241097162
Ni 8.09675816386773 0.8725762945366293 12.095946190272336 0.006589223181743491 -1.8959209296092574 -1.0592927026775758
Ni 4.989545056798646 7.150868152386129 4.042482595876593 -2.0594160940838466 -0.2285492166614451 -1.537215528944985
Ni 2.799396546791203 4.699680761039137 5.96820720477087 0.6517018891665098 -1.085502271193408 -0.41526658488876866
Ni 3.0236517933572844 8.436925815257062 10.034634790166916 -3.378675351391885 1.0516999779319822 -1.3852638463336207
Ni 5.301026099936976 4.895304921821797 5.31782072100625 0.343668303825492 -0.5505834871569292 0.3488025397282638
Ni 5.31226939962245 4.11278051745737 10.155418366146082 0.17284600956187007 0.06564694857584823 -0.9429222596049309
Ni 5.2464104993249014 1.890623304888564 11.101614676573845 -1.2632187214737018 0.5436386804079798 -0.8124572861124331
Ni 0.545667408406017 5.341178097743786 5.502272835936832 -0.3398301610263244 0.8034854216311259 2.6326743971304722
Ni 4.672595050603431 2.936879430270293 1.849838350951313 -0.781687351919428 -0.764907818468244 -0.014717765826148844
Ni 7.862222007054271 7.595593863978077 6.74606772185836 0.38575700546542596 1.6281024830345445 -2.0167429806953527
Ni 7.364999802362983 7.476655484671572 10.624128858359251 0.7307175457397803 1.5380069144980286 0.9599625029166693
Ni 7.26866832110719 2.61568195530501 10.917432770985501 2.562808011156638 0.8980485390206921 -1.668872722973371
Ni 1.7892022641043661 1.7499941482464605 7.259931860833069 0.09670613187449797 1.8975530658960418 1.3139566141482018
Ni 7.676175471929609 9.071741948362606 0.6666934324936272 0.44883053688714314 -0.6637521354628246 0.4971415652877051
Ni 4.355413700793289 4.6872899970236235 12.211040564073208 -0.9740827443681354 -0.06527902371346822 1.040858664342104
Ni -0.14726686764160205 0.5465196782834097 6.532413565102714 0.1557016365720996 0.08830350963309953 -0.38882664552968516
Ni 1.468291655221593 4.0158845577811535 8.199194340434229 2.673312482366809 0.4738969929374677 -1.0516192452927178
Ni 3.545433436209271 7.045310687767027 2.1861980864389414 -0.6807070181496082 0.633683083991586 -0.03303764718125923
Ni 5.891266945318296 2.200503450211596 8.412035093039789 -0.6908626185263714 -0.5443999840540367 1.182004000366584
Ni 3.0257986621038113 7.023916030258536 5.544652210068163 -0.1950161179010061 0.1130300658455021 -0.38544873019638776
P 3.522937583093725 2.8404739190577226 8.269662530915591 0.44880276897300125 1.1121908362281878 -0.8416930430490988
P 0.9516736018547871 7.4328852727272965 6.2582473216777235 -0.23531353196847218 0.4015104116449408 1.4545712744801915
P 6.5287203956340125 4.351147724534027 8.354297279000653 -1.501962876390278 0.40307132837415743 -0.5733413496787351
P 5.849680617098937 6.1249239963950295 11.390598941222171 -0.4984132329112771 0.2233288488027702 -0.26440813534158336
P 1.9512075707657668 6.112505471145724 10.312973547030737 -0.3512378886426338 0.17145607119287892 0.3262074280365672
P 4.3302805304675696 7.626381072252623 8.061819725766924 -0.5237671382950334 0.738916793721121 1.0948950252622176
P 6.804167357311242 6.726685753799737 4.845521626638327 2.767621317653724 -4.456676172001925 -0.26491644243656953
P 3.7066706820691127 0.5918019520948508 12.026588449142626 -1.3254373610942916 -1.114812847232067 -0.34049684807604585
