# total energy = -340873.44346874236 ev
CRYSTAL
PRIMVEC
9.23239240657407 0.00000000000000 0.00000000000000
0.00000000000000 9.23239240657407 0.00000000000000
0.00000000000000 0.00000000000000 13.51253951154775
PRIMCOORD
 96 1
Ni 1.236115772218392 7.88546935217739 3.6255899985856463 -1.1400559380695718 1.9438802310973553 0.12652938588351756
Ni 1.651444172079595 0.9821234277427429 4.949764328530357 -0.7376538678482973 0.9313278698991122 -0.617815263721394
Ni 8.018720470196257 1.3529978586951366 5.032488409987618 0.06673683920591733 -0.1354894232902828 0.06270123568396298
Ni 7.481570653979553 7.437809114493 7.877526725084503 -0.557057524917047 -0.6053634111112863 -0.35030097865066123
Ni 5.935781979343865 3.281755398191949 13.021750162843432 -0.42723712698708355 -0.7662429923398997 -0.5594183118397397
Ni 7.807178665501024 2.6641729802860348 3.3250571645421245 0.17373715391757175 2.108412064366575 -0.8110236389897
Ni 8.187359347888533 5.949132018604953 12.746608254094408 0.2102023387231412 0.8075575348179704 0.684411463584389
Ni 5.982580975896046 5.394514516162815 6.6644651596703035 -0.37640513193688074 -1.3225302147498257 1.6455546170727209
Ni 1.5810841103861295 1.7493721571711296 0.6904232234095133 -0.362765172555943 -1.2568079328513517 -0.3533842455616753
Ni 6.8958399894973965 6.534742661987252 4.869959529517326 1.7171408139511397 0.6980473092002687 -1.2503038131842465
Ni 8.430725208830632 5.370325648345352 10.492108833387823 0.7794294091231867 -2.7675930355189498 -0.8290712405200302
Ni 1.9443510500860084 6.530034141915914 5.514332503389922 1.039216757863307 -0.23242309779455456 0.2729948485693299
Ni 0.7347691733284508 8.013079478502949 12.131125282196775 -0.09121811217673323 -2.8059163565791807 0.6183048017633029
Ni 6.330069757160795 8.862053344542089 5.584975999526898 -0.9478461792691095 -0.6357749335236083 0.33810212259162414
Ni 3.6559811875480595 6.9181823788555095 9.396835975373907 1.8693534635333742 -0.7810291495101387 -0.4304000980960974
Ni 1.5896887000066924 0.5643715249036455 11.172613697752947 1.2345936015378416 1.360656589307902 1.1004966877197113
Ni 6.495855825633378 0.9753653165815284 0.0981117096982398 -2.4065217057256616 0.6676830950861147 1.0564752878334387
Ni 2.348203586322362 3.4379397786759207 7.680446539682886 -1.2631852971326052 -1.5918262743113296 -0.2808158872756454
Ni 0.38775124407083666 7.973638698611269 6.578525435976088 -0.9565275090931914 0.3047855107173654 -0.5698893865743927
Ni 3.523727167897241 5.402195866553703 7.0092377711213505 -0.19519480957071544 0.08298235453050223 0.542745222059433
Ni 3.9270996197341637 2.62931146697354 3.3969304153330255 -0.5502078489850654 0.7247703270174098 -2.038227890042006
Ni 1.3685544397151455 2.7184225174216867 10.042816308745367 0.4445015704944861 -0.07980601368504965 0.07012658161375664
Ni 8.075785886982414 0.5879288970880105 7.078300681697124 0.19491841598087722 -0.9068586811131544 2.4231078922191176
Ni 0.49790660952017546 6.663562231703683 9.058049647088067 0.20370413259330725 1.3851797712602467 -0.782243481533214
P 1.1080624910625905 5.787463597096717 11.453377210171457 -0.027671240663023313 0.4365064681041515 0.31386921818618846
P 8.276147264606294 8.39659305450958 4.887526002340335 1.935078830755642 -0.534911327837311 -0.07407990983454983
P 4.977025736504174 7.2676468920717605 7.5013778284129815 0.09806830232934723 -0.6006901740053332 0.9997225564234266
P 1.5179530118610127 6.196172371681156 2.220542681839172 0.8129923326802967 0.7808944237044875 -0.15728775011229687
P 0.704839603980875 2.1988234789610877 12.076967145744861 -0.3199444778459909 0.7616008655821981 1.309882444078828
P 6.620410030108713 1.8426008545836228 11.370504487198218 -0.1404421393098678 -0.33989083906093076 0.04551752481582483
P 0.1962917390994755 2.1557451365044935 7.473528317049861 1.2363643202850192 0.41055323857349935 0.374336165222994
P 7.780894044632202 4.162950313346716 0.6199920722953634 -0.5847994709170058 2.082178327481027 0.02116634966497
Ni 4.700811023770269 6.812840782749692 5.452282518002755 -1.6843291667377573 1.6647849260572423 -1.566160237003793
Ni 6.044945785860533 5.463452789442582 0.3814316715437172 0.7972684941871366 0.60464658754992 1.0543620981451778
Ni 7.713488348473693 7.360617082499945 10.607059503396089 -0.1910450490684 1.178373602702848 0.8227010753276283
Ni 1.2076153771983518 0.4043981706210908 8.875400614085487 -1.5673743119165522 1.051071600319364 -1.6609508970231333
Ni 3.3913808243234547 7.156996670395317 3.4307394359236922 0.9181244838349608 -0.2807732069631681 -0.7730260767000042
Ni 2.575486619883538 3.6929846158733985 1.4635834536255035 0.01150337265390922 1.0032136002958205 0.001685872342855161
Ni 8.756453241451961 6.808640044254675 1.8286110105363709 -0.523590246397537 0.9637155422011984 -0.6683706080714424
Ni 3.3409996595601372 5.139792812695723 11.272822083741776 1.0769854919716484 0.5024295531595219 0.9983727272637516
Ni 8.140828090712956 0.36379226282156335 12.324598371928055 1.70408140966402 0.16301668217627407 -2.0345573831689543
Ni 4.820702870135752 5.00123306910623 9.316369213833198 0.7616654002715463 -1.415734247008336 -0.06708213836047802
Ni 3.340094885115057 1.2059904761541251 7.254314394356037 0.09016010322586408 -0.5980241971373959 -0.5362680989755216
Ni 6.943119070449009 8.434879785364167 3.1856757380382215 0.6634652003500251 0.5718722213323765 -0.47568339541392907
Ni 2.006097289766614 8.275260954945807 0.8232690394065532 -1.8700147512664569 -0.8186590440477707 0.5310068505765823
Ni 8.395466702649378 2.023869644937841 9.656911543133878 -1.2299869560037655 -1.4580607756906891 -0.3046309874173721
Ni 8.315292607944476 5.529196654987675 6.7096106347621385 1.7550293614667969 0.0063372550719374724 -0.38334659625172046
Ni 8.170842598069662 3.3785847286001713 11.778137688080086 -0.8601473930995444 -0.5352661400735684 0.0072623379893681375
Ni 5.072802574190568 8.863382809032819 1.6868513197768271 0.2534122984517119 2.699735709555344 0.9408162690055217
Ni 4.109014677549154 1.9857306323600026 0.8059056792140719 0.5892230539059982 -0.8460862870207881 -0.38638101220267007
Ni 9.108281247096178 0.8462955490338556 2.9119113022198717 1.0478296963432985 -1.6423826471026421 -0.9242678777285372
Ni 4.3836968131618 0.8780771362761578 4.999477068091389 -3.0932679880908145 -0.5515481650630437 0.7088479993601986
Ni 9.02863339875219 4.114646436850165 8.526911964735001 0.4606406421481938 -0.11029158386841649 0.16374738969471156
Ni 0.22585385923364107 4.377335694869345 2.091660331855123 -0.12968901455842183 -0.8370969390379842 0.161756841627244
Ni 2.15864410768567 5.868376283185357 0.08933447434172788 0.47670669447212094 0.7836850990757471 -0.17715080758481103
Ni 6.687123296844967 7.763167851422458 0.40357464122822145 0.4533392233907741 -0.1743205372248675 1.0354192384940877
P 3.4581033234520038 0.09003798263473957 13.354469886151083 1.1491069925282469 0.7296525948103756 0.0994286730119836
P 2.8578131763178862 8.62868616445736 5.575922715640713 -0.3203401706225128 -1.6928384897603492 0.25637266663161656
P 1.4510550972788256 2.41849902126975 3.0823726541515244 0.45795435356528225 0.2332589634322886 -0.13757201685092438
P 5.677653523119276 1.6418147869140935 6.416172894198663 0.856835555117492 0.061557351887506884 2.0702566363427763
P 4.319245482538249 4.766517959746177 4.679878420715868 -1.003520332902962 -0.13683488157458368 0.6006991728663976
P 5.917788046757517 7.208578046157211 12.094709034021507 -0.5525010158946162 -0.28746398871978235 -1.528909837292767
P 3.4812581633322313 3.0738234588847417 9.817210800864508 1.2608756751628223 0.21692551637958768 -0.3680135654390759
P 7.774394440455295 8.997400215612316 9.280181928986893 -0.10051444987699462 1.1913826133680063 -0.1511628681614816
Ni 4.419149199581287 5.020630325321683 2.4971987029248615 0.4904824080999746 -0.07523896313965751 -0.25160635559122474
Ni 2.0508559276212157 4.945792553364298 9.440103581872584 -0.2995862259046131 0.551148872742096 -0.15820409127897916
Ni 0.6383045224159496 4.296506100311375 13.099461055283562 0.04067947999723317 -1.5766678214033363 0.3353021912489838
Ni 4.4329608584572116 1.765584238044207 11.4864014774169 -0.20499045550489858 -0.4013785140527668 0.5119207804794087
Ni 5.798533235460509 9.212690371580026 7.891593197987818 -0.5055156482840132 -0.33934782207326714 0.5621719633254769
Ni 5.925035474710458 3.2387232176968377 4.822868789368567 -0.7299282170692655 -0.12686928572143957 0.24051435944312125
Ni 0.4507189292523011 3.3288405989053294 5.557505016247944 -0.7701718950806606 0.260310568233442 0.1489532621046725
Ni 2.193210184444669 4.772038930339628 3.667546605378187 0.6883352241188274 -0.5548006105620703 0.2437074124591222
Ni 6.000805718289814 3.1588260947608386 1.9474679057253883 -0.48954344122547294 -1.0532701506325794 -0.4298298274149242
Ni 3.6396398531828273 0.40357925742436984 9.603050689713921 0.4242965563015209 0.3226572487914637 -0.34258766916680355
Ni 7.071200048781701 5.185502386956889 2.7633279503138066 0.1569493929362716 0.23606069454714185 -0.08757074523213305
Ni 3.504699207373657 7.549437969752898 11.738828931398253 0.46612043431584244 1.0008512707112311 1.0808254345430288
Ni 4.712988549209671 3.2755235333916484 7.50189114942468 0.8001681843324349 -0.16746237665245353 0.09340483541540688
Ni 2.853649367392056 3.245702906273174 12.527313086348371 -0.702516657825532 -0.7674272424559879 0.013384905947338238
Ni 7.382756359227531 3.169941895086115 7.005684223326335 -0.4057663587078173 -1.3383245014696048 -1.3614500317434748
Ni 5.623025457899458 1.7205393960284063 9.299302213433442 0.26104590373756975 1.93552388871286 0.5932614856414299
Ni 3.0578791173882696 0.32975335566270797 2.552978047464083 -1.0469300673471647 1.0540373678159074 0.8944739342955563
Ni 6.300027552627198 5.1175242824759835 11.460187022729531 -1.3638588982952835 0.5189679171341771 -0.8473674677260569
Ni 8.346756600891771 2.271925561166685 0.9143622844808104 0.8354087527022838 -1.7167728890887595 0.1044477234931298
Ni 0.1549924786384628 5.866926797594769 4.19146824991212 -2.2045880347692157 -0.744223293535699 0.09531850749835198
Ni 2.39707987114131 7.78778140928557 7.681986502717983 0.8931151062748167 0.22665328519031286 -0.6166240716267704
Ni 2.8199049735474664 3.1551885321959228 5.265269333161504 0.45351560106763833 0.05151822248394998 1.8873884666582141
Ni 5.934951064037158 8.9166998745465 10.596911257783509 -0.653841561217332 0.5558169676417266 0.3578253120521644
Ni 4.230596051704939 7.072538745664727 0.7392671948554231 -0.9107202209510896 -1.2089494186071759 -1.1467408062889155
P 2.2006607250281394 8.154999812888454 10.024007155919216 -2.0531508299004253 -1.0480767793570982 -0.09566792041797073
P 4.108746938172548 4.809190076941715 -0.006506990090743248 -1.0713223801486 -0.8875144722585876 0.030113531555928785
P 5.599990639119088 1.3453626702657313 3.498829252351389 2.9541242558773964 -0.5382151953995634 -3.869364476186026
P 6.816469112922312 4.458229916173392 8.575490043282764 -0.033841888250109455 1.013347346295713 0.8520697582977326
P 7.738295786575038 4.375793885355789 4.873500151963126 0.7803516638271399 0.7525022457150395 -0.43576573328338497
P 8.43005124419297 8.87349227859775 0.8061189474761266 1.4465532892717217 0.8421003057898466 1.1941388359569047
P 1.254035845666367 5.332786741266803 7.249896694642046 0.16047231848786558 0.7674020456450074 0.18339961670800026
P 5.5602267254970235 6.879812556470253 2.6075008634117185 0.00546282288678414 0.09150067641415854 0.009173696079468071
