# total energy = -340885.88974973233 ev
CRYSTAL
PRIMVEC
9.14286735125659 0.00000000000000 0.00000000000000
0.00000000000000 9.14286735125659 0.00000000000000
0.00000000000000 0.00000000000000 13.38151054376363
PRIMCOORD
 96 1
Ni 6.7959022991685725 2.0793531341914098 11.419259133521674 0.24538917103691932 0.9876054614449185 -0.7367177291872732
Ni 4.702258863613919 0.34323786158563874 5.884626329824066 0.7107742698486339 1.7884629585348941 -0.5131783070355935
Ni 2.8606202754521557 1.8504431692320145 5.06321560174592 1.3497173166875787 0.22315375667748663 -1.3686113253786043
Ni 3.5919033619765908 4.629161640709802 4.914801267792457 -0.4923284601697779 -0.22013733844866606 0.1622903455332108
Ni 3.5612473284059214 2.9222249143424546 2.893122253901417 0.3478977685258073 -1.2289873110946576 0.45119029536857136
Ni 5.272974917162482 4.4268665620385725 2.829519898537754 1.0524777366382712 0.31288757099920955 -0.9079120620783332
Ni 5.804321784741674 2.9450455107613007 13.368449839461118 0.44295505194297263 0.7407024248666341 0.9922023367869816
Ni 6.07654151141424 7.831624576219745 12.584788181292483 -2.0220080857490332 1.3163641951484297 -1.185034045442159
Ni 2.516811898956046 6.678837028116125 0.7072876316761731 -0.2537804804244081 -0.3650495977147455 -1.4368239777990996
Ni 0.45457604065220153 0.4621856489852968 0.19800981683568772 1.0450086819547357 -0.3147937868829869 -0.5571336295706211
Ni 8.4554972594074 0.22460001738253477 6.667364558410048 0.47801358620900253 -0.23684359545975336 0.5819270344652172
Ni 8.973157254855577 2.6099045723281176 0.9406264014854439 -0.3000387400609994 0.44031864276139004 1.488756662112649
Ni 7.091454622820663 1.0254182657675037 4.808860123207483 0.7108976828003757 -0.6367437251947808 -0.10092839748596168
Ni 0.6074978081130737 7.446353297175771 2.067189463728416 0.4616318024168695 0.5664160833138115 -0.3543756629406671
Ni 7.859665749784089 4.198468597639856 3.7956649565394804 -0.4220568683377247 -0.331249618446165 -0.18572492240706723
Ni 8.350646858874017 4.298500707182563 12.729911083070151 -1.9351199684062221 0.13698657666109954 -1.7086728856894444
Ni 8.217608998901808 7.644150085206749 8.875687890976412 0.9273462595435449 0.6537135202798999 0.1473110985155592
Ni 7.129772379067212 0.7433041282598112 0.05874292147078785 0.017762723300059728 0.8645555494695691 0.019400516013798847
Ni 1.8916317857652285 6.5927843624533935 9.45288623733786 0.05408726876270684 0.8147879911281388 -0.14557123300631702
Ni 0.2821013374936755 5.076704987946388 1.21768636202986 0.735669747538733 0.3791698391662115 0.8528868548823892
Ni 6.801205162118465 2.1606332231992393 6.99228102850381 -0.9534437279615451 0.5111245098303585 -0.025598931515026877
Ni 3.8490647864448944 4.404429966040235 0.30609953520208383 0.0778126374041047 -0.8826777129915766 0.6265189621429791
Ni 5.913899047594185 5.728947987915966 4.790928217856408 1.7959955194665131 -0.0747828494388454 0.747342555890971
Ni 5.263091477767941 2.966613534379914 9.195921384513392 0.9665226726326903 0.9208028019980724 0.09030614188542511
P 0.5581537540776119 6.044212333154208 12.260300511668289 0.07679190944907419 -1.0035324170878201 0.02232540297007768
P 4.302413854324897 6.3078469075682415 12.8636593438203 0.7974674975718201 0.9557641485646057 -0.2767764270989491
P 2.536725063619606 8.752101012782315 1.0533094963105052 -0.7057287370049266 1.2976054264836878 0.9095542256674466
P 7.070115170880926 7.965549294305987 5.595492298914775 -1.6156223482896628 0.8358052168097541 -0.36076022631077226
P 4.916247669376376 0.9197267214558604 12.713960437031563 0.8866251276750988 0.8245422423014251 0.3081683111466692
P 4.2185097624435866 6.499490546003912 8.100309670450194 -1.6243579283904477 2.787297713036729 1.3373742217411935
P 5.370072166348438 1.3666940680616824 3.677908484730117 -2.3475192590495246 -0.5967594714923594 -0.47642078780058594
P 0.33249499267852967 5.709894252764974 3.3877833670212256 -0.274922661719662 0.4468590149830692 1.0483832548539234
Ni 0.7714275876285495 0.7877137768917268 4.6216928325308935 0.09654209549280793 -1.580436287306833 -0.6504137664827058
Ni 1.9333872600620516 6.832217767508178 4.67428169011966 0.2513639005631155 0.3170229333238217 0.23430900196335774
Ni 6.299216040973935 6.198589645066153 9.116568611901831 -0.3888819242476529 -0.8751186696973962 -0.6260337949764444
Ni 0.11804995784503836 2.6331548835032486 10.116448106845311 -0.04323515653955135 -0.3296668473400774 0.3932646266963808
Ni 2.3352985573281004 5.64092960581491 7.041671711161763 0.22698624304969942 -0.3673126827173094 -0.2949001332828534
Ni 1.114789792207496 0.20183336387990305 9.040735843144944 -0.4063410002643647 0.5627810576643857 0.1677256576161692
Ni 1.8934877877976908 1.1441018243063825 11.447694364660396 -0.4182956015230796 1.2537046113356796 -1.3670550366350778
Ni 4.980119739321111 7.058960872951842 1.578750985994291 -0.5566551472723058 0.09670176099912377 -0.20143461983284022
Ni 5.703082816734509 7.965759580250551 7.428919678084644 1.374149481588014 0.4101212932424033 0.8309018659708658
Ni 5.507672317030983 2.9868284136595884 5.074335156779815 -0.5331226113680044 0.6292674714223937 -0.263395634916669
Ni 1.1842115825153081 7.911167520468128 7.248455937606091 -0.018310111163097498 -0.7888064794627124 -1.43928786595856
Ni 4.869052189122336 4.89672764800048 7.229695688490774 3.060807553569264 -0.8880433481788642 -1.7035250229399177
Ni 1.07841946666496 8.076205415482788 11.668087748864922 -0.3676973197502377 -1.4170287974500435 0.3058692306998474
Ni 4.702898864314768 0.409123190877902 10.614695966750023 0.8256868974288296 1.740947172342118 -1.0632815121219947
Ni 8.740398142823933 7.670289542402855 4.320127245150967 0.03298056869107868 -0.17584982938520038 0.01289433946416489
Ni 7.653548952642075 6.395527003584561 6.859830140602953 -0.3118935825170564 -0.951636242439161 -0.22439405684249097
Ni 2.370215166992993 5.437811669099732 2.696615524426009 0.593385927034436 -0.8997938038465729 -0.1828869387376399
Ni 2.8489814055638583 5.32174297056718 11.607242882235202 -1.8537255271881299 0.4730210180904176 -0.4951625871844633
Ni 1.2543830879298288 3.259166997605169 3.7962537571842616 -0.0595997139405038 0.7366907326040797 -0.642130443427991
Ni 1.5129707996743103 1.3118460079989187 2.224903922151932 0.6590971531893165 -0.10790225770063352 0.3568776034269144
Ni 1.110757787792147 3.648223423651307 8.287035360643197 0.7912577692166824 0.49455349284555467 -1.038396833065173
Ni 3.847044212803642 3.0185358769530817 7.02788883892562 -0.8940581869143763 -1.9189731834430304 0.03306052999939468
Ni 4.3193007299601565 7.193306162927213 5.647800470481883 -1.4214999458475195 -0.6075761024918892 -0.31915154963105036
Ni 8.333193125475146 7.6734255458370155 13.049635318906596 1.0501987107961073 -0.9770629100423819 0.10927599811970858
P 0.3038430755882332 5.873067002880016 7.95803751465145 0.5565402189609964 0.2805513207603491 0.6168842672666924
P 8.697984382091951 2.0083039135300105 7.991143836619655 1.0190636799541999 -0.3125754390754294 0.21201290956931873
P 2.338297417754936 3.3610002519774085 10.434058511795524 -1.0008594982413472 -0.19818731654013608 1.3328791620843174
P 4.2920641287054515 6.284825168071985 3.478122208806216 -0.7811440778214482 0.7736629389530547 0.8892219418679976
P 6.849927501187388 4.25973495044542 10.385002458075444 1.4533885670260003 -0.8446963486517969 -0.6966835960835227
P 6.601972943944155 8.157421504420533 10.304311169712397 0.6501813387569254 0.19493949902679975 0.15782356801110883
P 2.6473080418591675 8.813934223351488 5.433749493222772 -1.0324056484787447 -0.15416977330860543 1.002630988319473
P 7.191706161175089 4.335209318809833 1.528355502236006 -0.17409170904351307 -0.9864458939191786 -0.8928412837881397
Ni 2.9087208995545395 1.727398463060207 -0.03519912425998228 0.9726706945119571 -0.5974192165635452 2.290056903166998
Ni 1.7832248099085541 1.3314391723120547 7.132385410500107 -0.8884336416387474 0.4813807029090226 -1.0030570201132982
Ni 7.097095771855291 1.1965270245730746 9.223915015168528 -1.6541896670398997 -0.7139467540393446 -0.969065493659202
Ni 3.1167394130647907 1.8536523156034148 9.152256879554605 -0.41794181772808664 -0.653677524835642 0.33466661454751395
Ni 6.640162700050533 2.1978264067857243 2.1037737323623786 1.186043203432964 1.3372518372307163 0.8164342684823102
Ni 4.532868963833485 7.32331773387112 10.208874265201786 -1.1880833737914442 -1.261299135853486 -0.27208570649149916
Ni 7.478572761029945 6.208710799006724 11.233497101526805 0.12755705581708354 0.7615268178111531 0.5163052827003495
Ni 7.756771922821872 4.305431000486042 8.272302544509653 -0.4225410070629949 -0.7268056122798838 -0.3399731143620919
Ni 3.482737528146053 8.305901667017512 12.263912858481225 -0.07510603710621903 0.08042050734059698 1.8388162141764655
Ni 0.03840644205795152 5.083882138663053 10.103174492309703 0.49069529544172913 0.026966758396830978 0.557069351991589
Ni 8.953106947184692 2.633310312244883 5.590527722049617 -1.3733128446193317 -0.12957897134311877 1.5404139812776243
Ni 4.327657310539815 2.781525331694368 11.546088986695644 -1.2750265127419074 -0.09841720102833373 -0.6821645765317412
Ni 1.507091936093654 3.62622568527641 12.727341937399599 0.32110275982015024 -0.13588563028743694 -0.8280170882239031
Ni 3.3928174296767613 8.828955954087132 8.0085664842702 -0.03333718069954904 -1.4445753396097445 0.08762525261915233
Ni 6.095796389642641 8.130943761139692 3.5671627634551974 -0.3290107018133172 0.4731081784875852 0.568810294577601
Ni 3.4115603073444833 8.710683824570227 3.241001949141643 -0.07438818510358801 -0.2502187312150787 0.07787717209345298
Ni 3.396346576398586 4.737550330832166 9.259336311100375 1.0503604331849525 -0.11154114000480145 -0.7487697752558008
Ni 5.148247923434156 5.091580432807551 11.21553868186098 -0.2190641599891453 -0.08894962785753067 0.08958906121374248
Ni 8.276114205826566 0.13854643743308695 2.3822435230220935 0.6075197953326569 0.9941160088699266 0.9082059391696682
Ni 5.080380420542692 0.5588458691212443 1.624046578453525 -0.8613727808662133 -0.7745245156224015 -0.7434879580315712
Ni 6.3345715082622664 5.7023696730964195 0.017108133020410615 0.38603622726874165 -1.28695668852059 0.8604332997710794
Ni 8.605677995295206 0.3308447051570546 10.579770214217973 -0.6283945818991371 -0.9495472211206164 2.4928074135977845
Ni 0.2750887583858009 4.95039627820025 5.585750573961136 0.11308148790872782 1.2743130316146505 0.5069498096273785
Ni 7.288940553368371 6.279248019107444 2.498247307197846 0.5940901521903124 -0.11267808182272208 0.02167054299489816
P 8.456713260739013 2.087389714420643 3.3618770529375714 1.5590773620150826 -0.0728007860118101 0.15349485872876792
P 2.171604663785223 3.5289455787473543 1.4548111931280105 -1.2978859338385842 -0.3558100813943485 -0.3352196588375065
P 5.057971253145821 1.0321108445249536 8.183582904497811 0.5849383104877152 0.7678257634459873 -0.6249241068520334
P 8.894976597813287 2.195174975310778 12.182661112361576 -0.27613030887451795 -1.8569314357199376 0.5911215564802916
P 7.0053105284863815 8.087140284600151 1.2650061852772077 -1.6187673216765477 -0.8764489584730454 0.3895486112973743
P 1.8747631958642785 3.4546323545116246 6.140132895337317 0.4076707748193818 0.64452799712589 -0.5749441753894808
P 7.066951738845301 4.277965827552463 6.128035967804554 0.01948073443243097 -0.1078706331317497 -0.6823383831054443
P 2.573954818674711 8.536484776666269 10.279087827805219 1.5989315178975432 0.26839540212410556 -0.8382048273901823
