# total energy = -340877.9812955794 ev
CRYSTAL
PRIMVEC
9.16619066852969 0.00000000000000 0.00000000000000

0.00000000000000 9.16619066852969 0.00000000000000

0.00000000000000 0.00000000000000 13.41564657614353

PRIMCOORD
 96 1
Ni 8.999265142691481 5.959737993938765 11.069505212598804 -0.8223151527431193 0.6332501102192256 0.08779365987621655
Ni 2.275928471259837 7.354163077497684 8.127735487026431 -1.7798150530519088 -1.2406094687146183 1.554783362625419
Ni 8.672737933506923 4.310547807719329 5.055109223871069 1.7241735524282047 0.03556529869911939 0.6956710956586083
Ni 1.2977584370647897 8.458844874912147 3.783467097179034 -1.8662761101596312 -0.42290430393968453 -0.5490158855594932
Ni 2.8095382593933205 3.2006412816398115 13.242464364680144 -0.12187903159569977 -1.622258879769574 -1.2826089530748557
Ni 8.331636481204058 0.6356524054382332 0.7178722188639574 1.125471612497494 -1.2256291932557022 0.193024541392274
Ni 0.5473719067610471 5.111966187794683 9.031010410736533 0.4931900368391248 0.7054991374926236 -1.2452971039982748
Ni 7.811858474747004 7.320568988800455 4.4042088603024565 1.226782847244171 0.30952585361582824 -0.9726547536723571
Ni 7.491701768057555 2.831674609789994 13.345912159010075 0.27853660432316546 0.23435990980595123 -1.3575751221691006
Ni 5.235159790002259 0.6992309369584851 3.992737645833833 -0.3291850226076524 0.4172288508214621 0.032884666543162716
Ni 0.9668864535166601 3.760658865008416 7.015510831333946 -0.1284422866355143 -1.6517154944677943 0.20617419140035462
Ni 2.0671959779956324 6.784979303488635 1.9045254259377895 2.5315179427941046 0.5004096945160156 -0.006287118560292399
Ni 4.895350770579696 1.2015775986746042 6.533876093988975 -0.5339600196676352 0.47977864852922536 -0.07922520148091516
Ni 7.404494630304365 2.4912422894038815 3.842871345481628 -0.6600911416714697 -0.03367836608905168 1.2245200193519234
Ni 5.550779232324688 2.731084833701755 8.43993044052559 0.6623904792286076 0.008726067019088197 -1.3330614532984526
Ni 8.528636250448493 8.792439217080489 8.10570638106025 0.6951982697872479 -1.6118140302871662 -2.5661080220641486
Ni 3.913963403469852 5.128474497138123 0.7926490854896405 2.442350028278181 0.9468437061465242 0.6449509435959214
Ni 7.829741712686513 2.421258423864087 6.284277972992475 -0.6770768775961887 0.13104038637999366 0.8911844649110071
Ni 8.948383618446375 0.8143757071646863 4.673594953653548 -1.0433361793483193 -1.7141783888887059 -0.2093685299679362
Ni 9.095180161553095 8.287968748992979 11.348067579400045 -0.27594107568184734 1.0891925755608016 0.5256098479307271
Ni 6.074141219322155 9.00459986564422 0.15813603754801459 0.3294871272291035 0.5458269463085503 0.2079747349442031
Ni 3.6581075241231216 8.01092980307618 10.17489600552018 0.47665192997478556 -0.006448326728505024 0.7674089876235428
Ni 8.891883219338673 3.1526379412558034 10.931069151975235 -0.2782931208537917 0.3288736620148207 1.1688299248784708
Ni 0.05609891995764916 4.779572616600239 13.156589991046076 0.5684804220420081 -2.3492886922451217 -0.46602530349887483
P 0.7988692624582463 2.6141242411296814 4.798159817980934 -0.2179207904133215 1.5783382671272237 1.8665244787250113
P 7.6736964832235826 5.140005564963802 3.499994402051708 -1.8027536641259536 1.498184640294768 -1.4218704418130608
P 7.24955850990893 0.5712800818085186 11.87676428935025 0.5179507887235725 0.40931345262912733 -0.8055507888005868
P 6.9222338421386524 0.9697738035684003 7.73453615698047 -1.15072061687227 1.352237512006271 1.0371706739675557
P 5.349178035378749 6.602544611171866 9.918495654449405 0.4420153137375227 1.3867370884450376 -1.607247493962406
P 2.464669502737232 9.15696028646969 11.81046431582885 -1.027717498974456 0.3243099539035383 -0.10855634634486465
P 7.263051142531665 0.2930971952997931 3.354944934881056 0.46135283772387004 -0.7613869497991791 0.3323652201078469
P 2.8795587896956767 1.0524895079077723 7.293738632176809 0.08457643849049949 -0.13012301677204688 1.388287977871925
Ni 4.377946807498518 8.088549105419466 2.0018694539202473 1.0666116049364922 -1.1137401829931786 -1.4975110112665113
Ni 6.551938072645971 5.2010432284385235 1.463580325464817 0.4788036862104657 0.6431892237098085 -0.0777218774625113
Ni 3.4328575553248353 5.439428348424567 9.416201240019937 0.2029186605775344 0.974785941082747 0.3198557747869266
Ni 2.016708599948063 6.8033116847695245 11.323234535716953 0.5484641268210813 0.8800423322512586 -2.0515773147657184
Ni 5.255545397986608 4.114400494204455 3.1953248910683536 0.293259769465953 0.3556784409124906 -0.13870150246967727
Ni 1.9738199939414227 0.22858646219140788 1.1231150067923983 0.9242858754506663 1.0484411046750524 -1.318730124277445
Ni 1.8169039763676513 4.40270468841836 1.463620656703635 -1.1474126355449594 0.8694337034974768 1.8835338687988143
Ni 4.458260969890094 1.542147411920324 0.48826647627333203 -0.25998198124942967 -0.4143551288180929 0.2300430275981522
Ni 3.0606277196070195 3.2610006470071395 8.807573514446927 -1.3718725126283793 -1.068404692281173 -0.2940964064346354
Ni 6.593222595290533 1.6638927560067094 1.7877554901310373 -0.968039623497849 -0.8295481801564488 0.513650875796638
Ni 7.920752819555487 6.623736843932574 13.366290434041911 -2.844206767518947 1.0352585445465072 -1.271754269748539
Ni 5.336895339920553 5.666493222969661 7.653492365813915 0.11830108443645432 0.11700319156063721 -0.1406642826230029
Ni 1.2749621209420037 2.111019535447598 2.857224449581169 0.43053688078427793 -0.8954818067347803 -1.1678446781470662
Ni 4.4101476352184 8.088063297315523 7.978245000490484 1.4054963713304118 0.3523807439978254 -1.2273898847005507
Ni 5.480117068677501 6.561232589955382 3.867905128739746 -0.4604287832477038 -0.24683978744051682 0.7132808383205715
Ni 4.689322303554421 0.7892420124285873 11.656265157160908 0.579765250927208 0.09173361836057105 -0.3284502013241569
Ni 1.7964908698113813 0.455568841020738 9.299632043788211 -0.9206927587827692 -0.17617893058984496 -0.2771554077049227
Ni 5.3840645569562815 3.697311321492303 12.368702741594145 -0.7716477082952388 0.619754646835952 0.5515306815615468
Ni 6.7724307885018655 -0.046814485457942805 5.8529243744056645 0.5616428302948844 -0.8373139401447967 -0.8252330977208626
Ni 6.335350154002905 4.437582043805251 5.336905422730258 -1.4483864858257185 0.03607643400758302 0.10354320940098942
Ni 3.79393213703323 3.6674753709576557 6.517857259225734 0.5380694138503185 -0.3362013060244855 0.468341096116245
Ni 3.5149957896538595 2.7910042219183415 2.278567417545221 0.1538854092989672 -0.2951988954701948 0.19462479599985835
Ni 2.6538230127934472 4.080247267878158 4.365706276517268 -0.7079139175817034 -2.3774060193066284 0.24978524322208598
Ni 3.7452504985418287 7.9456298609536535 13.01653059806008 -0.2757482429447509 -0.153117163674375 0.03213364730975111
P 3.4375873096953047 0.6283964489272572 2.6783535721854053 -1.1972650402907123 1.7113722868984782 0.22683814750760933
P 0.7042695919535376 2.7154381462785158 0.7216441063125004 0.10480253572938725 -1.7318256696568237 -0.9710174751792503
P 0.41571882721140496 7.437685406613415 9.426517787585759 0.4367509800147898 -0.5476094921302698 0.14546144690133012
P 5.112781978761682 7.484506308404806 5.945666974686618 0.4888734117416419 -0.2144575144550694 0.0042358924582185115
P 0.763218280581301 2.680395799460096 9.121901440508118 1.1466323057355092 -0.7989451105586112 -0.454362779559282
P 4.637065850713247 2.717069728212515 4.734408045457577 0.14970093890397446 0.43078730623218714 0.3283488998596022
P 5.580890168578549 6.933095778047579 13.833678161274436 0.23807258277084806 -0.9609930010637128 -0.804351369175847
P 4.477812454526163 3.0039439966865107 10.428947978548871 -0.5963660927086826 -0.6215107102951103 0.3404145727748847
Ni 6.5904727380984 2.6021806947251824 10.753391712600855 1.1067979473473903 -3.5846322845751106 1.0128426387451526
Ni 2.6030698152173057 2.0297429230387753 11.04570519860089 -0.07188315929354717 0.10785032141677554 -0.3165578207619451
Ni 2.6479933155461244 1.4601741690228276 5.031176300108868 0.7396593283141003 0.22700064122740263 -0.40594787859100406
Ni 3.263677174674149 6.125600213577611 5.517882690735196 0.7587263722478804 -0.024453762166990144 0.5681279237985958
Ni 8.996671110740236 5.915575287433103 1.826459730110315 -0.992853082997103 1.087266305072366 0.6974130180503795
Ni 8.372187708597384 1.0066035575617067 9.768630270716264 0.07326924100779639 1.5826492357977517 1.7918323892277592
Ni 1.0409859386540146 5.80027377536695 3.710123822769517 0.2684967035886601 -0.12513430530820385 2.090980499153689
Ni 1.6204541785616424 4.3082470938685775 11.036462011959065 1.7503892915916244 0.14710746714518533 -0.4965139590060352
Ni 4.289878047825127 5.81347308988919 11.615790009149896 0.18748509963128357 0.10705739320183498 1.322383661869632
Ni 3.4293194057376235 8.13212517572414 4.048251762828622 1.994642292141571 -1.1507769240315022 0.6048373634044873
Ni 7.41613569241773 6.87333221507188 8.965421733608832 0.15593123608440243 -1.8528706353870024 1.0390563210260426
Ni 8.47516069425214 3.535638050976141 2.0584569318390322 -0.283550512597989 0.44191889736897444 0.27541014287904186
Ni 0.98172651616354 6.969302231077335 13.28216130310578 0.35542827257489756 1.2827449644320876 0.41893503487929135
Ni 4.187427535036877 0.9824323128428541 9.25600464281595 -0.4603297957759943 0.5736128581725669 -0.8357237128395414
Ni 0.8040930745042356 6.021123972657823 6.3718682575144365 -0.2871202322271184 0.9196550615468742 -0.35897793759936886
Ni 0.46605404649434257 1.401941359884083 12.27648353079876 0.8085828907586912 -0.08483509146852486 0.35294895779646956
Ni 6.002626599945405 4.530041408795416 9.894965126456322 -0.6732045391249761 2.602302212596518 0.2311439739718148
Ni 0.6991126930992234 1.181246987834098 6.811405431105037 1.0602571234733742 -0.03862439724041735 0.5302609735494932
Ni 6.392134705020459 7.60273183528526 11.67621445447077 -0.373278413382441 -0.26313749615927584 -0.5567497638686412
Ni 6.8675758473496815 7.568111133236302 2.1205982046668623 1.0784988432923812 1.037360935601491 -0.11863121408236343
Ni 7.428601711688734 6.761825505930871 6.626269462406529 -0.11714408801387567 0.4821507483058277 -0.1013001790030836
Ni 2.581941745791081 8.378219062038797 6.160733305683371 -0.8994670166347735 0.737239148908382 -0.09162228959368736
Ni 6.290435819864726 8.849489587626616 9.502651250426227 -0.5299840657390227 0.663233029734561 0.27381580180872844
Ni 7.873546937757197 3.467569919280199 8.84429144091442 -0.018601931371903444 0.30996782624925323 -1.9446595324655411
P 0.22315091114162422 8.086899191104186 6.0189295866185 -0.17464706732635082 0.6998239414847174 -0.4785835997798596
P 2.532288491091792 5.220924695937648 7.502043064338105 0.35234192034008993 -0.042460226046739775 -0.48254232731729146
P 7.468612133834275 4.721715621277753 11.679407038670838 -1.59841369772086 -1.3150138517681225 0.97358035081042
P 7.641917300273161 4.701540835678134 7.00879018035637 0.4169619703133206 -0.6488451364440051 1.4220491334827703
P 2.342951657222768 5.279432490795607 12.758386837529494 0.08678553032667634 0.08784842437355193 0.8999547549044695
P 5.57431800988935 3.372489023766867 1.1033756152482006 -1.2742132728119926 -0.376845304798093 -0.29217733503505167
P 0.4138846724642521 8.169202416864739 1.678337755836986 -1.9768998805564857 -0.8588793250203982 0.8434269950210701
P 3.4266703766425355 5.663532543392797 3.30620554938862 0.2960244766952837 1.57770294753607 -1.1427779649864254
