# total energy = -340888.05900655955 ev
CRYSTAL
PRIMVEC
9.10501897079996 0.00000000000000 0.00000000000000
0.00000000000000 9.10501897079996 0.00000000000000
0.00000000000000 0.00000000000000 13.32611561318908
PRIMCOORD
 96 1
Ni 5.12795570078954 3.274119240245338 9.801371562872747 0.8545254189270768 -0.06030933841301872 -0.29500323451962096
Ni 4.362961125096961 0.5467609322608843 6.566483117189195 -0.5410434088769779 0.19800682509821382 -1.495266952427341
Ni 2.8198334315639024 2.0695707763115876 4.923373212064946 0.1662094780819589 -1.058329567433358 -0.897446643770635
Ni 4.145515065792635 3.035868212952134 2.4919170894971 -1.2333458451736696 -2.2393079547489045 -0.5336980242555002
Ni 5.737218034695787 3.235896371266209 0.2292288641508938 -0.39165151657299 0.8119636343054661 1.536353952275638
Ni 5.077340901205219 4.857636797235142 3.081277673280769 0.7128344948117723 0.9110282391098116 -1.0448955534156392
Ni 5.272761919999657 4.913159201959947 11.667000843784214 0.09086432838174029 -0.009711827971125209 -0.013569768264634696
Ni 5.708309599962882 8.309613474983651 12.69329853340205 -0.22323268954453812 -0.27881454057490046 -0.04186424433395371
Ni 2.4760097111280106 5.59710090017463 11.925607051136907 -0.3909539762853331 -0.04867175417409037 -1.0634710024249814
Ni 1.0160108393623293 7.912315979055994 12.047834644693273 0.45350968753036736 -0.6788511958877922 -1.4683655000508067
Ni 7.983480806102415 0.1738566922365123 7.065986270302301 -0.5820638171533976 -0.20252245358038024 -0.5917329648120454
Ni 8.920214246655483 2.3877729738062525 1.5692964281049775 -0.8969000272385458 0.6913164182343384 0.3006822871822693
Ni 1.621157704764868 1.1419423545720326 2.7070268009738787 -0.03977265191224763 0.781985342775821 -0.03532978564954561
Ni 1.7313011173519393 6.619303152330148 0.6076361775461533 0.35572317810749704 0.33152241249157743 0.5388777686842268
Ni 7.724734381459993 3.985157474449038 3.9310308691083446 -0.7483740824792788 -0.31182544828328235 0.6567739043727786
Ni 7.7992862755050405 4.311071622878749 12.62107024015821 -0.1554887492303451 -1.491517769797554 -0.06113980473411406
Ni 6.874562354766995 1.1483978129108134 9.336516648352585 -0.6903188302077594 -1.123002325021395 0.24821969850717893
Ni 6.974854136997845 1.028703235588367 0.3272507651915347 0.5216544628274048 -0.18509011703654574 0.3171057228456151
Ni 1.8419999360866348 6.639853179792248 9.180774391045558 -0.37672086340508665 1.030796909230728 1.791896409696475
Ni -0.09828685708811406 5.151656064761116 1.397896269944351 -0.028170291786628904 -0.16942695657799206 0.41428416637084137
Ni 6.195018380639239 1.8548289075948752 6.954739329435031 1.126583357504434 2.0498744731419984 0.683989545555622
Ni 3.6702786088213046 4.7421942636986065 0.6653519813031331 -0.24212926933872495 -0.8485884846173515 0.10371187376836977
Ni 5.943674336292203 5.877353379254572 4.881755992072139 0.49798360157302624 -0.1355336462646569 2.6743175265925556
Ni 6.540817890157663 2.2162071043032205 11.591747863290525 -0.007813839617463963 0.018306254508355567 -0.2537005191160921
P 0.07403381847455852 5.894716650131942 12.425963344512839 2.142119741031666 1.1800425057648387 1.5396760746703355
P 4.242101105366385 6.537831443986831 12.798108225968164 0.12868037078824934 -0.17367030523537832 0.13885294044587698
P 2.2151053970267855 8.585823325710392 1.6353405925706779 1.5752295462949129 -1.1762215893568517 -1.1693875971541539
P 6.38319180445812 7.9232966317450915 5.997911112360539 0.4099361738147908 0.8166358429701548 -0.5478223794720243
P 4.74847672667993 1.3472423187791318 12.982248126452658 1.5187933176840553 -0.4564332889350655 -1.0192230883501994
P 3.824317317108324 6.416871269049306 8.259219927356499 0.648808883889431 -0.5698868154712314 1.4104490873499966
P 4.499882398014575 1.2127976109787937 3.994876171530582 1.2533971073975898 0.04843829800704561 -1.0999156184052605
P 0.10292677467548048 5.667209545038682 3.702208088796534 0.23731025068352676 0.14734246597412687 0.03225783159244122
Ni 1.0806018428253932 9.365149201015441 4.747282148211597 -1.8193732749605054 -0.28033611942574943 0.6340587221634499
Ni 1.5680117099503905 6.599700046824654 4.96696257913276 1.6910533728354684 0.817887713099385 -0.14293713781757963
Ni 8.220757596382573 7.074080632027514 9.642563645731212 1.4541228740888634 1.1522393675096414 -1.0002946268768127
Ni 8.46956134048064 2.6637734091002834 10.249768245385605 1.4458392939238325 -0.9339845907956689 0.9231008540036296
Ni 3.1147267808959733 4.67529058545691 5.013430953149406 0.25352105611543435 -1.1636725490472475 -0.08601317093702605
Ni 1.8385400289374996 1.4416067337623846 7.083696442396466 -0.8203593145683291 -0.849497626695182 0.5683755210330276
Ni 1.6517596729970865 1.4795564521771083 11.417002521217814 -1.0490846517963224 -0.5500566681191817 0.7747258329999303
Ni 4.275898935202146 6.841292616022418 1.745294620766428 -0.9454170010023266 1.345189089799922 0.6886386142918592
Ni 5.678144672633712 8.118225979523599 8.163991446087843 -0.03352769944380032 0.8045220904257564 0.4417373774857876
Ni 6.526295385150109 1.1263454573444842 4.810727740307922 0.10043603123057541 -1.2220412187941274 0.4189360633205559
Ni 0.4533425287323558 7.602071568004341 7.114852906274427 1.5023544554017416 -0.5953299381346844 0.6402867053510327
Ni 5.38130284927555 4.902160339233223 7.725082193178669 -0.4231626998073938 -0.4753820621234265 -1.0196187811267214
Ni 0.5967119759737 -0.014590792648655166 9.384063967098635 0.10812568656534925 -0.3413977626237604 -0.0263347812397869
Ni 4.52106977679362 0.739922995887689 10.753708274166534 0.02897941795148557 -0.7723349641702505 -0.3209112126346344
Ni 8.489301021268336 7.442761053824297 5.046706154905273 -1.8167288953591225 0.3284520010963698 -0.5450787552886162
Ni 7.26231779097809 6.3314388775221095 7.230283603286505 0.792786547156383 -0.38905213127692995 -0.24497188099384262
Ni 2.281644874515941 5.379317955174204 2.783372383725188 -0.7036284028324721 -0.40920906584077915 -0.5684140875804468
Ni 3.2724348117648385 4.660795395505797 9.577918922657148 -0.1561346103444601 0.16288272770157108 0.030000403016832204
Ni 0.9564913313783925 3.315474235696316 3.799195659699959 -0.29804047868404804 0.37857154346058025 0.6730695562090085
Ni 0.534284324980727 0.2699064462021461 0.5169511006654416 -0.3506809876978993 0.04048818992203349 -0.4414167609215753
Ni 2.2655563062724626 5.445220081346413 7.0975688490607345 0.32310590629310804 -0.12514330416926833 0.8251497939784369
Ni 4.9330718781051 3.2273558636191337 5.088723995725873 1.749975601092973 -0.10713658317920258 0.1292940931128483
Ni 4.304916630160813 7.105156061238035 6.36015519635805 -0.4925164078108679 0.2136041653158386 -1.7414181984412653
Ni 0.455662487526039 7.642616216780916 2.534760755524087 0.8427273978508841 -1.2288973224840125 0.8505677198309093
P 0.1813182551541865 5.663685902757853 8.269667936445005 -0.511597592812035 -0.12046055398161835 -0.3900054963291348
P 8.83737678549014 1.6240166806723113 8.35995148199604 -0.32783236523449993 0.6271722794562619 -1.0727537132784881
P 1.8601371335631534 3.663686575200321 11.06865815894101 0.6983028768545005 -0.7767341216792107 -1.8466400810962582
P 3.7754324710985707 6.404579493651063 4.121434112034654 0.8762872360842004 0.9078583260222622 -0.8130882348282127
P 7.13896299609261 4.3073840902592755 10.348354657592681 -2.2124129301302733 0.4601217935302463 0.485564401973067
P 6.28746163665284 8.224317658738657 10.439771777986 0.5383316663727697 0.3213884093813691 -0.12185177790219015
P 2.3654019425814505 8.478757409482288 6.109517701470942 0.11077957924842856 -0.05552862919492372 0.3936459212951995
P 7.095750576803676 4.133633016240999 1.8169228932704562 -1.068588783267521 -0.5602135540475255 -0.6867953904355333
Ni 2.7133775515963046 1.6872874564074156 0.2518703144344575 -0.965442037974002 -0.539452153130458 2.735403852380915
Ni 1.0125509322131943 3.311376977230235 8.509150872783676 0.16740915481701493 1.897457163748126 -0.6186683557503088
Ni 8.18259846253514 -0.027957870768774137 11.579581737151909 -1.198690202773013 0.6312526201732225 -0.48140461416842256
Ni 2.789723134347614 2.1336336886834677 9.462821469333644 1.0096452148537773 -0.7317395592463913 -0.10121867503287084
Ni 6.407829985367487 1.9521888737677733 2.5517516311319843 0.20805212514935784 1.228980112005806 0.17484941314514404
Ni 4.171974250464705 7.055943434550995 10.365919149385832 -0.9055751864150404 1.3199884221645781 0.8583843876618507
Ni 7.278315309033433 6.555868486256401 11.695332020324342 -1.066075272817048 -0.07177594429172154 -0.10736541136055702
Ni 7.560051906179976 3.815449028783962 8.130782710969315 0.6749896560498568 -0.0524402200775871 0.7061730236311967
Ni 3.258085302114741 8.606245882909102 12.840098751732324 -0.1757968646600779 -1.0000683697986197 -0.28163581207377947
Ni 0.17131639198754203 4.915781447378238 10.478510901531855 0.4229189592277039 0.8663077562739855 -0.1959255170891529
Ni 8.634507861306247 2.5967149455387575 6.116180754238671 -0.24347601317460646 -0.6292877831373679 -0.2502704103886206
Ni 3.732739037882007 2.93398305242892 12.002219410939453 0.6056158934417247 1.5538562228254593 -1.4740939178941517
Ni 1.286393478048422 3.5451483352671906 13.218533380184024 -0.4653123365922502 0.9199941900538479 -0.4111790450829564
Ni 2.9729616379695702 8.59545643561509 8.159607379529136 0.1958959494027981 -0.17265266260414136 1.7256023144549315
Ni 5.439565864663222 8.027430731915244 3.8177453145287297 0.48980286553444674 0.5481931325478817 0.44428585493925415
Ni 3.075857455581085 8.458198277001376 3.760296287822986 0.00029953351828980674 0.2938984314912164 -0.18709197795792296
Ni 3.6658262546214964 3.320217950498156 7.447286248174613 -0.4181737312332347 -0.9155837196909781 -0.4663618609026871
Ni 6.1257018724119625 6.144066695358818 9.513660252380776 -0.07673945894458396 -1.1878386047704899 0.3612471932495198
Ni 7.948235278275305 9.17804106439774 2.396182369182414 -0.24683027435882007 0.6086927325948355 0.8580288040946449
Ni 4.611528138705876 0.4994621805284451 1.5912049243740531 -0.5030908408926046 -0.9002730574758365 1.1661616340176886
Ni 6.162850349171096 5.862484883532104 0.6633297566246519 0.09808732849274075 -0.30698946034721963 -0.18808288111628252
Ni 8.078091056593633 7.3675627034434905 0.44732320079474214 0.22583901681913363 1.0941434918081738 0.6972726358177733
Ni 9.33091433027663 4.986117717712629 6.162808466084554 -2.0411905722147554 -0.37360674325613724 -0.8282798549669864
Ni 7.2124222878800355 6.355002666211482 3.0379942348450895 0.6090511443755189 0.2780987454547985 -1.5909847522466405
P 8.511307851740598 1.533348903327345 4.062599301465494 0.2782293574953918 0.7845317633467586 -0.9593171560231865
P 2.0426472356800285 3.125734748641511 1.921825457028469 0.2239644255042401 1.262073037905033 -0.3998759613653113
P 4.831723913691883 1.5599264532439907 8.534403642462957 -1.3184987249929292 -0.5286692035823412 -0.0920542349247834
P 8.821142536945645 1.9837559739942243 12.529134133692521 -1.1175461870028303 -0.3367011284790395 0.5945604069585116
P 6.223772030052315 8.06071868069745 1.721494101587904 0.6970792888600446 -0.6181654479719613 -0.7448938372401622
P 1.733832312582096 3.371834302151964 6.134744066595662 -0.44003042209701 1.049774221664179 1.0364211973960409
P 6.882847921887293 4.173968249584864 6.105612558901826 -0.6075149102366506 -0.1970622017967574 -0.3050930146554552
P 2.4499875673589897 8.718547184954977 10.493129919738832 0.2492759076858352 -0.1784481862399959 0.16118245718101273
