# total energy = -340888.4356893926 ev
CRYSTAL
PRIMVEC
9.10785785268830 0.00000000000000 0.00000000000000
0.00000000000000 9.10785785268830 0.00000000000000
0.00000000000000 0.00000000000000 13.33027060379280
PRIMCOORD
 96 1
Ni 6.776027651243337 2.3869054144071753 11.801968576540737 0.7152742146015165 -0.1335873211715635 -1.5632623466307076
Ni 4.6086216110027545 1.0030939242256267 5.956764908275123 0.0038227161801998675 -1.3905937431869664 0.27542299839484824
Ni 2.598007343636771 2.0209516860248655 4.572922451376888 1.3092340118615515 -1.3990380172995776 1.4349645559928577
Ni 3.2760964683702545 4.633986995112876 4.694614361672102 0.4191584637440071 0.7690989737314561 0.06961776029813815
Ni 3.8288705769560964 2.8407864024660108 2.46143410440169 -0.30591011124011186 0.09501074644994605 0.0829846685233474
Ni 5.08313189709011 4.873441685827145 2.758752837603726 -0.053441664758907964 0.27026562256362485 0.7548859154558677
Ni 5.5623145142541235 3.1394694927738622 0.3384288711761331 -0.47511646716686556 0.23371353447120397 0.5564720847272223
Ni 5.560374540532236 8.188492462218584 12.451406202052095 1.3592399114660334 -0.13760492697138885 0.5682479943162277
Ni 2.6987311435914743 5.3872523785339546 11.41883014196849 -0.7362963253791384 0.2598961064038427 0.19528994038768305
Ni 1.1337097136415228 0.08850651943573751 0.22180730534558843 -0.5180469479818046 0.14928416308153 0.008186392465534289
Ni 8.339646471084507 0.5185731915761755 6.7784029805704185 0.08929235590893009 0.4283144192116624 0.3286553753564275
Ni 9.095562241139712 2.373052362618487 1.3006266920871197 -0.876987604585335 1.5118518533692158 -0.28700067593011863
Ni 0.48997725028692873 0.23185054019594115 4.608301014406461 -0.06206128810711891 0.6777967864813488 0.4477087645778741
Ni 2.0367629272511394 6.676551627813979 0.371829207480852 0.47430297012663475 0.5359168862836899 0.06245620955269243
Ni 7.779094251895416 4.371343698314453 3.639510015198412 0.1605337678534203 -0.16324551035762855 0.36939527627795093
Ni 7.951214549530281 4.257905328802217 12.969806344329134 -0.4606157024475293 0.060777536298688886 -0.5572704122588015
Ni 7.814022886747237 7.999777647582408 8.577282322586282 0.3579291846198803 -0.5794765160421956 -0.8774205783576953
Ni 7.051594998329827 0.8428894370149171 0.4761497005002183 -0.10152052254400579 -0.2861622391892233 -0.12507054194980396
Ni 2.0958729246926824 6.874101064563912 9.057945877436582 0.014232084438981944 0.2704355724825859 1.5305828541198157
Ni 0.18531758365840859 5.125137337490787 1.5039477783561135 -0.1532521465903425 0.5003834692637704 0.5335239605714812
Ni 6.524687206035815 2.174437306500194 7.177710595182416 0.08798803527520975 0.8874602219818845 -0.27048622321486315
Ni 3.7848431921128887 4.67340580388437 0.6902818140362554 -0.5908839865481889 -0.5087187286023432 -0.9810967137921233
Ni 5.783926911441738 5.770629438981854 5.006036612753681 -0.46576613630021724 -0.3718059426019726 -0.8012053673476975
Ni 5.4848612911042185 3.0918080726488095 9.488513481758728 0.5590552720733661 -0.029521149387568515 0.09089441028872733
P 0.35208155009213815 5.953897754624184 12.536452646290906 0.12182349576741598 -0.7546678859077907 -0.15500152518128144
P 4.128919845941334 6.434628707622568 12.813189442325237 0.2034531929247657 0.6774553439815301 -1.3198889204722366
P 2.7537972521479563 8.956284878909193 1.6757083156059338 -0.36598702192735033 -1.042875951882449 -1.500109882341939
P 6.39633016536653 8.61314633443922 6.313628994523896 -0.08298929650903772 -0.8130514680530062 -0.0423974911296044
P 5.010223495006974 1.4003968993250075 12.571858532894026 -0.9454627666385975 -1.0923419198230608 0.4206329914070046
P 3.9155682758229755 6.285806310366048 8.027688677961393 1.6709781993521478 -0.08588692977180692 0.2621396510223808
P 4.830598322504338 1.4719573384464562 3.855194107711959 0.8041235694357571 0.44315302688639163 -0.4783681413349439
P -0.04383976297151343 6.236569230833077 3.7916221707100757 0.41212058306061927 0.03431882788652799 -0.4534675214385222
Ni 1.0953565242383894 8.014741858028703 2.7277196335540235 0.621744166462155 -1.377054828160267 -0.8438465990569919
Ni 1.7120131477787741 7.0494091124460105 4.988440231388956 0.3542388802524867 -0.0566534868279863 -1.2363265250685482
Ni 6.153942744424807 6.016605355916175 9.325657697128106 0.4289947331081386 -0.8097496573732829 0.28429407563223297
Ni 8.798299976656342 2.693129811014194 10.226476753207304 0.23214336177060663 0.5467759404853808 0.7321864169758229
Ni 2.1557206586200133 5.823436798791725 6.903707067288639 1.197308491934138 0.6793772435945912 -0.859040533188611
Ni 0.4055774639554118 0.4260054783254636 9.026992822535954 0.9708986902131989 0.3420657352250625 0.792042469901507
Ni 1.4146324811433637 1.1838940103908142 11.23608552815249 -0.022947867045424994 1.039648960304719 0.6604323270609723
Ni 4.413859178754688 6.95807551393387 1.636597352429744 -0.5262379684330293 1.9004118755010753 0.5787383523245904
Ni 5.349636925616609 8.02361291157386 8.305731540811305 -0.06663090975567235 0.9313265843475315 -0.6559236405573413
Ni 6.968340069729958 1.08342523045589 4.926788230821692 -0.7433833141329068 0.38955246795211623 -1.6223177580319672
Ni 0.8991067788035426 8.005825265194302 7.190241186011394 -0.38541839117908455 -0.4190965001578202 -0.10707590514459624
Ni 5.415268149278205 4.543591505959207 7.432158641488097 -0.5976495874067965 0.727937926112114 -0.30750059565568333
Ni 1.1503679856477758 7.713071390346303 11.348512925443462 -0.37270017228146785 -0.32139792246306587 0.28314093586439626
Ni 5.00918519921216 0.5457264481821034 10.482911223309904 -1.2741119713474378 -0.3787258096502574 1.3777492831241305
Ni 8.183829238999774 7.51898293957908 5.42350074198813 0.28312988012080265 0.39664305625031043 -1.5657118366124647
Ni 6.836339885920979 6.484157238606714 6.9213298614411265 0.06937144861528698 -0.6323034300352401 1.1620774366459856
Ni 2.542467626472129 5.629949466642551 2.5582524549106407 -0.7677103209140456 0.1638324932093501 0.9140012056952066
Ni 3.6966700202744334 4.384814220073474 9.196180389943365 -0.9396351042132269 1.800071746418416 0.3671892697655676
Ni 1.2344152978805272 3.5943159137647176 3.7120805157553414 -0.3151131178956186 1.780184520576186 -1.8277733260987425
Ni 1.5854412472479391 1.3924184158490764 2.5487748180327254 0.5405497570700111 -0.18147771709493907 0.20935567445212977
Ni 1.550503504538269 4.039353171851944 8.052949321706249 -1.648202339108213 -1.0794370388359347 2.132288613873857
Ni 5.125000719623048 3.2816613695161374 5.354876676237275 0.9250404942285037 -0.01284368873188756 -1.5050052627610275
Ni 4.115959364221871 7.537471891013029 6.102664593947823 0.47998973609876683 -0.4584482624825653 -0.7619412796407523
Ni 8.534008157587206 7.525076096480219 0.472755201879808 0.04781763370391119 0.19650041575601643 -0.006534972905040359
P 0.0760305757538538 6.282991982290635 8.310663445836667 0.031885278744370894 -0.8563753276516219 -0.9380230225311006
P 8.634659094679115 2.2460432849108884 8.090527432406413 -0.02568352080903319 -0.2719872332404219 0.004647526074340383
P 1.946422085244566 3.429044725232478 10.468421532257553 -0.6936023860550377 0.43244026845457784 -0.27100378628123006
P 4.052350085002805 6.7570559833433785 3.929004187722169 -0.25577308537440463 -1.6416375414065019 0.23231768256494184
P 7.049691456039337 4.295757586023642 10.440494107734441 1.719547366510103 -0.03560875034254512 -0.13939390055101153
P 6.5749352577900515 8.079717315925155 10.225504033989006 -0.7494773428457866 0.019346522847411843 1.6537749480999842
P 2.2285744135560535 9.102830311703404 5.8459632636102405 1.0276840746333593 0.27574875716538316 -0.7441806132232216
P 6.805473355669918 4.305411915343832 1.6694029456169077 1.5546887460290837 0.04958449579634686 -0.3843830079360348
Ni 2.9672945479919015 1.8485763683702214 0.2485042582732695 0.18249715949838893 0.5971096557429265 0.43453006110407105
Ni 1.4916758506900525 1.797463070120308 7.0834925380894225 -0.4953235382423598 -1.4003917031139945 0.0589944762563371
Ni 6.943247921355313 1.2365738601907963 9.42654088459517 1.807003440541243 -1.0691590539486941 -0.34370738459354355
Ni 3.085332385718002 1.9036151533531558 9.316325785975778 -1.5864017608616485 -0.6303067113201855 0.47956601829778694
Ni 6.524468617447433 2.20870106772902 2.483442332108584 0.20511541111853707 -0.015540775948076464 0.9011444043371964
Ni 4.311359346519383 7.130441723730664 10.433149531164817 -0.7895803815142595 0.14903322341298847 0.5627610030597276
Ni 7.580205960041646 6.648444778491236 11.563543073763434 -0.23542408940440743 -1.2143461641427151 -0.04392395507645984
Ni 7.7437193320089825 4.35778209797694 8.051936527913414 1.2430067653022012 -0.12062407614267612 0.7487936865152007
Ni 3.3236303784854178 8.891400499591235 12.396098735262607 -0.3670211196188195 -0.5458855674606277 -0.24051718765659863
Ni 0.2164364015718938 5.169884243104085 10.193070952187876 0.15387409644505756 -0.09336112666166502 0.6566877724168755
Ni 8.871754850210431 2.6972374549042 5.214188506825909 -0.6087199862883452 0.20088851752138306 3.1114755122377766
Ni 3.887169975049057 3.159351946458745 11.393462025501012 0.42884098113909375 -0.7925016689261125 1.080724133078474
Ni 1.319510013765941 3.5238757411587245 12.764667329633433 -0.6492912228424883 0.2611790868813244 -1.3722273248646368
Ni 3.1589147692819814 -0.11552589053128157 7.762642728262342 -0.25195911094495316 0.3219237130595488 1.6322679272661438
Ni 6.0252760365886475 7.994085236426636 3.786236694363822 -1.8338035914532222 0.6328261353079295 1.1420757967130784
Ni 3.4184522865538156 8.840933859248617 3.818696188952715 0.05315370120484394 0.06268889438878882 0.31329226263679594
Ni 3.745551893351284 2.8677092302683533 7.1822162524604325 -0.45813021702151424 0.15465571180608848 0.446098996888593
Ni 5.564518615853639 4.910392265121496 11.783172690297269 -0.8514544933112369 0.10806320875853002 0.1570614930341037
Ni 8.028093977635685 8.762087133847778 2.815806280742911 0.645393687560295 1.881775491346811 0.2901518199645906
Ni 4.730193297574358 0.5105792247419009 1.500255452784033 0.971576947227146 0.004684807070179029 0.12399196417364454
Ni 6.272089876445099 6.098275517250276 0.4773838152387898 -0.7444104698458406 -0.852276732102216 -2.702483190393494
Ni 8.049461012149992 9.010485740969997 11.638019848968208 0.2638507201762165 0.6099656857699882 -0.5006590915226604
Ni 0.08704106510779541 5.161787357476113 5.9859710760402685 -0.6505106970718861 0.13725602827240233 -0.6374376659380119
Ni 7.236703101257703 6.519951119954213 2.3930504860980553 2.7311844149829283 -4.259765665291684 4.217643282200336
P 8.623001036632093 1.8725027109401648 3.3641202713399823 -1.0408324390898591 -0.9720603146214678 -0.6634983675808057
P 1.8831315810502236 3.6987921511533055 1.483285692039336 1.137833990717589 -0.3470747584038797 1.0815000920125504
P 4.8968488804996815 1.2046508184292235 8.46916112048643 0.6402059727117684 0.4301077636666592 -2.3031443324785754
P 8.795631374306515 1.6926589498491473 12.66762310424982 -0.08810939134442244 0.35665314612093413 -1.3498386727567915
P 6.540471123688541 8.057011426307009 1.4986287893721595 -2.547822593491399 3.3139668554699058 -2.6672385082585874
P 1.9223500169490346 3.543475851250281 5.971321086689772 -0.5570289856719568 1.6411570022256572 -0.48029286916148245
P 7.122426808823336 4.2270843378404015 5.859626871955665 -0.42553377114273166 -0.27363248215332875 0.3561242702006576
P 2.661616622855837 8.850360492122576 10.214293171762382 0.04884144698273524 -0.43221426848670075 -0.6781857943896514
