# total energy = -381165.8594829941 ev
CRYSTAL
PRIMVEC
9.27998801830057 0.00000000000000 0.00000000000000
0.00000000000000 9.27998801830057 0.00000000000000
0.00000000000000 0.00000000000000 13.58220050034977
PRIMCOORD
 96 1
Ni 4.6244315011819355 1.2997922507721829 8.162033486099274 -0.6381442050867332 0.7794754318697736 0.451419637770558
Ni 5.043831282577569 4.962956186439521 13.256621663493487 -0.9964364294729872 0.026754128165392632 -1.0446163316123236
Ni 1.9496419762178625 2.0956811486704687 11.627898379143295 -0.4508923045121783 0.11945936641061362 -0.2559831445026817
Ni 1.6791117636399646 7.19953539416495 7.5192690315545 0.2206646717070458 -0.39002606515442506 0.7000504556732265
Ni 7.136245875443036 8.410035599608356 5.2780164218307775 0.2824583079750748 2.1036874051973964 -0.9576081437518797
Ni 4.154316584916028 3.926038158077262 1.3978529568400133 0.14049921780004837 -1.1259578081052932 0.773781723919106
Ni 4.210293473029018 7.744187174708632 2.7721811438911623 -1.2776624077028575 -0.8146915747595904 -0.31470225561044507
Ni 9.24851036281674 9.244055968537191 4.044684661708263 0.21967042611457654 -0.7349958614001599 -0.46223215500502973
Ni 6.132791484105883 2.4528214900213334 6.669417002957104 -1.555608943850508 -0.5376256414446806 0.4042650915719425
Ni 2.2227705854588304 1.605911217646055 4.372748944399376 -1.4392688397951663 0.9916919728094663 -0.13389456799933713
Ni 4.22128097891857 3.631212936699661 7.610637010217308 -0.3703668961626009 -0.27045845530072127 0.05504706157281488
Ni 0.7858163988336574 4.289414651419494 3.3914078366637557 -0.6192543101607658 -0.3083593441115528 -0.35589055692329674
Ni 2.1404663711560934 4.734417919934448 7.824298527827499 -0.5486389618360487 0.09852441603015935 1.2290176501119607
Ni 0.23218066182741198 0.944220227407243 1.6926549782474078 0.017166741587273663 1.6249528816619694 0.04917723305559918
Ni 0.529249784323335 3.1440785222906467 6.946100775632436 -0.873530756384986 0.0254390088983949 -0.4701534667346355
Ni 2.9803331325768365 5.146857710268287 5.726323366103063 0.22723846826982155 1.1374588667663572 -0.888267034153896
Ni 4.882804929371899 0.6075431877768617 10.42527595558303 -0.4537495714553153 0.49017053328651067 -1.2714372527287523
Ni 2.2338787311934536 9.165992708788108 2.5206387149286473 -0.5582582300933675 -0.04610887854292059 -0.9419514110512295
Ni 7.55060662330993 4.818708051686816 9.790892258275466 1.4017757279457148 0.5737007899006829 1.01637327760623
Ni 3.2511881447376174 2.555421038260261 9.602914963680915 0.13921263777814089 -1.1622887813258433 0.3418132528946242
Ni 0.20330969090428158 7.5119647529348486 11.650635277943962 -0.4744027289292926 0.5618616311739099 -0.8056621175674704
Ni 7.772212738717457 6.857762713078527 6.727779776006076 -0.09920575836790012 0.8125912405871359 2.0758469859463604
Ni 6.512574996377785 1.587221321648117 4.202726570746635 0.3216555469998267 -0.35397122841339684 0.8604862644962019
Ni 9.331677616011138 2.1103249698644837 4.142163512523327 -1.5861865595270488 1.8158778602127372 -0.27999441981561457
P 7.624753728088244 3.5991598578630786 6.026395492742449 1.5697857495715222 0.7490790789661035 -0.9496050709417454
Ni 4.810903581709524 7.298729186777641 12.802093415210765 0.5333408980263976 -0.6495974412289974 -1.385760069243749
P 8.881208434515655 3.916266330626503 1.1852725578414218 0.41320764547721095 -0.3236694921060619 -0.3053318701391387
Ni 6.743182700225231 4.706698595532342 1.126743673005774 0.8948775974918782 0.5767112945922326 0.9553478869627935
P 2.646123641777563 0.752407513738237 13.317415793420045 0.1528464265114916 0.034088971263909036 -0.37857591433595444
P 5.33660562658896 8.474865596351947 4.200485453624737 2.2353767380152987 2.19545470500938 0.8644125961338015
P 8.441661798993149 2.770744601736008 10.421038713024611 -0.19085761564794226 0.8241054118743226 0.9756207782792164
Ni 2.1931303035236693 2.3485144239752445 2.0655815073252297 -0.0656412921488934 -1.3342798990865858 1.407616502997208
Ni 5.536552249812184 5.376658055152565 11.151502766943223 0.8161375631774976 0.41935798134932295 -1.0303539081560384
Ni 8.475478075565386 6.121516298585776 13.215033396902246 1.0608147957490568 -1.7824347500629432 1.1312733067809355
Ni 8.774664891341711 2.319533021193934 12.67592826523541 1.6773391085731695 -0.6402496814655102 0.31335988264993775
Ni 2.2229005052919835 5.262922521214767 0.48149589365015294 0.32625859298947685 0.9688497781039701 -0.011876696832927932
Ni 8.84309552346127 5.282586815961356 5.578182276349795 1.6468692221190864 -1.8997842692194058 1.0324925517655958
Ni 6.576087234813676 6.196888361790966 4.862671995227148 0.4002775676791042 0.14779600857177772 1.5630016367701534
Ni 7.534839923557946 4.478290248860422 3.8197358945934585 0.13641861997277152 -0.8145959297219907 -0.5574413906190271
Ni 6.412750164575492 0.18480353867037502 7.3754199362893385 0.43670495726820274 -1.0603162588460835 0.25389155208097564
Ni 8.32443698953637 7.637922031177159 9.107178000319522 -0.8425155389503942 -1.2387991549787567 0.9344103654791778
Ni 8.921659902566804 6.9503213142123075 4.179229640922018 0.474857299968208 0.627962379457725 -0.8645336950926981
Ni 8.24467549196821 1.30090584934207 6.156431325746969 -0.056886685884714926 0.8090264060540131 -1.246481354114363
Ni 1.6993792576119093 3.0947925055850614 0.16002411449277132 -1.37425335415573 -0.04610887854292059 -1.1984595748194455
Ni 3.231700169764594 7.605943192245235 0.7498638690048534 0.005811721585770636 0.7301655298910522 -0.2229421548873128
Ni 1.6913706278968048 0.8959531533931046 6.785653493683107 0.8518201041807716 0.9358316713067367 0.8605536273990276
Ni 5.424802633324017 7.613172302961418 10.097320248752482 -0.11522450239365963 -0.7295158121221953 -1.042895235156159
Ni 0.19808969760793596 8.574059388964638 6.328001601411852 -0.36439833728399185 -1.8100869645625728 -1.6042611576405728
Ni 4.264442203489776 1.0233414057977188 3.539236190818647 -0.04777932426680803 -0.7991412857298172 -0.40892444472082473
Ni 5.152481383046217 4.533914497426281 5.579446210726617 0.9897479617092179 -1.3265833017732764 0.6218878911288709
Ni 4.04807000136072 1.7447119993943954 5.732625406009815 0.5332149139714945 0.22183118121132117 1.5154200303364482
Ni 5.849241448248389 2.3429557111138917 0.2481608013052914 1.797692447552962 0.3766141626238933 0.6682505375538104
Ni 4.60307824860435 7.189336687262402 5.636395641590641 -0.522712471778274 -1.4863830196741497 0.7610714754412894
Ni 2.734023688893982 8.658590800407149 4.743067796826046 0.5485235193041069 0.11058237563595795 0.25878230451437373
Ni 6.801461025382654 1.5124153377159535 11.468103480356158 -0.5321345364231224 2.1020056466195993 0.747730535358009
Ni 2.1259895897475616 9.015183622461151 10.976821839273123 -0.028907684173285698 1.183113945601311 2.8211138902552255
P 5.888440117908413 7.378629884167038 7.8590279552270434 -0.1863245036642791 -0.4551060854832098 -0.10363962576953764
Ni 8.741006374566874 0.37811961040872843 8.162563373418777 1.297576115907649 1.2372675488255789 0.6438579676420588
P 1.8268491739116488 6.905935131214226 5.373988202581261 -1.7876905991452436 -0.005114952629062158 -0.3483549106678839
Ni 8.780631923678689 0.5716732498419911 10.541757437994411 3.035721557134914 -0.22795734871371706 1.4180322990138934
P 7.025637697489003 0.38549998493065496 0.12631919777752282 -0.5418885304860925 3.0124235058389215 0.18883749989411994
P 6.993380458914607 0.41607476166571256 9.587267975775193 -2.1378519668942473 -1.1178950857018168 -1.3211055664881568
P 5.055217827954664 6.3812538850238525 1.3422528362431685 0.3434898692660988 -0.6436314534535497 -0.7163610199077921
Ni 9.113764935860404 5.453626276307927 8.058319411291649 -0.50296562816865 -0.9683903219690483 -1.5443999625085658
Ni 9.153177045246323 5.969343054010708 2.002002452975144 -0.6834033340348488 -1.0575461523001142 0.331055757267804
Ni 0.7294052072784115 6.015223315090056 9.929023024884259 1.4503076141078313 0.16320385848641572 0.1882073225092888
Ni 5.947321642291192 9.301981654147482 1.9889770617026985 1.8296666864667135 -0.3639998162939925 0.5956613533321742
Ni 7.847853921577035 2.8192974993830844 8.253373624797835 0.44080560970013766 0.17838827953633796 0.5835769113638144
Ni 3.63155629625871 4.748263662153376 10.004907343431597 -0.6248523730738336 0.6516561235302389 -0.19397919199605948
Ni 5.827479876195179 3.399853553817541 9.470963741136188 -1.5688848350238076 -1.1891897194817456 0.42812801423246916
Ni 7.2276815980188465 3.87602830230125 12.497471310414582 -0.9190050866677012 1.6395338647999376 -1.089882916759607
Ni 6.96476097566851 7.64697001955749 0.22062893266245015 -1.6263867858950185 -2.4435368494974306 2.343638950158512
Ni 4.811608860803786 5.327808197886853 3.5411515803588527 0.3919988726100797 0.91868704120665 -1.823277752221234
Ni 6.9150109595588045 8.459173136504623 11.750573325600863 0.45805976879489496 -0.4211631528788617 -2.159137872856217
Ni 8.551824537519225 8.221688961488123 1.788449511225518 -0.5988433506045816 0.013440698885938143 1.650957790366163
Ni 1.0138943779298437 3.2495734268112813 9.353871635508987 -0.8484547872529645 0.18976104014965384 0.5378809519885962
Ni 8.94181603668176 9.182613167443671 13.111550393797874 1.209947006633755 0.4056650572432627 0.16860034691163864
Ni 2.888693250263213 7.399519137340503 9.67878443424732 0.4614636522701214 -0.9752456543279849 -0.9419850925026422
Ni 6.706675227109099 6.797749030149697 2.7537501595607234 0.31902633690709575 0.7451339782754264 -1.3411905101634902
Ni 0.7876306365037649 4.767816597042977 11.851189740386584 -0.3132436687870476 -1.0039538208959549 0.27334631837147766
Ni 2.2178336317989977 6.368150541851514 3.2333380876611364 -0.23713772966140448 -0.12448664442187593 0.013992457624350094
Ni 6.350128804995508 5.062140699064129 7.6902416759868775 0.6370494293606577 -0.2615526681706592 -0.4032147959305572
Ni 4.975168650755949 0.33575368081618323 12.65550022746964 -1.0590767300120276 0.3119848566792821 1.091662377257533
Ni 4.1987677278306865 1.154894516853711 1.2545671568514527 -2.341188688845807 0.3526357974314249 -0.848647362879745
Ni 4.18454150610038 6.038024245808494 8.055684822675058 -0.2054915635110332 0.8432475320204122 -0.5865257095794931
Ni 2.3202754202405247 6.837003379738216 12.02877716032409 1.0102931328504212 -1.0047094681150568 0.22298252120694503
Ni 7.363141584057525 2.7260892990835366 2.32198572204411 0.3794171792903272 -1.1555979995692292 -0.7004453771188002
Ni 3.7153917085950408 8.745228769144362 7.044965128668201 -0.40921497937805 0.06556827281911289 1.1571337194874654
P 1.8486757058814351 0.11455031689143301 9.02450258649349 -0.42130584910431307 0.13469160997933577 -2.450357729074006
Ni 4.365222874064556 2.816949662398239 12.223464814301021 -0.03268797715132435 -0.47716512216577817 -1.3194191799246695
P 2.372930072620018 3.1782195984457675 5.992235856611162 0.6474765382312526 -1.2799771718789634 -0.16826301817687797
Ni 3.0625631069749133 3.896100916523465 3.4213970461508145 -1.0037985262650133 0.15521466963335204 1.993869932751921
P 7.6025745565713265 6.374637253521106 11.350672655163951 -0.8499298291365943 -0.3188167919994509 -1.2141451038755025
P 5.0430517635786485 3.0340271436215573 3.3671629397996976 1.2760570108889506 0.5644659015659762 -0.2577039838485304
P 2.882587018104999 4.305840230325328 12.015847352928894 -0.2574802978734985 0.7057544480365394 0.6304072414537918
Ni 1.0677647087481303 7.386462194108576 0.7409643604338392 -0.4205962246317982 0.7181204258010601 -1.183474157154207
