# total energy = -340864.8318759679 ev
CRYSTAL
PRIMVEC
9.27094043963440 0.00000000000000 0.00000000000000
0.00000000000000 9.27094043963440 0.00000000000000
0.00000000000000 0.00000000000000 13.56895845442451
PRIMCOORD
 96 1
Ni 0.3850508868560441 0.13475589724144496 2.84311738016102 0.5434517612081543 -1.594880744866937 -0.33477665776281695
Ni 8.866282212176587 2.0500459249834373 3.5553388199510163 0.8181011146617716 2.7553106186071705 0.9552316730999034
Ni 1.6269387556573784 1.0671964695092095 11.991444770891052 2.2614119857367956 1.3707337710382457 0.5852216460560888
Ni 1.881861798625051 0.6625032416292134 6.688614378443673 0.3525895175745218 -1.622823236913476 1.1668195793166614
Ni 4.284796791780344 0.5102363925182066 7.390876047165547 -0.8842257742049868 0.9722436342768677 -0.3699249235291758
Ni 2.0314020642201545 6.001218662349311 5.416986260541128 0.8214522905221916 -1.7208313754288493 0.1333960310963638
Ni 4.741613099711722 6.704428748254716 2.5459846735090355 -0.19822922552166505 -0.3871819108374106 0.48057543339890785
Ni 1.6547330344084088 3.052243832676945 10.878681630247316 -0.5649225294874206 1.9840665735082543 -1.4229716452970396
Ni 1.057146770321045 2.882724690928249 1.8328676608947072 -0.30206888311715074 -1.2200676400075245 1.8638556736435965
Ni 7.492607001189206 7.1139539901724165 3.040437290318894 -0.13921160933687637 0.8846530915503925 1.2684511735172348
Ni 6.694777699495603 1.652359673714525 10.331540406033234 0.44780620938768684 0.3597251001780385 0.2547438727789419
Ni 7.754279288630111 6.279523016527824 9.90468777686214 -0.18517830587497786 -2.0896370977519174 0.2924041063338771
Ni 1.9846857964995266 5.1542997322411965 1.1570346614308604 -0.9040551502260882 0.35581830892446464 1.7162910643563345
Ni 0.6310784626917575 0.9622865100873749 0.38660006096521593 -0.9520764153003731 -0.9334330891675731 1.7020839196180169
Ni 7.486228594324394 8.675022715634308 9.827453428156643 0.1254857751103516 0.09459371351718547 -0.771611969961297
Ni 4.035019120629489 7.1476538578375255 11.295574488350287 0.5643972531115699 -2.7558963159073118 1.0315633550831071
Ni 0.8393640409305914 6.445723161681166 3.192844130627079 -0.11941257233307821 -0.5400481348432441 0.2908858699171377
Ni 9.001276372581444 8.915483091873627 7.34289615029423 0.8031097834592621 0.534493523573602 0.8383930321415884
Ni 7.798677821298118 9.137587006496187 12.692674583967497 1.3011916011730493 1.4205460665746825 1.2607417206881188
Ni 2.9063470465845613 8.527911436374351 8.701176037968082 -0.8223215805010226 0.4890078804369772 0.8411520829439643
Ni 7.86865487800685 1.835655432616 1.6174879592068112 -0.12635660775107915 -0.5196675143043631 -1.4320543243245982
Ni 0.5627043515454185 3.5982836691940188 13.210127476345546 -0.17856902808857633 -0.20917004080388496 -0.259852654760417
Ni 3.686719167861824 9.304686432849946 11.270457657132043 -0.023135814686514995 1.6788033518235217 -0.6269017994036945
Ni 0.26570885480854944 5.476854284044348 11.616832962712012 1.2343151510654742 -0.4707407066966731 -0.7296957893434852
P 4.2704639182149355 7.883349318240466 0.8338635921037114 -0.501524010626117 0.04385530662205351 -0.4619413632374883
P 5.872463844706112 5.27451601395054 8.619924590869381 0.46407666441293627 -0.6067173540360196 -0.21912560935470005
P 5.1088721252098255 8.302321648232649 9.648478854487273 0.811161450119145 1.2131125488459302 0.3398795262070211
P 7.694759852478805 1.1988994461393419 8.10012522352406 -0.5013607455753752 1.4160908590168064 1.8956267954076065
P 5.77392302120888 5.6026424008201925 12.515695116631425 1.3033117328398458 0.7706395787456986 -0.45566889996521526
P 8.200851207628904 6.069119028450894 4.665672974259606 0.8965639840553655 -1.3599785894042706 1.881706071561456
P 6.208591052977413 3.1262537483772372 1.7750503693660462 -0.4067235804147641 -0.34278050190389997 0.7766171364853722
P 2.4623524489642823 1.0295008266133825 2.7812292187859353 -0.01799489391552385 -0.6948637692659646 0.12711816850745203
Ni 6.965479882701519 0.5299148902089795 4.164489654856937 -0.06789897783481856 0.4161847258276639 -0.9059809064938913
Ni 0.21147849004732455 2.2266758778735745 7.164301685173491 0.41415663965404154 -0.11946296595503944 0.1207433753293598
Ni 1.505647044883619 4.360846314326942 8.529405911936282 -0.9353092231443633 0.2595204682319789 -0.11839467259152511
Ni 2.3550320450877225 1.8568209891165341 4.858337945337796 -0.8261381260336352 -0.5078003305531319 0.05352856804575943
Ni 4.740166833038885 7.399721451220368 6.761384769437824 -0.8637384528849125 -1.12218445710579 0.3979576612966759
Ni 9.202474317029361 1.4484638856653549 9.680814039753399 0.00867644472807538 1.5118932481301124 -0.008618080686314191
Ni 9.320910578218292 5.903132114922393 6.750868741957072 -0.34373772361084676 -0.4692679788058886 0.20432916777181584
Ni 5.597775157209687 2.7418898381907897 7.433088492131922 -1.1875786662408838 0.8715628340253377 0.6057213086713374
Ni 1.843248332648386 6.963217773290161 10.464489397027656 -0.0425260462876687 -1.1310858733604778 -1.9080933033057335
Ni 4.499669373038726 9.051126218093215 2.9712760763486847 0.5238527560303042 0.14604740131178717 -0.16266932613918436
Ni 2.730727626177367 8.584176772511778 4.78392659792639 1.9327036456552458 0.36069723428332073 -0.42860701075141666
Ni 6.478041659254913 5.484790208864522 6.391236918970133 0.16928708856601812 -0.7439219602451963 -0.15233503409271185
Ni 6.359568314305141 9.114659971355659 7.304821325943793 0.04294385055137766 0.1962224795042814 0.04620375224957204
Ni 7.7634111647374375 4.02929895051962 12.128287556773877 0.2950256031171241 -0.13739306807089885 -0.26004908704193924
Ni 6.765385180138647 7.280070696863865 0.8541317215918711 -2.008792101279392 0.87074779432321 -1.2543427591403107
Ni 6.0167011325008195 8.43513713768804 11.710729972257813 -2.3087387958472174 -0.12160469488839058 -0.48285368791012334
Ni 8.694352625973167 4.362005181853252 2.8680571364212426 -0.30870901414148766 0.6016911044660218 0.01319901518877727
Ni 4.8513346771027965 0.9601263810183323 5.014503224807312 -0.9757457338928549 0.860970146111156 0.9078164170407333
Ni 7.776279229749589 3.7570763331191848 7.847769303900671 0.2028027038249604 0.9193300741072878 1.1393211167860764
Ni 4.142098480060577 6.5792803263533965 8.969095084922811 -0.3529101341387342 -0.996291933475323 -0.32979308850529654
Ni 5.865668245531827 0.21357743091097808 0.8238435599242205 -0.8735700942633536 1.192963584701881 -1.236547897050735
Ni 4.287262861876331 1.8802486550284268 1.8539673937197474 0.14326186814685002 -0.5187596577781131 -1.8096665891957024
Ni 6.382022531494932 5.241251880475324 3.373229741396483 -0.6647512661513003 -1.124177833386735 0.9812496944302197
Ni 7.652438010417947 8.186824275090443 5.578497164136008 -1.0804953048971198 -1.736048706599236 -0.902447439419336
P 5.030050591540292 3.1506455920710197 5.2212804210738994 0.9375545675351143 0.6585147983232853 1.9966156138178581
P -0.39094905901795385 5.302996342277146 0.854799229287026 1.8100093172471021 0.33581564055029267 -0.5138946163763279
P 2.5572497929587947 3.1445082296516795 0.47628806365545706 2.6971810614542906 -0.09660611596152395 -1.6021299702301826
P 3.009319379502405 5.675252404548702 3.406785909488329 -0.9947281885326287 0.03500582665122358 -1.5820182870819721
P 5.632717330863001 1.3123572124352425 12.29249908525207 -0.4327400590831838 -0.04597672384043049 -0.11845123686107342
P 5.2321107334277865 8.000849214468138 4.864118376559033 0.7348847897435924 0.5383928586280083 -1.8058037638061868
P 1.612466817988813 3.7101931884747685 6.344139615606854 0.8434686468922828 0.8740038393666625 -0.24302786989359434
P 0.07842659161656654 7.13816041506199 8.703998112168154 1.1997844642784563 -0.09599213652660887 1.0757274511948312
Ni 1.663169589999949 3.984696457166983 3.9976182936323554 -0.7057693604348748 0.7672076702460142 -0.116666891267141
Ni 8.922797863699698 3.785649370847896 5.315992346264202 -0.7478086968941122 1.155047783492714 0.1950791099284576
Ni 8.949804112532837 7.572281461358103 1.3778601133983945 2.6345759850285595 -0.05525172138445324 -2.0820639133903502
Ni 3.718805891930308 4.3117937696732715 9.584623399599524 0.04167963912697338 -0.594597430844034 1.7697301580120812
Ni 2.223273442816327 6.827296518864259 13.080380668099824 -0.6770431961447758 1.7696160010317201 -0.11773235641717789
Ni 7.280710391738388 2.063748374614532 6.148773092551329 0.27587422699965386 -0.710678367700718 -1.7598311537308144
Ni 7.46700993526806 7.150444410840882 7.7607652384013655 -1.3754717999438635 -1.0850063053935959 -0.3078245546540054
Ni 3.741927616815255 3.1163153004715984 3.591363839420914 0.5238311587637494 0.703956218485536 1.194331154473369
Ni 7.6668265096246175 6.769955753662416 12.142684399826736 -0.27830880458307555 -0.30498605676394575 1.0235001184589985
Ni 0.675851541344268 7.823496128241582 5.271607720006511 -1.3907444098322177 1.12776709339989 -0.2678403009515839
Ni 4.403205240148642 4.282571766129827 1.8092981495975944 -0.49976871849790694 1.6591251566683036 -0.3985862960196103
Ni 5.876459619936831 4.00915319744224 10.848721659863115 -0.9468308506307177 0.46785798583223936 -1.4967972730289383
Ni 2.415599097482813 8.032824687254097 2.337700949458244 -0.0266944785720508 -0.49789464140364575 -0.6933064520811737
Ni 3.218314184667341 2.715152446623754 7.626663869538781 -1.7960916787247454 -2.184964604111334 -0.21373066359137385
Ni 3.8030601965631847 2.5140935662789925 11.87111538371114 0.16822882250483284 0.4245696074572495 0.7746674689581691
Ni 3.8004643333042494 5.0485368463199976 13.165485117950004 -0.021651259721188518 -0.16559267043356643 -0.6587981338916589
Ni 4.365305636568184 1.8993653337424443 9.489247675090152 0.5781889075790235 -0.29652584181173447 0.4661322613903843
Ni 6.820287688065132 5.056426416439119 1.0425107370107543 -0.32259065721958635 -0.36057279289031446 -0.6400434789919751
Ni 6.819814870114398 3.094917970465802 3.945486869734784 -0.8133000937287026 -0.6668647129498774 0.016597499347364965
Ni 3.0132595290918602 0.32281228394100325 0.331162619788586 0.6790178033726434 -0.06380218205762561 0.021925596428497722
Ni 5.638539481315186 3.5501953023222397 13.235541904744544 -0.33462342001440437 -2.1903017000535314 -0.17817899173900928
Ni 0.9992033940055213 8.886205462688919 10.594791534591986 -1.0328573913041825 -0.37289171946698363 -3.232903829449303
Ni 4.432584849675665 5.465497382286506 4.968382151448196 0.5759952423618144 -0.3651192746104164 0.2351410109463499
Ni 3.7175265021812613 4.798620111065986 7.345528170219986 0.9159251621907968 2.1735615044807144 -1.8285618834383088
P -0.26337257787550755 0.8767379822011147 5.13886268969672 1.0143151095256209 -2.1087730472504203 2.8171628760272776
P 2.5271748629159854 5.272430052403181 11.42388244667534 0.3154455615343728 -1.7892036933556605 -0.43322316936718935
P 2.4306365625042177 7.556196380092914 6.7862837335611195 0.18630496328025334 1.156769137059195 0.29856395528768587
P 2.3044590662395334 1.2861019097591524 9.584162633871063 -0.2581896652356973 0.10347121851247341 0.010464904087065848
P 0.4494468375580644 8.222517394900805 12.452504388156767 0.38284780223843096 -1.6637765393973862 2.0024489326701835
P 7.411384294005158 9.03533780691476 2.2076556169377457 0.8052821085202324 0.7550072715250804 -0.8826697425717767
P 8.914954648281627 1.7195647193003218 12.171016393109975 -1.6200418175135969 1.8165833709201942 -0.5815760788837017
P 8.899064256760859 3.8778674131215785 9.84730529242935 0.14172871933177525 0.4382977556766194 0.7296690498706079
