# total energy = -381154.44858441176 ev
CRYSTAL
PRIMVEC
9.31321053435235 0.00000000000000 0.00000000000000
0.00000000000000 9.31321053435235 0.00000000000000
0.00000000000000 0.00000000000000 13.63082501078094
PRIMCOORD
 96 1
Ni 4.171358979139274 8.63551597868315 5.8329297702009155 2.0797216384104185 -0.4351144728526313 1.6304162187693856
Ni 5.773221847283013 6.82843652032931 7.084130710672779 -2.811451427464797 -1.3142445777022655 -1.1753412436344273
Ni 9.025786058681078 1.319355945183302 9.279088616604943 0.9856794480667992 -0.6848380095988463 0.23366956860714597
Ni 7.304918988599299 3.1987431687466374 12.994633003897837 0.640323215015923 0.14760214739341676 1.1039147122623245
Ni 5.820821665416156 4.839498003339997 2.0762340316258623 0.36778987946404396 -1.543762071814251 -0.29459674310982165
Ni 4.176816520408306 1.8069397601984896 13.331968658870299 -0.1796892577359486 1.633905719979883 1.4138236602491845
Ni 6.794443302527319 2.604327517729631 7.798903773092654 -0.6940158194433725 0.4896611977502599 2.5768259227022847
Ni 9.047532404863995 0.27226425421012723 3.8127323939703412 1.254899145864413 -2.9203132208652223 0.6105567823867678
Ni 7.051534474424295 3.660622523177306 10.20637982615458 -0.30361925832340614 -0.8873548067522717 -0.9501552870182604
Ni 7.927972761463189 6.537342817419987 6.683084314971103 1.5740285840082762 -0.7739282767992994 -0.6353334751108155
Ni 5.5267663616134 7.042938381265051 2.4019421434679686 -1.8447132963871906 1.223117482577442 -0.5913532128751234
Ni 9.24656502339724 4.248304723106411 6.6677361443032455 -0.19932143014457931 -1.5361688328480254 -0.2062621231284706
Ni 0.27782144682997606 7.226604202709726 1.850711848875026 -2.15577255592841 3.1691754380524064 -3.1399995878193985
Ni 3.9007263993836427 7.499611651106319 0.7959572484203505 0.7480426672817891 2.7276015827276767 0.7147347971582787
Ni 1.1672246540064461 4.197603605924483 3.1488429876553856 0.48524867050486115 0.12912722851768083 -0.2519740233432886
Ni 0.6082681201015768 7.444049038118188 10.996981047298787 1.2050433986845503 1.1070460588024544 1.663480605423522
Ni 3.621562918941265 5.667852185307197 13.63791320701443 -2.2124882634528995 -3.6985879475586754 -0.05579808080622649
Ni 2.1799617746157893 8.588372507857484 1.7789181728772208 0.6881845574735761 0.15458732046199827 0.8484599294592872
Ni 5.193185793056766 4.646518971538611 8.66668263714188 2.71175998770973 1.899290874522755 0.4221465998380536
Ni 1.841435891359743 2.223407900929841 8.421722853055554 0.1151424842028146 -2.4673750895676085 -0.5317488709489293
Ni 2.90613141254917 7.776279191173098 10.491018542965667 -0.8096532410047346 1.036617629677563 0.06463984746757255
Ni 8.483850348024129 5.387310349732026 2.267078475613489 -1.1958398778084116 -2.106099871293631 -0.03290420692718849
Ni 3.956726733258539 2.1083059341312635 6.633495195105766 0.8487743753759124 -0.021043965154492788 0.0005409601051345522
Ni 1.2302937145420854 0.3265137045379622 5.570440661581191 1.7185433507256211 0.03596124858595742 -1.6170588236258734
P 0.2579200476187228 1.6312646732398717 6.871939457226537 -1.0350114615327077 1.8018180396855612 0.5533078280666277
Ni 1.4259176980847759 1.5145887738910104 2.85685707919389 3.638104545461638 3.088655686129784 3.2773157799057753
P 5.060304907687231 4.140876841641763 0.04710063005802443 1.0275591190197206 -1.488102573468418 -0.3210500522053439
Ni 8.937636522654818 5.267179249340826 13.103529578635738 -0.04258055367468796 0.5407716432728299 0.7381886573058448
P 8.89327770172581 7.751403606310326 4.836475866579244 -1.4013332410916575 -0.44316253996808835 1.1787474411024992
P 5.368143762817918 0.38403581698514494 7.637937039250388 -0.3226325662011153 0.219563468223067 -0.279433405105822
P 6.972325620340477 5.981400038386548 8.770550078287158 -1.0509805832674544 -0.003969011950077036 -1.6138583144107044
Ni 1.667297484109982 7.3971756503928665 13.393116404109346 -0.15494778912521057 0.7269413665267996 0.5621339109986899
Ni 8.817756878943248 2.429574438596327 4.009902370432245 1.7536116551836636 2.5947051169755504 1.8425736243363688
Ni 8.191238591826663 5.676653169094289 10.30922467680269 1.817723140951592 -1.6728563902114673 1.740899606933634
Ni 6.356536151554822 6.359358054292905 0.1095205598318009 0.1456707346986588 1.2574687063638021 1.5870468506448152
Ni 5.3057359402176045 -0.014858295803094905 1.210718277693317 -0.9506006020857952 1.2929105921111799 4.006910267784705
Ni 6.45054369689545 5.09984879886182 11.973970341274935 -0.4378030754283879 -0.3249079924988533 -1.069750921896422
Ni 5.934368326085163 2.3426076802853704 1.4004991530582078 1.4148711276770924 1.860038099669719 -1.0469964018087259
Ni 3.637302244444104 5.668289906193963 10.011064109874697 -1.6129805397914416 0.48241120105606594 -1.5198796087696984
Ni 0.10594987498103835 3.46444906022357 11.524480350581797 1.1815517433205134 2.6691951177643256 0.04587028016955326
Ni 7.481571962645371 0.7724255598120517 0.33921506082244307 -0.4927321233660998 1.2345200679874286 1.6088474914596747
Ni 6.845880163327426 6.062899942218117 3.9044954556150033 1.6897102285440124 -1.2098616460088 1.1786582238228025
Ni 4.144546246522307 4.148308783506417 11.414452220785556 0.8298371721517772 -0.43366591333156285 2.90113741926772
Ni 7.336379013184265 0.7010230386492287 6.634053987727168 0.5510995075613992 -0.02266273170483839 -0.490087229544085
Ni 9.044319347290928 2.7279417587942403 1.2266364168350055 -0.3221155173553807 1.5041012628895194 0.05956191872403291
Ni 3.2573884543628395 7.991265339047389 3.7726716196209535 0.8554093641939269 0.2510232293942451 -1.1859267324597575
Ni 1.2894139738864794 0.8195979015898228 12.344552294578776 1.1140057779497397 1.0122785387115665 1.256954485731545
Ni 2.971426330360063 3.1015970715157968 4.467121394400416 0.07895652120056079 -0.6311243221254743 -0.985503070389935
Ni -0.06979692369732635 3.603029630331412 8.722528371724854 -1.1493728445951237 -0.11672756930174735 1.7415022735146395
Ni 2.6041691931535667 3.6164779060865015 0.9011117752369259 0.2787829160060166 0.31471613956751604 4.216796103708693
Ni 2.5576217677907307 7.362586387128046 8.053663848437346 0.16616319822505576 -0.8123068765774977 0.18613321358907944
Ni 2.136385263356744 4.836648160970843 5.519462010730633 1.0786767636311423 -1.1664789081477913 -1.1272803835714587
Ni 1.0542367859588422 6.287478696759818 6.581888833877166 -1.3337798195217159 3.0632747841628336 3.05596436654435
Ni 2.059197375920333 3.736590380056988 10.282957698312625 0.05567235386163961 0.2943990252767188 0.22785913257295595
Ni 3.3768583168187134 0.8864807217665347 4.498376528357535 0.184076845280683 0.8265842124321183 -0.8626133381415337
Ni 4.865882328280556 7.468933936191317 9.160200829796363 0.5131525960039808 -0.10523293839858651 -0.4721635551861288
P 2.4838052625034486 1.1814272998004287 0.8883685095058398 -0.47045737112829944 0.3123851774414943 -0.7874792760108568
Ni 7.299405568068128 8.338368689041966 2.792956348973396 1.1100218536013269 -1.112595270755458 -0.2655466198214007
P 2.8155045625680266 6.96085174518101 5.642834108325968 0.3800195887610165 0.021648945728343364 0.3143253318870006
Ni 5.770241619968866 8.82075573267811 12.927037723128837 1.078254331381743 -1.1612413138979356 -3.2343603593901715
P 7.869476487212694 7.981663419169621 -0.1334396779909388 -0.012063873143069545 -1.443494962061372 1.488478725860914
P 8.077608112264446 2.0845572477216536 11.327515264747742 -2.7443865154954996 -2.6762857060625196 -1.1355781048038764
P 7.148820269810485 3.516081498441169 3.505398314840987 -1.2293354384626958 2.333439898138323 -1.1472655684441337
Ni 4.019842359845962 1.9111080180382893 2.3207570261464574 -1.7813119493124099 -0.5348560491193434 1.124881801432295
Ni 7.2536404523752545 8.123289409064109 8.168803068077349 -0.7234863180986637 1.906851203368516 0.889760587980287
Ni 2.176385501838813 3.351498445017392 12.573141317500077 -0.7499583962472631 -0.6379102346990563 -2.2312781424658925
Ni 4.778906256759242 6.51230890798115 4.768716673307966 0.08438951929067402 1.1308611589441815 1.9301783081302306
Ni 1.2289432990403624 5.528172656377263 9.042402688599518 -0.03823204689800513 1.2106990543084308 0.3815853905862396
Ni 9.142163935298523 7.3231170016363105 9.062140175308494 -0.10155883198110896 0.30982667268569863 -1.947490831266749
Ni 5.579851660646646 2.2624302523244553 11.669948971069461 0.7889478901365833 -0.9917004574498985 -1.4941261539546784
Ni 7.702350927361535 7.6664764410674895 11.307586857226452 -2.2965311980374317 -0.4349152123576317 0.04674291258249369
Ni 1.1883377018851073 6.952302218073551 3.6754836129435082 1.9889462701980585 -0.39383952536324435 1.9585810276426396
Ni 4.206181072663012 4.470406163693228 6.785901225988145 -0.923799422732551 0.1809241585843142 -1.3232393250017083
Ni 4.8279589357080335 4.386419632696418 4.456434485516092 2.186469213681318 -2.837440909550023 0.13321296855128023
Ni 3.605348619710233 5.596214971243386 3.1100907193611165 -2.38279196620889 -0.01254209833106872 -2.021547086952215
Ni 6.603028890065861 8.04642748399018 5.203949070266016 0.42080731220133977 0.9224621919783661 -0.41738234568019084
Ni 3.387009716107527 9.244618562432688 12.384613068928164 0.5002014351599515 -2.5680800581888548 0.38105368645248566
Ni 4.496855681106284 6.760030990259276 11.966610111130027 0.8624608717240695 1.0061343734870414 -1.121233148936114
Ni 1.7228414706773993 5.758246205029423 11.92562174102911 1.1316013795443156 -2.1824235828570346 -1.4330544834543384
Ni 7.082277381811793 3.193099363270471 5.774535009943309 0.9607978543337711 1.6394803858541829 -0.9065979712526
Ni 2.9207624660195615 1.6766106944666919 11.00706818543614 0.2182781737527402 1.070970653236136 -0.26477143221827304
Ni 4.486881232814247 0.6061027986936417 9.68859978919983 -0.275612488697835 -0.754756588966855 -0.536380713293986
Ni 9.648392797447844 0.5962335896786364 1.4637600657271952 -3.0079299888439426 -3.122749542489699 -3.7497616422190134
Ni 2.8555886199433056 0.19473457195362476 7.462699673178535 -0.702272660135526 0.8310304211289301 1.3437505575811826
Ni 6.858173600998285 0.7309733918353718 9.497440558702147 -0.6955826497098601 0.05748960957603648 0.9226462829647141
Ni 7.462116666210204 1.246740844032035 2.765939657049617 -1.1334188923690287 1.0008286450034118 -2.8152430332967446
Ni 5.958629239064393 1.930730952259877 4.346583306716628 -2.187336189667304 1.2087686700549376 1.7601628260386202
Ni 0.1941711227270438 8.869929483361537 7.411515200379093 -0.3612317666305521 -0.788439583041597 0.529956297824881
P 1.855266008739457 0.2945638050882334 9.75592219290538 -0.19318394978827375 -0.5734714474986962 -0.3486840118725285
Ni 8.611944243270317 0.1975508867654938 12.212687480459158 -0.10286418105609381 -0.04137470629204487 -2.053008133674974
P 1.2715139835808833 5.53376058259129 1.2808849358418046 0.7286478076949451 -1.941449767278992 -1.1724289550836389
Ni 9.185209593567237 5.532186650041004 4.872297267574257 -1.8726671012876392 -0.9870153932694035 -2.497497619984602
P 5.517322766311697 0.22260901055125734 3.4302379132992318 -1.1824585714054991 -2.6258548031054776 -0.8096079895890961
P 5.6269858182619545 8.428818588026331 10.85665238760699 -0.10925311530157314 0.6103721771797875 -0.0005399316638700378
P 2.464498977433989 4.12579875407425 8.171325085441946 2.144285381224417 1.3167627161384292 -1.6457739321723783
Ni 4.267229166551246 2.932171148706531 9.520640697021747 -0.3907853119179528 -1.21767908517069 -0.6379883962351593
