# total energy = -340855.0402167693 ev
CRYSTAL
PRIMVEC
9.38792133020107 0.00000000000000 0.00000000000000

0.00000000000000 9.38792133020107 0.00000000000000

0.00000000000000 0.00000000000000 13.74017181237645

PRIMCOORD
 96 1
Ni 3.7998737536778795 0.8035994816786134 11.5111169069578 -0.8900176982964156 0.7767377212236365 1.0232957157576765
Ni 7.131722084722564 0.7636623261760686 8.558533081349848 -0.1863484149236791 -0.46134332464217326 0.8651083366492456
Ni 4.719298590530031 2.437151278587283 13.174736337829835 0.008630164871172234 -0.9797818516354416 -0.29333767389174
Ni 1.0776770242258376 0.9286531633745654 1.4251990905602459 -0.8163087986480392 -1.2567241148882937 0.039631498348693034
Ni 2.9997975588190644 8.832738299625156 4.885771780483248 -0.5827639285442158 -1.5285920489420322 0.30313023450212956
Ni 6.366653447953355 5.906542042877022 0.7848499254928908 -1.647580646363814 -1.7955879996154496 -0.216302280973292
Ni 5.186094195488315 7.558619024655154 5.43602412716987 -2.6262882910984704 -0.634932640127971 -0.6732230510677373
Ni 0.9808030655434464 4.206361352959676 12.42747658754386 0.8505283819525415 1.0663233842721118 -1.8158009842282148
Ni 6.866353716656361 8.92914286224842 1.294413144190249 -0.011522398817302737 -1.3562816001686577 1.670398158478962
Ni 0.8715389284843694 6.9339843008552124 7.1360405284665225 0.7237755672043084 -0.04971845027104986 0.07168261324696687
Ni 8.078221686265096 1.4759971320788445 11.943410962778218 -0.5042545221834025 1.5448421922523072 -0.2169039191130329
Ni 1.3769545636032918 2.0526783544784886 6.1462400792617515 0.3768432479155639 -2.1491738196649695 -0.5094905737713612
Ni 8.459427613802374 0.8801936530225317 6.542534273723572 -0.12031168710857991 -0.7827296771410133 0.384659401525873
Ni 7.496433434742161 7.078070115164481 12.685627521804944 -1.745920200076677 1.0834762419023147 -0.2810395732506773
Ni 1.037994281387339 5.596543497509134 2.4150277035285637 -0.26214042235332924 2.457815728013948 1.4312593392271287
Ni 7.046695682572509 3.523033345926641 13.39778020203678 0.6607323747998943 -0.6242260523437443 0.004287571631760358
Ni 3.6328720237620877 2.968742315547299 10.910713346522053 2.183814806777607 2.452022261260622 -0.1394484079380308
Ni 7.278361413593478 8.08499037743769 5.423768196066094 2.1028181152185654 2.499235685721631 0.40755918894218196
Ni 0.6077543027216566 6.479017476586899 9.605973489031037 0.8693005203537222 1.2034655126744693 0.2573468576194277
Ni 5.0807147802145645 4.617984145128309 12.812695851386664 -0.7762726086617598 1.1199869352338387 -0.32373788345015214
Ni 1.288351363482698 7.618495185957245 0.26557020837162754 -0.4793528738457164 -0.09578953359749955 -0.751585390327725
Ni 0.557228510917351 4.245677966872057 9.39254755007558 2.609275301480242 0.6607999948130362 -3.3743597547356665
Ni 7.671208363397077 5.541060883320459 8.365401011614638 2.0390074485205076 0.49988338969890034 -0.03646389925398881
Ni 5.586357603026103 1.1200822642072663 6.817571261815649 1.0917181701961327 0.9901400549413142 1.1275128112972388
P 3.1683389078087894 5.896844320295482 5.594764486445047 5.107017690485798 -0.09094017592499823 2.9669972551853223
P 0.4001798550392634 2.794943730695365 3.7502557738519235 -0.8503250076924839 0.0532424042639083 0.40106201125361246
P 0.5705715632940622 4.230122181472626 0.9662696247607921 0.06387443005645774 -1.62830200063986 0.2236126985917762
P 2.347787656850905 4.890722031322788 10.543877509938854 -1.0655026881430296 -2.2363560712094324 1.3763174357736103
P 0.4533671224988125 8.962714068397101 5.465703101196279 -1.0500930384561786 -0.6527820096045661 -2.725345953924281
P 2.936138065280418 7.219480371936732 3.2771824659988895 -0.18543721596331936 -2.1019344270620315 0.9279970057536664
P 2.4258482214835326 8.341374504932224 8.919363464752593 0.18890537701757787 -1.1369400181484095 0.24250645017248557
P 9.116685363711559 5.386929993345897 6.28452134190387 -0.38395183393588717 -0.44725085110484913 0.29130315996021444
Ni 8.20472392419951 6.985364393487127 1.3356326897263258 0.7490806216280003 1.0252708372061763 1.6318881753292216
Ni 3.995349048540245 8.93179025602189 7.1536550849812786 -0.7704775992465376 -0.8698273393914696 1.006957126498653
Ni 9.223566846374514 0.8326438322330839 9.714342957201419 -1.8751926959229706 -0.3924423879054016 0.6483633117115801
Ni 4.158426627401745 1.7729840186877646 1.6102519153257813 -1.1436901923880496 0.04496268075361934 0.9486537627720694
Ni 1.3768888481550141 9.06696693312895 10.73874071234012 1.3575645806461394 -1.3117716906817407 0.82851871045067
Ni 5.520172758689359 6.121159309030539 11.161910647563248 -1.6983396220842364 1.556690349840145 2.2627155350395673
Ni 8.743956729002093 7.144874562299271 3.8861187079974253 0.9541793205759889 -1.8696524828310315 0.8581141647195997
Ni 2.0658683837399248 3.981182675475827 7.021997000733426 -0.14758055012686194 1.814335712536598 0.2252867438600894
Ni 1.5190595265430493 1.8182995142357734 8.748133415136195 2.0154183483466577 1.1158312611942525 -1.565754516924942
Ni 1.5762601303081243 2.4527540035926263 11.010315435100082 -1.9019681642446018 -1.605785821815215 0.9335359332940245
Ni 6.363386451381839 1.7739791383331114 2.0653680075408967 1.6830402727230047 -0.3334309423682 -0.16346071169222817
Ni 2.3727313634328526 5.026809336784552 0.3544334539089771 1.6043092372696885 1.9091394851820604 -2.592773961391109
Ni 5.998421627490315 7.985515964587742 9.669356977686915 0.3820674724289807 -1.4814421307291068 -1.9243997537752404
Ni 1.4004900820078616 5.796740916726305 4.941034717316251 -3.3000561589260844 -0.06481751069601739 -2.0456550357440126
Ni 7.972832883070161 4.10976903191276 1.8833653183675612 -0.004780709218094993 -0.16528079562010245 -0.26582841272787766
Ni 5.066454527938321 7.175291426930625 2.5940347070525585 -0.19519583801197998 2.231303596387189 -0.3103239240370913
Ni 3.4456205478556066 7.120625561884831 0.7361369412689291 1.384252631460287 -2.068690320296921 -0.029542489543807185
Ni 1.5778748527515172 9.244670893192811 7.101566204300084 0.7505813745432428 0.7009662826192766 1.9170235159158273
Ni 4.040120044659668 1.5852349829586105 5.203361398919318 -1.379665783420553 -2.130095977097912 1.2663420975940318
Ni 9.33321776578631 2.550876555792292 13.600502972052047 2.78302865334773 1.891225323905801 -2.1765288146391546
Ni 3.9762821806185533 3.7289386212227824 8.535353365158096 -0.8863687886899186 0.2096752625750776 1.4348509132331289
Ni 8.787723217554987 3.142719270901701 6.228694191007797 -0.8417300669346212 1.7317629347396886 0.0923015750488991
Ni 6.047708213698528 3.7090174524734816 3.3487137314490765 0.4280431678281467 -1.1646449402628458 0.4384178261942514
Ni 8.67665472204463 3.504895882202018 10.760945023521009 -3.1128559375250715 -2.304464851062212 2.7197553472103806
P 0.5028696308942238 7.940200469039732 2.168419218361384 0.5993943380120452 1.0919518834734936 0.6010519282201261
P 6.550656703130685 5.783973343918083 3.0052641453236446 2.644482188398678 -0.7950555456962178 0.916015665022074
P 1.9156898085832028 0.6817236113029433 12.61546970922376 -0.40510352831283775 0.3149017732157609 1.4125298811384255
P 6.563715301495566 3.309739776659858 5.9184966217108395 0.2183527357444175 -0.4242561899818887 -1.1203690011636058
P 5.4453416389435185 0.4488505936179037 10.341609115308819 1.4784233985074409 0.2342529519144417 0.4525478378377302
P 8.185948081834475 1.3968945081949578 0.7707220429053211 -4.054360747957185 -3.538399993080448 2.4316953767778124
P 4.010641972146565 2.755561401334707 3.6229536850327584 1.670876383666961 1.0158698556072503 -2.8780653679396044
P 6.226595051831386 8.195692744021928 7.388145641486067 0.2295015532723854 0.6828613454884498 -0.29921778682160083
Ni 2.3593160240630358 2.480363879790408 0.1714938502016263 0.25008323407847893 0.1956568368087985 -0.9057939872940659
Ni 6.378979788465999 1.4847185108574026 4.656241801531301 0.7243311825974622 0.03763143719952874 -0.9468164524530145
Ni 6.344526117726163 3.7488316262085353 8.00694764985531 0.49366646225491106 -0.022619794282044914 -1.0648120898339082
Ni 6.226435457171284 0.5074518752234103 13.24187030099813 -0.5946321407367114 0.5896645123187909 -2.3535960613712237
Ni 3.027689072652322 8.901645641104828 2.1937281150773313 -0.6248842547530334 2.1151126163152028 0.27638561941843365
Ni 7.072399810770241 5.817816799781055 5.7251589565017325 -0.6518651542172517 -1.3624987847229633 -0.27653011541609795
Ni 5.734855740291154 2.463559500873703 9.691190465981096 -1.3110332698538196 -1.6764597912920096 -0.9607670010958357
Ni 8.34288596024261 -0.23510358775800563 3.224735905520641 0.32558342129932316 2.727590784094399 -0.03094425498734025
Ni 4.937088974043239 5.934292737892543 7.272741803973624 -0.6679769721774496 0.3132760646868798 -0.7452357939606133
Ni 2.7579740970786135 4.088111097744694 2.2629377476190817 0.7381806868860448 -1.8120278903390277 1.5172059185922775
Ni 8.71626236151367 4.803921312069237 4.086079551600797 -0.3260012255630321 -1.184087879478806 0.4478877133578996
Ni 1.8385774239900097 1.0794419534081507 3.7758819823038396 -0.8214959992759335 0.5405806103079465 -0.11318176093201798
Ni 3.425971628820599 6.251350999989683 9.52404134570274 0.7086297127018053 0.52370826003264 -1.8253618884437721
Ni 3.838392394289746 9.199486828541358 0.07557933706408829 0.27996279524673073 1.5174221483681414 -1.7192861424289168
Ni 8.452170750728287 7.848058022633329 8.385736187688089 -1.087943790755365 1.1747167226765511 -0.04381185497862777
Ni 8.882935514188073 5.5668119511241025 13.545335792015107 0.1790559950273239 -0.6735639793469239 -1.2440606604880122
Ni 7.63496159971138 5.556964021803643 10.985858022835393 1.54932285373148 -0.3321155659908861 -1.1359038635744114
Ni 7.723790109940355 8.94417292406163 10.884950074420873 -0.6594069711202514 -0.8183086026868874 -0.27710835651707116
Ni 3.902014336143663 8.042256560214872 10.88273828019027 -0.31594281288576553 -0.052529694467599856 -0.12251897917254383
Ni 4.457347425774263 3.6339422467768947 6.325288389638949 -0.26242787168676096 0.8088736825262327 -1.4567322866872523
Ni 8.767435919879569 8.944041493165074 13.212521781797347 0.6376469537353405 0.7489325260859102 0.4312200228942316
Ni 2.168882042875682 6.693972707902987 11.871384953881712 -0.47743431666676484 -0.4644065369485292 0.009973309162627985
Ni 2.2676429737157595 3.431350907658181 4.474803326421036 -0.17930050693796218 1.8884870990390312 1.6122115228359009
Ni 4.554371591195575 5.302579521520985 3.943553070999945 -1.7053337940138826 0.2609646568776731 1.266173690336968
P 5.738038245572027 5.734489611365036 9.228779020215047 -0.20711804337086265 -1.1815923667504618 -1.2957750581431682
P 4.549461708417119 4.188205113392688 1.1302775466114796 0.31409187571995584 -0.3093998695609252 -1.0908074854564052
P 9.207579216600688 7.45360573830752 11.350302755893404 0.5687691569270205 -0.5048664447357886 0.6778404952350906
P 6.171065498036799 9.003936430309532 3.5111501152938107 0.07553721110636669 -0.3419500355828047 -0.08083368361861563
P 6.391062043027899 3.3404476668478704 11.323673917459196 1.0942144542554253 1.5848259317340962 2.657074937462024
P 8.755278561948208 2.5123203634956957 8.612367176578873 -0.9886115341119295 0.7259134394829176 -1.4778582700325904
P 3.337396592463553 1.7303440806767731 7.401885802928798 0.25858587223285145 0.5794297219646601 -0.15339998502211646
P 5.501500183457333 7.574991559197462 13.458539766722147 -1.223331912581093 0.9541122147834794 0.11188823893157504
