# total energy = -381181.6249412398 ev
CRYSTAL
PRIMVEC
9.06826403115561 0.00000000000000 0.00000000000000
0.00000000000000 9.06826403115561 0.00000000000000
0.00000000000000 0.00000000000000 13.27232104378059
PRIMCOORD
 96 1
Ni 2.7313791786759136 1.693770303627091 9.927483556321976 0.9440052082564645 0.7765952821085012 -0.7740406340074476
Ni 1.4657216067879537 3.6866482188551886 0.46224204919673356 1.0428926640529974 1.4782081971728414 0.13980707682903018
Ni 0.1787563355615607 0.5859404213870988 2.8706568279924767 -0.002244058839170329 0.7427749911249467 0.5488783315403644
Ni 6.692360512561227 2.3617204750831586 10.849764066623669 -0.1280594493747988 0.1175112415453073 0.9107209922820381
Ni 0.7550862110241281 1.9122973235264682 5.004461002887279 -0.09588543574541551 0.1534362375766906 0.6418746186634429
Ni 7.177195234070074 8.098748469618846 8.278848721868476 0.42195736664538297 0.47760709479920327 -0.6104269416771229
Ni 3.3653505658526646 3.3206077524995425 4.902848387065283 -1.6208280608603183 -1.7242529995158884 -1.639950640622382
Ni 6.359038341823348 1.2670540845057912 7.125722862186479 -0.448406304865531 -0.6776142381568976 -0.6554461867002905
Ni 2.3657014428703538 2.323216627191518 12.097030292795887 -0.20614462371399983 0.13147078904919293 1.4499528018715737
Ni 0.7938784297030871 8.5876185684974 4.868353618578468 -0.6997709767595949 -0.8026714103702628 0.6956155598303245
Ni 5.2132813532663524 4.497006404275063 3.8703549195990496 -0.1922490966788302 -1.26161898108675 -0.6401920887546975
Ni 7.337077792284279 4.911308170319666 11.182899431128256 -0.9818346203994122 -0.43935242219337883 0.5016764770435812
Ni 6.307485262392359 5.891786983729926 7.017500388915538 -0.25565327196708876 0.7987756748602823 -0.5074185217336808
Ni 4.41148360882851 1.6861257572840262 2.8527524480402264 0.5954718630291873 1.0244470557533 -0.7621048018018101
Ni 7.856281233413785 1.6427341152299755 8.94769393095688 -0.6687501028980483 -0.9323323999042267 -0.9702839394473355
Ni 3.519837507134339 6.157441770349241 9.96642449452647 0.16049031620999457 -1.7342327364364198 0.4665626640595836
Ni 1.4296571218456422 6.382869738964005 5.712632551389646 -0.011317739005664379 1.1720222065635235 -1.3433638636657252
Ni 0.5165128872742422 7.412942886834789 7.578190229884768 -0.29630524116049617 0.9247774703751042 1.2512666913181483
Ni 8.660654364757239 1.0836393818547496 12.128617775923763 0.20696866227719193 0.0085345198335724 -0.3473784056872275
Ni 4.472322590341703 1.3156781147448342 11.605183989753877 1.1199943914330066 -0.7009451995733541 0.4520022497469054
Ni 6.543985581048505 -0.14888547476196953 12.203089078335568 0.29740181665878457 1.123914038202387 -1.3241672361326162
Ni 4.7828290094791654 3.829183188511526 6.422808186181237 0.12810212968727616 1.1225518677475377 1.7291383526326478
Ni 0.04315405354374451 1.956985727297077 1.0174111311936525 0.15683060797022022 -0.14840253180752505 0.09525088748521016
Ni 6.8539206995695805 6.743850114145951 12.910809027303076 -0.11367027053266231 -1.463747541662821 1.068108758307309
P 0.5199379704934302 2.259303504266345 10.20237981053111 0.41113507921889836 -1.6215600539303365 1.4452212007238594
Ni 1.054584664792852 4.958209230445799 2.5893765161018276 -0.1457848916790199 0.8917765899690513 0.41276361596125694
P 4.366985638596697 5.927833332144733 5.793262111715537 -0.5318113487557488 0.41396354980662897 0.26518769382008517
Ni 7.027314970774493 2.1154173633109377 -0.016833418003121155 -1.854884837603554 0.1121054971487037 1.1973586284457831
P 5.905071990126829 3.481442478407724 2.0599839738204033 0.2515842441040377 -0.9397119801977494 1.0538031403179142
P 8.772348169392505 6.184165943626835 4.403238743425053 -0.2246197997000519 -0.8268567493672146 -0.11016251448971996
P 0.03343831575968806 5.5146016212228846 12.485245384504674 0.24354466162901284 0.5160018925273178 1.2772841984278325
Ni 2.502432723725313 4.610042311945647 6.6891965953381005 0.7447557690004013 -0.7145229382577888 0.538170458204557
Ni 0.9676834932559724 0.592601061113055 8.794690557625058 0.5655123405526196 -0.917761186958271 -0.12220736146939598
Ni 3.5290599313702784 4.697016029592544 12.972300016980046 0.5341523381840995 -0.35978577821264485 -0.6662810725322654
Ni 8.374233254145494 4.2695834176348235 1.0789374870992585 -0.540189802627431 0.4185943637104211 -1.2929944100742377
Ni 1.6151393886321745 5.319679291870361 8.7010416910302 -0.6091897268359121 0.7180072972619634 -1.203878946062804
Ni 5.4122662647798405 0.08317320830836983 4.353998071250864 -0.3434245632458021 -0.5071734956024103 -0.4187604569746401
Ni 2.423983174005439 1.7778149720820429 1.5181942081634103 -0.32612026763939966 -0.6376934907025599 0.3687704982097585
Ni 0.6214363261921503 2.87980851977115 7.528059961036492 -1.0123471871659726 0.10298425157372586 -1.0534658115831534
Ni 8.770969793302177 3.406311913221139 12.20124459348838 0.5064805833004439 -0.7869437152223608 -1.256326365229243
Ni 2.215476585552191 9.072797884028828 6.676588081417108 -1.1025808239422497 1.1689965323633222 -0.004323309965702231
Ni 7.221022152784228 5.392715088130199 2.6744386437497707 -0.6211978070403819 0.36767700803526354 1.3456182069175406
Ni 7.76354916828427 7.949004230279547 3.651534087954103 -0.2813079964207155 -0.15440785746134053 -2.2252301364996
Ni 1.7928320168556078 7.505865385503098 3.030389759854772 -0.9301011965808628 -0.4743011703544219 0.717862544153983
Ni 4.573995963530839 2.485166749541214 0.3881135271547609 -0.9109073972612312 -0.3668691674219875 0.25231418029152675
Ni 1.3371789681011885 8.70780026800468 1.1679560982222659 0.40075039355046466 -0.2592841838514567 -2.337854482266251
Ni 5.99690629714488 4.289297823032004 13.407963891945597 0.8711419444378352 1.1502346783747868 -1.5454307177659254
Ni 5.038889573048703 7.262001636680207 8.719754960109144 0.4325749942602292 -0.26883043277899504 -0.8209342132351927
Ni 4.20178907782373 3.5418461832608132 10.814299900741752 0.24731569863567085 0.9407046831283219 0.6405265892759807
Ni 2.731587748742213 2.163778413901168 7.615365577136718 1.7688143310660311 0.1019565816401599 -1.3111289148914194
Ni 1.5036994953819693 9.253709745884278 11.34585613075444 1.2939434042510682 -1.4314107772033282 -0.22098734515378715
Ni 2.558374842812343 6.316444706979487 1.0584141925753863 -0.5784753284711909 0.835515196373161 0.40144793383812155
Ni 8.463619129950464 3.817584879172522 9.29625169162475 0.18555497248810623 0.6848428946948528 0.5076370655023903
Ni 2.625679496380821 0.8877295185796168 4.023437186825515 -0.17420226647944836 -0.14552058227403972 -0.6005413071322948
Ni 3.1457353543030293 5.678709990345593 3.916555909763517 -0.10925671484599894 0.3072072327849806 -0.15962334022400895
Ni 1.7155704096872662 4.0370640667658755 10.501272504281191 0.2166100420216979 -0.3604244402379083 1.639797917094602
P 5.944174343426112 0.2282119255866762 10.083379705790735 0.3896753666832256 0.43465630226929014 -0.6415457745691144
Ni 2.956707396389405 6.9790173980305275 7.404627288974065 1.3383514980527982 0.06645118964469847 0.3116639830047536
P 5.1355754011741555 5.455385858921327 11.590319291811348 0.9293632899735736 -2.2558118659411988 -0.6877376997441446
Ni 2.064100058737505 6.422135321010828 11.894375454941905 0.1295180361981963 0.5511720126705475 0.6651682990840608
P 4.150635001997836 1.2155372781298113 5.8719265792863355 -0.370395178297375 -0.3195235882584884 0.4193947481245293
P 1.8311272946809487 3.0657169949540335 3.4283468873124945 -0.5530998258208797 -0.6079244869702433 -1.1119581513920915
P 1.785958272931476 7.445343793221231 9.456130622533454 0.1496950253667035 1.0316643994373458 0.18529503395850022
Ni 9.000324320121624 7.754662269807161 12.497987201902824 0.25790015901973645 -0.025241548175608145 -0.3918510341783058
Ni 4.738748179379951 7.352085768794092 12.044604846391943 -1.2583325970259942 1.5356006190493812 1.125637705761713
Ni 8.432714487083127 3.136268086945782 3.1337144638731758 -0.14863804485709883 -0.7324913498107515 0.6349632362555903
Ni 3.379152463283441 3.926866525649715 2.0457685635625285 -0.297610590235481 0.014892343730800157 0.5602598339044287
Ni 4.764329751424774 5.745860483430284 1.6633535333496203 1.206552379129909 1.4599929597163952 0.3953626468759901
Ni 4.002486777078917 8.18604864476082 2.5395527545683745 -0.05153981975050479 -0.6102585344200587 0.6961470068537623
Ni 5.235226551546561 2.419449042129363 8.959161657297852 -0.5513843857916697 -0.6795680194491588 -0.3662667579512982
Ni 6.714051799456376 1.2260927371373171 2.5931325909479694 0.20087591911589275 1.188349225858321 -0.12400970478545738
Ni 7.668504695897958 8.992879275581107 0.9957633719645134 1.6312212311691845 1.121922461693655 -1.0888557610466731
Ni 3.281387511771482 7.972971651376487 5.002138620540353 1.1744814667372936 -1.577492888407793 -0.0796751445341402
Ni 4.065239162243814 0.158066184984649 8.11374103008028 0.1518246701151966 1.7213317121040355 -0.5942361908498734
Ni 3.795367632979748 8.576718515467313 10.264069395184254 -1.2494437791767965 -0.41990871164647037 0.3461391339634877
Ni 8.281220072839663 8.75919011868813 10.257420544201176 0.4186671259298854 -0.4306525804265357 0.5616968234612714
Ni 7.6125625768109275 7.584777416674331 5.886260783799363 0.9539515208358991 -0.4727212274618117 0.4109322191794729
Ni 5.064770397797346 0.1037880922961387 0.8120566712206525 -0.09283019385885947 0.4557167224840152 -0.8752935047123634
Ni 8.869578093343085 5.220454349894305 7.047575285649553 -1.2090376074456082 -0.429413308702796 0.5717310677688218
Ni 8.53858646638951 6.87005314078466 1.3645805406810683 1.7677144131336329 -1.2633339068953273 0.5549281372788701
Ni 0.7472340014411389 4.257422875943187 5.046959420961743 -0.31728621428753745 -0.041187015761271005 -0.4663400065258162
Ni 5.710938599720743 4.935774345922973 9.106669662795872 -1.6234840104259267 -0.8303336521722215 1.4985427949651353
Ni 6.604661333814157 7.007600565377313 10.457168096696222 -0.1569635340036587 0.753353023751109 -0.04785517181006597
Ni 7.605190078380427 0.8935894306162578 4.814148978826351 0.7025061163025708 -0.557675103896388 -0.6595414398155868
Ni 5.67339598778683 6.729413438252523 4.121307330196999 -0.48168769262648004 0.8532329253678984 0.3843308145418607
Ni 8.738333112058179 0.5323497030910017 6.762220602855061 0.26649484266728296 -0.1745758477687832 1.2630999365076505
Ni 6.713353543147461 3.588447990683126 7.420541185032718 1.7541662421355528 0.059611798125361846 1.9254361654595549
Ni 7.119874738892716 4.368672335654598 5.232785374944482 1.2141427898826576 1.3488284863247222 -0.8236678101162718
P 6.471847542900129 7.579019069191714 1.8147772151358175 -2.246242991305841 -1.8814157940145468 0.9141068780351354
Ni 5.837277650315736 2.3301266441706585 4.84451678047956 -0.7041585643043292 0.784784759897829 -0.21742482461350943
P 3.315275613413277 3.8602238553351444 8.831720812656974 0.35530460251283974 0.40175698043810804 -0.27800644285130827
Ni 0.19526238924322914 6.26987010434843 10.424837015940671 -0.7337758729501299 0.3744603495056841 -0.6769040994637503
P 3.066768913549283 8.428670041449667 12.867979617601657 -1.0272827254298824 0.4115407992977493 0.5864218370117772
P 7.679658660313105 5.697998187346422 9.002150668441308 -0.14108311532797638 2.1728531655597805 -1.5451000738993843
P 7.930922112357755 2.590821090517546 6.087562636701526 1.3915573926518163 -0.48195303047272475 -0.2773469548904385
Ni 5.449155961723598 8.226094097490327 6.492009920526665 -0.9001527298478884 -1.0756557174166315 -0.14735789259309462
