# total energy = -381175.3247374254 ev
CRYSTAL
PRIMVEC
9.16256433958732 0.00000000000000 0.00000000000000
0.00000000000000 9.16256433958732 0.00000000000000
0.00000000000000 0.00000000000000 13.41033907719194
PRIMCOORD
 96 1
Ni 1.5114291009307737 8.79644644917028 9.762525227108158 0.1390303465640057 0.49171473784517905 0.23526648078062062
Ni 7.370403283917131 2.4653344960870993 0.18385051547867837 1.766370754621545 0.734897902369715 0.00752073385707737
Ni 7.60151064045718 3.0843390075699775 7.5904798294299995 -0.03188707851658379 -0.748548146163298 -0.27310309201241995
Ni 7.771787733346222 6.074734244509772 6.757858380187522 0.9114954085542174 -0.7828646600569807 0.6579995492497636
Ni 0.6184895753754549 1.9772447017371633 2.3891459423424286 -1.5190051765845451 -0.506368997423244 0.01427964984746573
Ni 4.372082428953821 6.291373912195334 9.399574985682817 0.602995167989426 -0.15798477617932147 1.0613722109144237
Ni 9.088246630898503 1.2798178033603276 6.680789304024286 -1.8995747243117609 0.11260480538262542 -0.1172163360127078
Ni 7.991377746700652 3.48921439395509 2.461829815284793 -0.4086925312156768 0.4986983682518637 0.9928548827693159
Ni 5.99492831042327 4.563479232298589 8.389467338047366 0.9290519293807419 3.1080957971322665 0.14404425483882935
Ni 7.3715577670049495 0.7293199518060315 11.655394623997749 -0.972144389694842 0.5988626338782913 0.3347905417198879
Ni 1.5457062535619566 7.7567886157687695 4.140777161027288 -0.3231385593032564 -0.37840339331383216 -0.2210606215938838
Ni 1.5867362160004588 8.384726627335958 1.7714516775385822 -0.8417742899089954 -0.3282314004451315 0.07565728162399873
Ni 2.1068216844985073 0.30543132847225074 12.893611637170595 0.3604352388711857 0.45473327552482334 -0.49006306117436893
Ni 6.954899323072736 6.891925019401494 8.9596216385564 -1.3256949856310525 -2.339931419399938 0.31871266232141887
Ni 3.794730934274299 3.459399410083968 9.6870788410628 -1.5395907140453806 0.771756208848645 0.28381379356170483
Ni 7.35292111144445 6.255255084162155 2.164335099913085 1.2432811020095105 -0.7583203950587134 0.8445227991884101
Ni -0.03145599911737871 4.422394068915817 0.8603629448376212 0.2999297252869609 -0.6451710300265275 -1.5807576752019936
Ni 5.640428701949475 5.926209079005502 4.104716973404919 0.1583025645300564 1.4321211730067915 -0.4803082957804502
Ni 0.406934214558389 8.129430101336855 6.185759783557574 0.32862477922880823 1.920667026205686 0.758649496263358
Ni 3.722768155133612 4.878763066043311 3.253549577987415 -0.718522032114853 0.2902958017416226 -0.05973752506994873
Ni 3.1901391362607736 2.808096859834738 12.50669670910883 -0.6763392280992159 -0.17807589050224168 -0.27053404573366313
Ni 3.40483634033826 8.148928037931123 5.896471976929987 0.05166528958477553 -0.969805200038704 -0.5915401320749489
Ni 1.712849749498347 1.9010854681978981 5.445912045498341 -0.5736984759078377 0.4493355015480197 -0.5072925376787779
Ni 8.324308679073456 8.420973731267782 9.739982570433872 0.9103864917607547 2.1856780852385906 1.2459082552197123
P 8.35230031267096 8.650706703179477 2.060887917706033 0.24096275983444954 -0.3972644918843932 1.681253613136227
Ni 2.291603116498792 2.7414941807446374 7.899561523475163 2.7995981276706368 0.7345942550863671 -1.8030184877515656
P 8.332188484276026 4.918656870522372 8.677374346251666 -0.2832028994505832 0.45639935037333657 -0.13987958193817845
Ni 2.8487236694489226 7.59124856856546 8.17978388909412 -0.5376634366611515 1.3254268195713301 0.1567609310745494
P -0.10530993150668265 3.6346792630202223 12.330390648983405 -0.8027413443762498 -0.3376411237948056 -1.9832196521269265
P 2.9845220332946223 5.95956997521778 5.046645980909757 0.33786043889446327 1.0123271325613146 -0.16757936184629202
P 6.014462897274294 4.938420521478122 1.225032083304826 -0.7779908769044472 -1.6707072050789487 -1.0787461834164969
Ni 0.3415602353260377 7.124883213907728 8.272932349152695 0.1266044620958271 -0.8525032462907254 0.09554784990033868
Ni 0.8575298799903712 6.075174047590846 5.628252570398667 0.48602180122545974 -1.1449523469299248 -0.7650484578111664
Ni 0.5427866375328035 5.536305322505273 2.6115158776718133 0.8320647759307155 1.698094853063282 1.800513204831209
Ni 6.981159232038513 7.42941935985871 11.462272509816184 1.4064039707463456 -1.1359596565130112 -0.6505873159460925
Ni 0.45246299601370776 4.049651795141652 6.524934087168787 -1.0598760859848715 -1.5923186405667158 0.1562361689193309
Ni 4.5882089930447965 3.3153364133397587 7.431607380187052 -1.1362021115411207 -1.2737347905136773 -1.5758905769176796
Ni 7.881014661043716 5.053868830259973 4.644201422803994 1.224984874803484 -1.0045572588079086 -1.1613115050142386
Ni 2.736949548906875 3.9364208268935483 5.773177764433063 0.9269469672225972 0.4252370658379192 0.2725109669543758
Ni 8.797078666099324 0.16149477511385 0.11336382542884509 1.4993444649308243 0.6135557171140917 -0.6999437548920333
Ni 8.438162701686414 2.573187039156239 4.721525218251686 -1.2481618271405794 0.5247104760449093 0.35991664736355433
Ni 7.869332391702695 3.334247945825928 10.317418360703934 1.1577988638752899 1.2738381488607609 1.2441573339668766
Ni 0.42029689817167876 1.385223941790995 11.529069435267093 0.04834779517576835 0.6009346859159715 -1.6268547266703723
Ni 5.378434341528187 3.3898555478891867 12.66312825125182 1.3336674623135676 1.592067186677542 -1.013451475973745
Ni 5.117365400089991 6.2137761560783895 12.227010353494935 -1.6247160830608145 0.880771239997483 1.114304797247397
Ni 5.01930763813893 6.774470109062245 1.80527345072957 0.21666660629124623 -1.6027238950604399 -2.144893961342693
Ni 3.6879778989078433 7.605734582548326 3.305903553507146 -0.31603331571704285 0.8315873220736646 1.422094384898409
Ni 8.089838661476032 7.3532692888836335 4.471905817024109 0.29342869094364954 0.1221608245021767 -0.4447481392876534
Ni 3.731765793167245 1.3179615580792834 6.213050480994617 0.6384586510033585 -0.38705129879681727 0.8623523711706632
Ni 1.6021659740947949 5.069060361685394 12.30767390358953 0.21312028370088454 -0.05153673442671124 1.5986286419451436
Ni 1.1629676222575545 2.346761752916787 0.09736323958553192 -1.1636144421158026 0.2528687672434161 0.8843283612211221
Ni 5.650956488202677 6.871776540749804 6.1808248264853605 -0.5326163611555472 1.2498219884518218 0.6122994761094874
Ni 7.264951332665518 0.31721346976293185 5.352080058151264 -0.5680572184616604 0.03505879137634607 -0.740452513639357
Ni 5.773166769356037 1.2398598609319424 7.490961554747206 0.9054147495777761 -1.4349714979713932 0.6450936398213728
Ni 4.74678549146444 2.9324236933157644 1.4040090308913564 -0.4415244901440332 0.47323236277027536 1.7294332581652474
Ni 5.971389683021637 2.23831364317536 5.444315926816611 0.5051708633500848 -0.15753149069198677 -0.37369981719057577
P 3.565025450055172 4.692909614032909 11.40509077922525 0.45992433280745953 1.2996949620228648 0.6133353735731696
Ni 3.9201389503296316 0.7883021262601115 9.11476584043083 -1.5507418455661939 0.6982864217942684 -0.9022929161193428
P 0.1760211043791473 7.759289995792376 11.665452370708053 0.47207382368579986 0.5693116596940518 0.5618696015937098
Ni 7.478787255709235 8.40580052497074 7.338566122129488 -0.3764411273811388 0.6540608763169897 0.40264426813906784
P 5.275263868759644 -0.3554332737646567 4.8214594733486615 -1.4410251603646407 0.6366347104207423 0.9025312573823941
P 2.5268336269239073 1.343479299345748 10.818254198097238 0.7456425424807287 0.333175117603652 0.1894111130094028
P 7.811553261926636 1.4097429635608547 9.49013502135799 -1.053769201756185 -1.2423902147641248 -0.4715886565192653
Ni 2.0121265836048225 6.354952945103053 10.305362258744001 0.9603057451887009 0.44255678806328946 -0.11828668625875113
Ni 2.17435894513589 3.5841110712609336 1.8906832090740857 0.6968975118665417 0.5598104050718359 -0.17440306963634478
Ni 4.810062159753921 1.4014325178413993 11.532609850069736 -0.07514897452901252 -0.25492822087560607 -0.5359346268955029
Ni 3.393126583304672 5.5086068909618175 7.4066503878489565 0.6888725846795363 -0.4450826398089367 -0.9419588672503971
Ni 6.949099419941077 7.990864643106066 0.47437068698969226 -1.2933767331143209 -0.6675787082977664 0.31845323801244513
Ni 1.3488668870889013 4.939611654822697 8.466282611182566 0.08717762355877245 0.2731432012217361 -0.09926489374060968
Ni 1.3635544774839254 3.6567610427157984 10.36727828625141 0.27023656909790233 -0.578551690235081 1.1414404771219244
Ni 6.009359349021001 3.8211740945238564 3.514715642606015 -0.2921822201310581 -0.9372213525654117 -0.5108676566245459
Ni 8.922156829843852 5.751112477353028 10.882342669573868 -0.6684621393439842 -0.13286149874913247 -1.2337320248684946
Ni 2.671345589313379 7.231672899530941 12.667794745193296 -0.8528125500010281 -1.5648731427612534 1.3763395472607975
Ni 3.65513010629015 8.386449189403496 11.059358828423944 0.9821184701884182 0.2824333682744104 -0.8628822755322042
Ni 5.992207028859126 9.265826287446204 9.826989363716539 0.33221429635227945 -1.1139520418936684 -0.925632876396864
Ni 3.715264015062792 4.960429000660186 0.45732098754673456 -0.1085262644378776 0.4244209976945271 0.021082788812228206
Ni 4.600495991622294 0.9644056937169602 2.8725215974171054 1.0954035894675198 -0.8129056865037613 -0.336330375403182
Ni 0.5287120226820257 2.174184856416298 8.794473749100382 -2.6607493009898175 -1.423522118483871 1.392468848722492
Ni 6.20901162270009 5.12164431756627 10.635820215042184 0.09907051834161648 -0.726330215305362 -1.3221975140007551
Ni 1.1075066212213207 3.822585129408968 4.070842057341635 -0.03034004574443807 0.15036119819579266 -0.21679336167709762
Ni 9.10214624077327 6.751655324231545 0.47838022507881434 0.6937839059382246 0.9812111278828006 -0.9070741395580701
Ni 7.099622024438556 1.25204607130336 2.6902342153890766 0.46298548823128644 0.3453400351009601 -0.14605151507684525
Ni 7.385961317910113 5.20061645831157 12.59903977977519 -0.21896362985553905 -0.6764083907742544 2.166384012895669
Ni 4.038345190932382 2.600088327615248 4.3232120603387605 -1.0800373914240948 0.9826769137950496 -0.7525058452594653
Ni 2.3243226332178386 0.9053529675186246 3.4062666166081685 0.9843252480317499 -0.7028940957696088 0.33530039147677093
Ni 6.22498197208158 8.181583416700846 3.0944224094600115 0.753790882619476 0.7203164050111143 -0.38717933973424934
Ni 0.1479195200113746 0.5166421768758088 4.255530031187192 -0.3442827974810393 -1.2088905403447827 -1.0483434027549237
Ni 6.093856515972289 4.449936736868058 5.923332950106563 -0.6681564351781073 -0.013090514635371005 0.38727344210995235
P 2.9221066460389102 1.4775092883029635 1.3196685437877007 -0.0944139934062116 0.27609199943741486 0.1250270903063782
Ni 3.8786325345532995 8.698837652864482 0.9410356574964055 0.1359013140167208 -0.8269696207959951 -0.27285086679229786
P 2.120079914880042 6.265590456567387 1.2264119654716947 0.07479493362370346 -0.22323397509611875 0.06105341566789486
Ni 5.768704600595977 2.61869749548318 9.525443878716858 1.4746119951811507 -1.8234705849583304 0.5011787114715562
P 5.534170445049228 8.598251023197248 12.316658714033297 -2.017123503963223 0.34931881724305003 0.03573242040460298
P 1.711750241795663 0.5945157261748428 7.488373130363804 1.6810746643562016 -1.129914992980828 0.34543002371160514
P 5.1360295433430565 7.948029655522324 8.057696386300893 -0.23166230836913004 0.63908548595408 0.4947764074896382
Ni 5.63592072036847 1.0108965444121276 0.4118902455282385 0.33503608207179075 -0.42784879242915347 0.1445520477131833
