# total energy = -340864.5831523545 ev
CRYSTAL
PRIMVEC
9.25134773665176 0.00000000000000 0.00000000000000

0.00000000000000 9.25134773665176 0.00000000000000

0.00000000000000 0.00000000000000 13.54028255314740

PRIMCOORD
 96 1
Ni 2.478195581701672 4.2518547600028995 0.36770407576067354 0.8870192777897239 0.011171186125471083 1.4926757946613969
Ni 4.391984927454892 3.2058418522900145 3.273729168707752 -1.3668974280112909 -1.0090322638601266 -1.133415549934919
Ni 5.209628310935094 6.9662187522620735 5.910170907424004 -0.04685321290811286 -2.0144307876224086 -0.8950454905283101
Ni 3.902625626105409 1.3632231263432368 10.055014400513722 0.39357495884794796 1.126799073059666 0.45216320080480193
Ni 0.3591206751293961 1.9190903681305884 5.767442961466663 -0.8819832580277132 -1.236864656960205 -3.0267964867311417
Ni 9.18680129884998 0.42215936008469296 7.486868887794754 -0.5874536207104011 1.9863247734148115 1.1759056007783295
Ni 4.3496322565236705 8.61305120146847 11.272718449222038 -0.3878015466992805 -1.7766775358641917 0.04813619338559452
Ni 0.9435912345194459 1.2284864947481466 11.910303772617644 -0.12978774491981518 2.7111899741388727 0.647547243568188
Ni 0.8136514268382569 9.005521135700723 10.345873079633263 -0.5807525545411417 -0.6539081527892093 -1.6081779761964756
Ni 6.31561770743066 6.384290463289651 3.4299030237807426 -0.7641092338263485 3.0404256474788025 0.5051479805319493
Ni 6.772588039594864 5.48723350897642 7.003359213756282 -0.7149196594755752 -0.8487275812983769 -0.11799075228488713
Ni 2.352997089846663 1.3998029561514616 2.4102240780175577 0.32289636138546324 0.6011822831504033 1.7598797475805628
Ni 6.259591544224133 4.413485060098877 2.345664471458702 -0.35420622724233836 -0.9326653577636131 -5.681047324480809
Ni 5.551465617817721 8.528836181047565 0.11626446513629328 0.1442622843869064 -0.4848992575852424 -0.4418849588072455
Ni 7.637431800333934 3.8392261385799245 8.48556022559058 0.8037145069227964 -1.4585762818745267 0.29823048320766704
Ni 2.371629304625056 0.7289969673895565 6.052749906679294 0.8125182212573555 -1.536548327674631 0.7187158932932138
Ni 6.151073232729323 0.7498837356642225 11.361678486008309 0.9053250180774473 1.5996010331607418 -0.010624826703697831
Ni 3.2865136064447236 7.467429030340019 0.48239026093609605 -0.05505554621324712 -0.37519079991380544 -0.5950424888012527
Ni 7.98286788157048 6.680759159808208 5.396994010768179 -0.30229539730566 -0.1707870701503123 -0.8710540127097193
Ni 0.3861420122320423 8.427811461395107 13.358870583832118 1.6409801103281607 0.12612366580466663 -1.6885786860427305
Ni 1.0631926608625746 0.10812790461117094 4.087134509690445 0.31098392621859344 0.044377240563794544 0.15587390048390576
Ni 8.261157679360366 1.4620737792266163 3.657216969211929 -0.7125316188593729 1.9594243494795416 -0.029342200607543015
Ni 5.577498910958931 3.370377075643398 7.4510143636660855 -0.6941685429711528 0.8389561037339099 1.3708031908236002
Ni 0.6986877012242287 3.884752021859205 12.553209546221318 0.6019060486903053 0.16111997937419348 0.30709384713556787
P 6.818372960616843 2.6934559458842156 0.5028764458443745 -0.43926423335494674 -1.4756450644313555 0.8928934771823138
P 6.112245325368392 2.2477260014835396 3.6891045153381277 2.5060815049988707 -0.6041238822772305 1.9293522126845093
P 4.151671913014213 5.1175681474496 1.7359183043248352 -1.3203026109708873 0.06487818873062375 1.072486061439398
P 2.23580101397145 2.128420618274924 4.513314505595739 -0.13295740089704844 1.4768007753023533 -0.7603348543855808
P 0.6788454101335154 6.7885743688585505 4.240870634577683 -0.08572700715517495 0.1367999145715902 0.23077399222690578
P 8.220775545543244 0.3198542538754686 11.826083201387965 -0.30512026834896483 -0.47341002599872023 0.03248640266347953
P 8.959033112234277 5.935322547105243 12.527970943869317 -0.06795888453847651 -0.25872265492103186 -0.5505449206095099
P 3.124013679641115 2.8424026479359146 12.144089961077114 -2.5958415445728393 3.1369361184027267 -1.794147410514181
Ni 7.853820828966806 4.535186542427455 0.5378012095037142 1.6199325456292426 0.708734870821102 -0.13009936262296304
Ni 4.301432733685822 8.029411413124647 2.640301401082461 0.3684514243074428 -1.8818230567552945 1.0658700987847771
Ni 5.718359934899252 5.750221577251181 0.3734380612222663 0.8129211131227291 0.4467841958810757 3.100947101902627
Ni 2.2251712151728538 3.8105839653158213 2.9745701802043114 -0.20933124897209757 0.4952913994528438 0.40662407872242234
Ni 0.022829551344905503 2.236883421682012 0.6808705302005413 -0.18247659067309863 0.8203199766899615 0.8736104605829857
Ni 9.081641226662299 4.088133655269426 10.528639934398651 -1.8012925061993945 1.1666172334978684 -1.3967163111449366
Ni 4.704264177626018 3.1798918212803864 0.8473170820411224 -0.8283798708799605 -0.7314729358485661 2.202036986212588
Ni 2.1103804897655567 7.072054172850362 9.974327844202287 0.787669794755108 0.060703745637959966 0.38950001744762597
Ni 5.938532764845116 8.889148429793373 4.352104216696851 1.6272905286562103 -0.6763718811093641 0.6368105738769742
Ni 3.9332938445713332 8.53111201264413 8.425901058042705 -0.4382728159759549 1.374201417871872 2.3448108589794265
Ni 0.6762152519103292 6.3109457767141315 0.9755315133289796 0.1205860238158891 -1.8945477034108147 -0.17872123739572443
Ni 2.9164966936956698 7.42243047389409 6.779930834465574 -0.7914200058261597 -1.2363494078866835 -0.4608216478107483
Ni 8.381767502630428 5.672649024660902 2.844758966259677 1.1533284868087623 0.33495869186663607 0.19130833003211567
Ni 1.7404190851042236 5.3837571821162795 5.879637758638202 -0.8467455178713418 0.531330295354272 -0.7015126420410499
Ni 4.25041154972215 5.332439955018095 3.9783247807351 -1.1328185397808685 1.5517317202832888 0.7131877643861331
Ni 7.909911751609008 8.497548122268753 9.092597598043655 0.32986919315887064 -0.015153824922302933 2.2227991584606044
Ni 9.274476323405505 3.8961866879297578 4.329031354900768 0.07943783171235351 -0.14620449571494173 -0.35703546916101736
Ni 6.697087788946174 7.9123171020769245 7.359590692919793 -0.025007320677615 0.250575086113233 -0.2366798161883795
Ni 7.682300837908514 0.4245739619005622 0.5627853997869949 -0.42316861334466477 1.1554123659209843 0.09747643438161922
Ni 7.10110340542442 5.879860716123881 9.444307018327484 -1.4499260623986965 0.9969524498774573 0.3754121718959922
Ni 1.6871868289796599 7.73136073610604 2.4685834311779633 0.12424136118028925 0.3262886748964639 0.11659695726115402
Ni 3.2774287827543658 4.8072964397843885 11.017917823886144 0.3566366910607019 -0.3423580696545007 0.18472861993206893
Ni 7.300858510436861 2.8442621688745726 6.121629892732445 1.4463486294600834 -0.5024688910378895 -0.7103778057411637
Ni 0.5138938761222235 7.957944750183693 6.34276948853945 0.9209699237035559 -1.4685688743108642 -3.0434235537648617
P 1.031460537381995 5.182827155913742 9.022025540449805 1.046125312057682 -0.6384573654517779 1.1584524382988886
P 0.4095155428366149 0.19732107536586904 1.6685555393360623 -0.04301841254305494 0.7530897427873933 2.204004137241288
P 9.313424498289832 1.7005365240765917 9.168775047362544 -0.5441459590617016 0.7185814245978785 0.4673123977414146
P 8.742625580905496 4.680201421598907 6.314483492171559 -0.6153223220962112 0.16790846305093665 -0.0762954294286299
P 7.6686365969811625 0.14879868048444306 5.9720365214587945 -0.4973750214547498 0.15151510929457776 -1.2405287360753539
P 6.746897046327935 8.049311062572674 2.118648419431619 -0.7672081844666464 -0.07181193973597955 -0.47282715691205673
P 4.396462579864397 1.6273306077203744 7.8779668471254976 -0.144243515333829 -0.44144581438729774 0.006513118528169428
P 4.330944533657556 5.033094089285994 6.627670299576923 -0.33454885802272705 -0.038904647484997515 0.04326780954969968
Ni 5.520788148003843 3.5145315794551735 12.432173235810598 -0.6855409492031419 -0.7067918881621181 -2.6092457337938866
Ni 3.891977324610905 6.163821590209277 9.010949826679848 2.161120450503885 0.09372828019309665 -0.7649409856990245
Ni 4.793807974468154 -0.07511631970861946 6.437267382210698 0.4841119857972565 1.8677151565990024 -0.21782257427256035
Ni 2.2483088364046115 1.255232141681778 8.301777572819894 -0.5001698105910676 -0.6929015033332712 -0.17717163352041745
Ni 4.895258256126474 2.7300080216485796 5.5195604941304115 -0.6667963216057871 -1.1907730048084653 -1.103655802173983
Ni 4.096015803725826 1.4008483584702096 12.967420148144344 2.92793088531148 -3.1088642998671747 -0.6162047247011646
Ni 2.718369825923049 3.297383940290112 6.635158340610504 2.996704552441768 -1.7843885313552041 -3.7016457605483932
Ni 0.7381076948541847 3.2336051474985332 7.328542244052978 -2.178648174975003 1.6697795510583564 3.793027394886184
Ni 5.763830310090811 0.8608184992444919 2.1504545536958264 1.391978539349635 0.6099787983961108 -0.18362510245524505
Ni 2.03278943447937 0.8928124358721561 0.34871753435566094 0.0798594926308044 -0.9038180945146176 -1.567647877292913
Ni 1.6618381355870102 2.861543686851751 9.90080368147647 0.8713100945845833 0.018565935927645445 1.8431014718153804
Ni 9.160379449094723 6.6572329819624025 10.433573082828262 -0.7296142853732726 -0.5096882916044642 0.987346551356577
Ni 4.941181947367755 3.920897038313614 9.5368408508282 0.33412976820743745 0.1242526740341989 1.1885083771440048
Ni 2.0473788102020736 6.110182274774758 12.45029015050798 -1.1846193265022438 1.4019544196154243 -0.23836388875902173
Ni 8.980903298796402 6.4408902100692975 7.978490143718874 -0.8162576336951296 -0.1262095406502536 -0.8718441127111825
Ni 2.8986323407974193 4.186031419313593 8.500765741086989 -0.3563171029377541 1.1181650515337516 1.3952191577741195
Ni 6.665272403334013 5.391232271262726 11.868613498199892 1.789190580729538 -0.34082569217037434 -1.299919419328845
Ni 6.447634442727415 4.336190047947203 4.299324351487214 1.7304555287821746 -0.8390741173690128 6.529988307341574
Ni 8.144377914143062 8.523239115535683 3.6949532175143442 1.0370341483896914 -2.3621100123795062 -0.05078880051709318
Ni 7.794297656233848 7.334912722253774 0.31875334346899953 -1.6686194693119842 -2.068250404546025 0.09509636418521687
Ni 6.965228858031047 7.628874303476926 11.33581634280424 -0.35617055005756076 1.0016701670681005 -0.20118882237062127
Ni 6.559538747573213 1.2867514841594263 8.474403099958632 0.028886086906730897 0.01132673786672888 -0.19949652226986286
Ni 3.9652572517507507 0.64816146437607 4.166006876668194 -1.111647562130208 1.8990121669400715 -0.6712145052781407
Ni 7.868326942557928 2.8036672540545196 12.132065984141922 0.4584588040055265 -1.9218885573176125 0.45957209167436336
P 3.628730218593445 7.938692695092414 4.887419589005454 0.044413493118368674 0.26833189587602174 -1.6559202765777612
P 3.981669143020298 0.3182852252625514 1.2979187862741226 -2.4460860982818455 0.042686740235249064 -0.8676156764521316
P 6.694229122428536 3.3488676916514604 10.491904681944806 0.5578165145702587 0.13555138687646978 -0.6624290457760269
P 1.4662461371536544 8.316267959119495 8.234766359053356 0.8235832208222654 -0.3347861708445138 0.9424031538766674
P 4.689332502029034 6.299141056725437 12.33411449831204 -2.0231149456599673 1.1715920610046404 -2.4622179708467016
P 5.553806208849962 7.671513766194708 9.45654747680479 1.5076470712592487 -0.41597312403749004 0.6079831081223207
P 2.309053187067435 8.434213394178943 12.105080727296295 -0.22543792472597304 -0.12861300788542365 -0.4075386201168917
P 0.3991457069155124 4.050878477060594 2.0043951973404215 -0.7979724622326967 0.3636871701495801 -0.9941157517596103
