# total energy = -340893.2166122567 ev
CRYSTAL
PRIMVEC
9.05921258065141 0.00000000000000 0.00000000000000
0.00000000000000 9.05921258065141 0.00000000000000
0.00000000000000 0.00000000000000 13.25907333102618
PRIMCOORD
 96 1
Ni 6.455803335604252 1.7743736372875858 11.323062852299756 -0.4190576765000848 -0.45503615147722276 1.2037933283275333
Ni 4.570535875592545 0.353117240192712 6.146760977064787 -0.24130728765806186 -0.3135977096923567 -0.804767373667343
Ni 2.6798600655958444 1.5036934208694803 4.724804302827803 0.272881205809601 0.40126487129303795 0.35853210831120186
Ni 3.754934955745093 4.50126913524873 5.113295050870435 -0.3390063795734484 -0.11725618811170774 -1.5334740596246814
Ni 5.080569550894239 4.607243805473938 2.8790485990297427 0.33087140917113983 -0.02072849079660301 -0.7364763026004284
Ni 7.2033876864612045 5.932941815112021 2.6553811669451743 0.1798592076549096 0.8620538660936379 -0.9091528764639696
Ni 5.11290188103903 4.492101211991087 11.462310198948554 -0.22900687302415398 0.5880935682872452 0.14563242526155565
Ni 5.801809711204525 8.120089420098477 12.443720077096394 -1.5118451685009964 -0.3126044925411519 0.380396512484461
Ni 1.7949652277664623 6.499631806671918 0.6240846336535716 0.5782009917638816 0.6507986606259502 -0.7564599448112069
Ni 2.598925059287757 1.5310703616645376 0.4847928968625189 0.6159386155239714 0.562185847282548 -1.0160626883443469
Ni 0.4616719741963558 9.091010541776258 4.79871026599794 0.34978778645966857 -0.13773451057071762 -0.17326432804621125
Ni 8.538715639204895 2.4657908693724155 1.4316219482721417 0.5094586920921613 0.16729139829222803 -0.42853733385574583
Ni 6.787705711483971 0.8984981516274819 4.942518926243796 0.8626421344969402 -0.546254263653956 -0.5659643404883736
Ni 0.7198704073492626 7.77556756092044 2.722763591046311 0.08200225000542007 -1.4598451212846213 -0.23775787974390666
Ni 7.558019627018223 3.9157178628366465 3.8438185152807063 0.666884253333903 -0.49927635224252076 0.5206455619469162
Ni 7.484504115915678 3.9942068817143355 12.602974695004583 1.1347383825114006 -0.6427698767842027 0.12089609885714017
Ni 8.045196908664744 8.69911805936283 6.9320687955473845 -0.3382975264318819 1.1862897722261312 0.03848941432444984
Ni 6.836543927177602 0.8455126283574189 0.3528581467093438 0.5062903216665088 0.06853635430850132 0.19827756226109722
Ni 2.0345723446057966 6.21153072422175 9.1163292294447 -1.0227622118517097 1.4124627753459158 -0.01574852108350836
Ni 9.083038434595698 4.901151843268128 1.219957067100668 0.16777296591433688 -0.20458962052205412 0.9265607875277719
Ni 6.209999717274574 1.9049893660708863 7.056160985261683 0.40093577008839343 0.03138854161361046 0.34649831707511936
Ni 3.5378852785416592 4.113326469574761 0.10717773367245624 -1.390376484969838 0.8387889820284263 1.0369274476084982
Ni 5.986155630542254 5.682880366810908 4.863017087385668 0.059099634375633696 0.6439104181465491 0.14499967677356318
Ni 5.3134547319063286 2.672422451964891 9.426538414580591 -1.1290593298487523 0.013399047014725312 -0.9084280824828033
P 0.15950102849377057 5.791328202104631 12.495443652036624 0.10771173895638224 -1.5008161643803444 0.4991778789914435
P 4.134144540371267 6.127062624958641 12.679731592413042 -0.5645222087252084 0.389831946865748 0.09059950475612784
P 2.3393967337097292 8.561173427501037 1.449270200543105 1.1182223871342483 -0.42572506121793136 0.0796499477231596
P 6.340696978972221 7.828047580121555 5.8226957260963195 -0.38080660343868605 0.18538270857630007 0.04856582472384539
P 4.551991667185039 1.0302227280458969 12.562468237235906 -0.004182156402147636 -0.7597656121456722 -0.7199101707116311
P 4.153404426582482 6.12597551943402 8.230358157145941 -0.21569575773754462 0.3300327153199284 -0.8799975950562522
P 4.828279536267652 1.1166023211897984 3.861890738706272 -1.0096429008609322 0.37385922558657547 0.3194384847438499
P 0.18095415010090984 5.82531836817447 3.7026759813339853 0.3415283746643537 -1.051723117860434 -0.8990163022506
Ni 1.328769082745139 1.2056272044436127 2.4723261854179333 -0.2018727358115233 -0.16346174013349268 1.2403662423555606
Ni 1.9965145920313307 6.356786140736623 4.893407122326469 -0.6132996352392276 0.4630762481728799 -0.8579082193563805
Ni 6.108291936233505 5.561831166644279 9.239824417041726 0.17985457966921928 0.4991717083438564 0.9474486867203747
Ni 8.823655056420955 2.2186283691369604 10.372798547432328 -0.07321807605488681 0.8021530759729476 -0.46972203562417164
Ni 2.489942730444428 4.994407378855262 6.938990034054142 -0.8236269295760072 1.1935333411624218 1.8077914836601767
Ni 0.5322115339252482 9.185045169656037 9.052154672562466 0.20842544932837653 -0.6907931987410167 0.7462356959800374
Ni 1.5797364523167705 0.8600889016000552 11.383100066739532 -0.24451036797639178 1.2797704551847957 -0.15811410266833417
Ni 4.280305878156659 6.811975342321151 1.6083653763076837 -0.6439055330505427 1.578484820007417 0.3412015874525543
Ni 5.824883525964621 7.7506094299176675 7.943616862522821 -1.1423642744877744 -0.05310999245110209 0.09969838173360249
Ni 5.465196544718112 3.008800078920969 4.907766880385451 -0.012515873078823606 -0.5062900645561925 -0.2871783391585635
Ni 0.8699897151655476 7.278742217742901 6.994717781010063 -0.02354847674390138 -0.4300195748282271 0.23302010794860514
Ni 5.221231946567586 4.423242136219006 7.246521315914383 -0.5954844614346777 0.7590089364853057 0.4796518931433739
Ni 8.160674693017688 7.216351419842318 8.972547746836957 -0.2703000753459861 -0.3454282239393922 0.8129002871871226
Ni 4.4595514607413715 -0.03954165161557435 10.375078751270223 -0.3277963697902419 2.781276446543313 -0.4459326465140579
Ni 7.882058606269844 7.340181798309438 4.39106018900512 0.29386115049537775 0.9326602155572905 0.7523698339022332
Ni 7.4934636772811025 6.099794394716046 6.7962693852541785 -0.12840243453651434 0.5279948032231359 0.8901333979386734
Ni 2.369038477681082 5.2479022687716395 2.639218625557861 0.22742924412438897 0.371239014354909 -0.08027421157071982
Ni 2.373604320884493 5.384216242346498 11.454579972747222 -0.8467174928468838 -0.030104532694864284 0.5511478443008314
Ni 1.132600890827148 3.4170353810545437 3.6587351760287747 -1.0866806077722253 0.36133075410226156 1.3949245093518363
Ni 3.7798387314716355 2.692262127789237 2.7271790513188168 -0.6069135292072256 -0.017384771135350703 -0.2688165488219242
Ni 0.9581657501888866 3.3243505758678364 8.243457778717634 -0.35460294846012475 0.5729888514353229 -0.7865619064029099
Ni 3.660039702658321 2.774900266085899 7.063307798164802 -0.6602384658826114 -1.1538064548864453 -0.20644441434260574
Ni 4.029075791416577 6.898391172315873 5.896707682055108 1.3457465049652886 0.7052168303655144 1.662846314273633
Ni 0.5714786913958556 7.419431791054363 11.30713856820659 1.2385261038230282 -0.18888969328829402 -0.9856781625152186
P 0.16406868353972287 5.412879591345692 8.035714630726233 0.36097491342473964 0.6239211195088158 -0.3290605812146462
P 8.525054346445481 1.6515397722180354 7.9508696682145885 -0.7952370655794047 -0.41264303122299256 0.2988313500164595
P 1.7974383928349766 3.4732206182520766 10.433047747449406 -0.24274427721490452 -0.4261356663927887 -0.08642583299441245
P 4.0549217252644585 6.34740985558676 3.809861868297876 -0.35499632724380153 -0.7707668483521823 -0.9291362615644321
P 6.877600279157483 3.697852856489747 10.550868244207908 0.8837151531171554 1.4102703956802876 -1.0379062665819996
P 6.17802975563799 7.736631064713572 10.25473979337968 1.9746236829277994 -0.8738331181167532 -0.3427684177190419
P 2.358738152835291 8.387888806876335 5.867338620386182 0.2545099023912649 0.04586693773544359 -1.2320986030301295
P 6.861275577862746 3.969112862520984 1.5028101476307252 0.10894741113569623 -0.21248496410973083 0.7954226992276495
Ni 5.289864542022038 2.7276383534029693 0.28637349058729045 0.7366025437656475 0.6476014938448912 0.6450740994373471
Ni 1.5532835512176417 0.9121449496465667 6.959568035713961 0.31069776243674235 0.8234060718144529 0.8207532075726381
Ni 6.793757265571032 0.6545770376979405 9.198402978789828 0.2662660144859285 -0.3132053593499444 -0.31035503438534295
Ni 2.515045808850485 1.8237825833816432 9.14703724275145 0.5849830476827216 -1.2307911970726158 0.41111579594518877
Ni 6.3727665919485625 2.0197061765565945 2.5224462797093476 -0.09734890766481943 0.7773588997474031 0.7047342343021412
Ni 4.080985080217265 6.768237463380537 10.417812869443102 0.35677193108698557 -0.8500090191139619 0.1820922107504864
Ni 8.125053868660917 7.366435396729053 0.5939799639129842 0.2153442879353969 -0.5338959991989192 -0.1221101737698994
Ni 7.320378359335913 3.5460385699763224 8.375876290829265 1.4790317215154012 0.44888915803922047 -0.08379430890883634
Ni 3.1268778573202995 8.30814961664533 12.41626069746572 0.2417795993087901 -0.6741995560483937 0.7532136699597674
Ni 0.09434173519048518 4.916027070530035 10.16400815445221 -0.7644907855354834 -0.20622329947073517 0.9978806181186815
Ni 9.039789753141164 2.189856309585305 5.86411716434822 -0.9924697315157553 1.5621786266482258 -0.02194539392283962
Ni 3.6657198290244692 2.5991243619672706 11.235725700372917 -0.28619386375810707 -0.639143592885525 0.9168127070020725
Ni 1.1917937866428012 3.3171575609799224 12.564510183779655 -0.8152441048289507 -0.061370689797997535 0.28678238927172545
Ni 3.1610129707934216 8.309010241852324 7.958440452272309 -0.21098523963575275 -1.0807081922388742 1.104003672431705
Ni 5.560798416395889 8.146370196156207 3.684987868527119 -0.24865575760333308 -0.9492091210549071 -0.34503201694223806
Ni 2.9790858612479756 8.392771722524428 3.6425726346414615 0.720243899901966 -0.20101295891438928 -0.27191807056538336
Ni 3.501702782997166 4.364574674740253 9.303202669127174 0.5648063156245305 -1.075571128122625 0.24632016749162092
Ni 7.19266157861827 6.271212817523482 11.779784872674002 0.47726513807875226 -0.14404759727293903 -1.7289851148842352
Ni 0.7026415966265492 -0.10659432037424257 0.12795141432670695 -0.6370494293606577 0.2682573338843444 0.12745266902873534
Ni 4.564955400566153 0.5629349478935993 1.5666386425876195 0.005160718265333047 -1.311253870505058 0.24944071539847365
Ni 6.011023169417976 5.688950039323379 0.537234867370271 -0.17958718494044557 0.02696598706588259 -0.7360268737678356
Ni 7.921275938070573 -0.20938195956976807 11.328525557560981 -0.4185007755553502 0.3909984563700234 -0.15690285596905235
Ni 0.22738352113623336 4.871401388744314 5.708547834168497 -0.539449839137613 -0.8492639134178213 0.33030216693123116
Ni 7.8648461021300005 9.133860617871765 2.5306131599630683 0.7037577293214848 0.2790693368981839 0.6389433039492608
P 8.571319745730841 1.8793699125406342 3.7706282299142777 -0.889376979388623 -1.2179436516859863 -1.0818567040210207
P 1.8750214904421474 3.3175924031897708 1.708869187980233 0.2638746314356165 -0.3503806828486611 -2.6971710341519612
P 4.380392060123499 0.9660382060296888 8.270943430065152 1.5295646972679464 1.235386786863098 -0.15353753904124526
P 8.550402023594579 1.5757232210883751 12.475820491395933 0.600386012501353 0.4676201587898205 0.29597973950027734
P 6.339863531403345 8.065824735994443 1.4972541324786377 -1.333904260914722 -1.1296861647994738 0.2151324290349069
P 1.9084952813877913 3.3366348682960614 5.755617691542077 0.38925344865445866 -0.8967239066719975 0.41355320174208776
P 6.953869790922402 4.128727131173569 6.1560158687644 1.296781902141128 -1.3136997609423893 -1.2590985286577414
P 2.3019368891738057 8.304553109201374 10.233366392844346 0.15379053559231579 -0.7900521789443555 -0.7948804535709343
