# total energy = -340885.1113546272 ev
CRYSTAL
PRIMVEC
9.12411063596270 0.00000000000000 0.00000000000000

0.00000000000000 9.12411063596270 0.00000000000000

0.00000000000000 0.00000000000000 13.35405819497019

PRIMCOORD
 96 1
Ni 5.664557998809543 3.1220060032322006 9.888466399964265 -1.046672442810404 -0.9340478399334365 -1.1923550045836047
Ni 4.140731185298716 0.39215883000582047 6.269196376180483 0.47774310615643534 0.2814797461118894 -1.18893440893783
Ni 2.723072521203269 1.9324957214100065 5.077159628169468 -0.5225582055885969 -0.39308902035046495 -0.4010681819011996
Ni 3.470720381240657 2.6058641981205977 2.876957943548569 1.3887628606258147 0.9388668585886346 -0.10894766824601236
Ni 5.563517599477649 3.0724347110550125 0.639559085368318 -0.8035453283347839 0.9204369340182212 -1.576013218538473
Ni 4.853506695124212 4.519317900982142 2.6636937226831288 0.1344247294711943 1.2107615321152503 -0.16002391809653732
Ni 5.028789981341027 4.626562695432845 11.997432454363082 0.850075096465207 -0.6440608276814843 -0.9030513915519222
Ni 5.629083457306707 8.57974779004463 12.969674855646112 -0.17510858034380164 -0.9259313814738893 -0.8559168999579646
Ni 2.56954111434416 5.478499138129032 11.520319031781927 -0.23161140052653661 -0.19519660934292835 -0.17112002800969886
Ni 0.9936612506086221 7.734061363019596 11.53858732576263 -0.9105086191609157 -0.39313375754547136 0.5173404088330832
Ni 7.870959516494016 8.847786783287635 7.02247198755505 0.9180010708832191 0.31994807739041675 0.1775480430232297
Ni 8.688470690391284 3.0521974340351337 1.7538018426999404 -0.22453701017825847 -0.5888821256268116 0.15879673055765556
Ni 1.531883403054809 1.5512538895801486 2.6199591239728557 -1.987349872245216 -1.616171021704281 0.7375605368035426
Ni 1.8781251471262106 7.030957410291068 0.2590289341550294 -0.11845432218486697 -0.5540495913286588 1.494199173284459
Ni 7.446569766257031 4.101013932427871 4.168002239079021 0.7708360110272209 -0.20949245714031015 -0.46762607232709147
Ni 7.800484887232725 4.342556508869376 13.107568449572682 -0.4230027771907618 -0.4595746627775246 -0.3535691078789718
Ni 6.872790955313789 1.0790538004864614 9.35740211218088 -1.1676112219800214 -1.3136066870079506 0.26513678597749174
Ni 7.030738431639815 1.071663271006704 0.6721859919938298 0.8027148620136885 0.5187018079569842 -1.0146740355269364
Ni 2.2802246954878282 6.768146532346705 9.427684222711278 -0.8916997139845289 -1.4752737971348657 0.09805493259290855
Ni 0.2818966922230739 5.557367949021653 1.5552000673579205 -2.470721894552655 -1.23305556762676 -2.2346563149095067
Ni 6.589605938692516 1.7952873481796454 6.935309360246256 -0.7292890408233699 1.0777557944787697 0.3101694007370981
Ni 3.3921709142144447 4.354171501496205 0.3301258277502959 -0.2542553631782976 0.43195432995709476 1.7252904396414674
Ni 5.694156613170448 5.815452537743159 5.013006182640986 0.680684392441789 -0.2713074335645779 -0.024816801933363712
Ni 6.542908741313011 2.1189742911720835 11.730965545353857 -0.15842186371674008 0.11706129849208227 1.2022085003389167
P 0.23893673049160488 5.9188743299074185 12.558730394596003 -0.2913838925994788 -0.2033233522151208 0.605416375836409
P 3.847965852685164 6.373948463651099 12.998266168211256 1.2858416010795404 0.13127641365019974 -0.40181020227354675
P 2.5069770888593492 8.757248235105372 1.6032485454978596 0.06012293343382548 1.3648652280726108 -0.2217134246865343
P 6.297908127003818 7.752209218742111 5.890568601999948 -1.2041561109835908 0.7408420357682919 0.9740521482405159
P 4.594847287443169 1.4112626626567928 12.826265736941128 0.21811465159168245 0.7864351510170585 2.277546429404813
P 4.420522032825582 6.275170843715477 8.429361464064128 -1.5160419801911633 2.4879354302174637 -0.6193245012770688
P 4.86841549163029 1.3656421103126108 4.22422227055485 -1.0836446491593787 -1.3209705835721894 -0.8927780346503721
P 0.20936913810629382 6.193154214711108 3.772962014987142 0.09633589301927278 -1.8471283335865865 0.23124733231889852
Ni 0.7858194885948114 0.3351066796552337 4.606094578418104 -0.7941916550340258 -0.23985512859256758 0.6220069332052385
Ni 2.012961251634674 6.647096958756653 4.878290516390711 -0.38963371481201287 0.9231473909708489 1.4583302273019916
Ni 8.167401865626509 7.127235023958228 10.141112106435296 1.0997220143372157 0.7073878698749043 -1.7713985468534397
Ni 8.602840913641254 2.44934008302771 10.385077134206275 0.7079727958440969 0.9466891828465308 0.07458975959143282
Ni 3.4260852328271096 4.507566046698281 5.166084121209794 -1.3557861485894778 1.5176936568619732 -1.4853386375700353
Ni 1.2956510589061672 0.7363850580746562 7.701686281843023 0.00291100299920789 0.29297437701505025 -0.37792542523614914
Ni 1.4400036106336271 1.4581240940247362 11.662979973428465 -0.5266755701910801 -0.390006010549767 -0.6146834029606316
Ni 4.189088970783549 7.319644265525049 1.5692220003264281 0.11968048128248422 0.483319057582316 1.0951634484322559
Ni 5.647705766773601 8.276608343828011 8.022423399920887 1.1124384334626196 -1.2051866091306342 0.29136358088450465
Ni 6.806750643740351 0.6910975357625869 4.7320775585386565 1.3111715952038967 0.7362701001268933 0.9678922992867073
Ni 0.6728721251010863 7.20625894472882 6.998634336544167 0.06918992873210018 0.5068654774436884 -0.22250892400463615
Ni 5.2729238051556795 4.575412932144548 7.391110685594304 0.5859328131905005 -0.28795018432758146 -0.7272051617111476
Ni 0.20573591731760318 -0.03452654642512361 9.752495256113479 0.18655924538290453 1.2868836691908097 -0.7372594606233561
Ni 4.269426763461653 0.9817086658944464 10.903695222899122 1.5135097006876128 -1.9051915562779058 -2.3764809363891977
Ni 8.106133463828273 7.407482077008536 4.8712932360721615 0.5822093415923263 1.376179110423533 1.048453960190859
Ni 7.292883249519951 6.182688860003353 7.236483473067887 0.4282668538031786 1.1063387483227851 0.3020308307903637
Ni 1.9873407494381818 5.811127709380929 2.7633682426778376 4.365367556993914 -1.2909665810109316 -0.547050020082374
Ni 3.9999096643226957 4.519290528650736 9.478950774613578 -2.513814354866754 -0.36510204821923575 1.085994380338478
Ni 0.8553260497353598 3.792062427842604 4.169284176599892 0.4056640288019982 0.14987628813957413 -1.0297520129059814
Ni 0.6712087997626175 0.3615492642049683 0.5291035164436321 -0.2602810005470872 0.2094448917318264 -0.3634488288865289
Ni 2.863857545737414 5.218799581854543 7.243962506419193 -1.4568199613050525 0.20872806817045989 1.4438348618992942
Ni 5.147886995290747 3.3328276997251334 4.817623393472371 2.4515571486987455 -1.1641528311177756 0.7354383482542174
Ni 3.925265316577146 7.127910208132922 6.20516336891019 0.9206963583271951 0.14576380863309737 0.055559996653491414
Ni 0.816794931225464 8.033067587193832 2.683124428337563 -0.05634624000021264 -0.8512776014137404 -0.39522020776085487
P 0.045322193931850774 5.945872572784705 8.526952949638803 0.014401263026994553 -0.6736369986767043 -0.05741633313593983
P 8.575915663647718 1.701272513908756 8.203103597480018 -0.47663624624550177 -0.8485964550371514 -0.36701649163312916
P 1.8194662409220619 3.4649995639766966 10.195476293841764 0.690831765288436 -0.1490404225018401 0.9225202989098112
P 3.9997089338923817 6.353592573195125 3.7586335119068814 -0.469480866147643 0.3552426389266527 0.01804168799305925
P 7.244507215814182 4.275038091399987 10.598154310807105 0.2792752822614029 -0.32828847893531204 1.5958788471141483
P 6.368118157061513 8.28932735382157 10.553645075118027 0.5856201670460882 0.88455564674058 0.14703933291141127
P 2.0182897321484745 8.63902713576066 6.152040972938531 2.10135541463011 -0.4073180194656533 -0.8927674931274108
P 6.882243533759503 4.416790271643828 1.8486953288089791 0.28222279492550106 0.60405883336725 -0.1713653112512855
Ni 2.4844496601117925 2.0997406663037768 0.47172837258244843 1.2742793501632377 -1.6279726423248992 -0.04743428222256347
Ni 0.9872834973909054 3.416012214869514 8.165966643049762 0.4114636662029107 -0.26887671263589824 0.8664445389621658
Ni 8.008587598805944 9.223745755156036 11.90507547096438 0.05799868800197108 -0.3403089004349558 -0.7681440660173546
Ni 2.9292774177989704 1.804913284724268 9.233329720792502 -0.4663464342837194 0.1426095792748318 -0.16256365379925553
Ni 6.3684010044860475 2.3553799934196333 2.6340348891931296 1.2018560020955045 0.16795859956258172 2.6078295701726506
Ni 4.831107003923218 6.904314756983619 11.073999482033093 -1.94235839513619 0.5515083129640437 -0.660419728655482
Ni 6.944479091267437 6.195672469200506 11.652376844652629 0.7018797955724816 -0.8664098290694885 1.561071766737292
Ni 7.6503385253575535 3.760848845928715 8.393666119087948 -0.02982942465660669 0.22816046586345867 -0.24145178365572612
Ni 3.1154092713632315 8.624702282324586 12.397707180630933 0.5323690210314315 0.29234342829927074 0.6384493950319778
Ni 0.36077827687035163 5.06529554732684 10.507119411015339 -0.34045622464609754 -0.3902962880966762 -0.22876030423098667
Ni 8.868343404173924 2.359923800433114 6.023668388286191 0.12304399843807842 0.31135005130876053 -0.01232381167267555
Ni 3.3522073103609413 2.9389033543435925 11.66041609838672 0.09604330147951846 1.133583442971351 -0.10400857907318216
Ni 1.13888971694109 3.7943799519016883 12.810374273737557 -1.0095189736885581 0.2606417263206156 -0.06970003559929931
Ni 3.3314225867129323 8.450741992125753 8.332344797448993 -0.38608867777323186 0.9923576314179231 -0.3512612856814015
Ni 5.765753508019406 8.047702660385845 3.703080452906325 -1.4726070489359802 -0.5499625657434787 -0.5785527186763455
Ni 3.1638674220632215 8.802914408001898 3.8326683690731134 0.42209080689945366 0.0993692805289579 -0.24237378124936326
Ni 3.825000466635103 2.8240946723142253 7.117526058008339 -0.49242127699390037 -0.47215044256000627 -0.14892832240400802
Ni 6.212752803998168 5.681674830049079 9.379769868995233 0.34118024729631563 1.0713797157490967 0.06176921078799685
Ni 8.045567618536138 0.2330580661165336 2.5876825831893475 0.36292689494478786 0.17249891063509645 0.7374877745840783
Ni 4.789637921842357 1.0180773702232282 1.692559900822064 -1.4345706629885486 -2.100727294127808 -0.20616082166391592
Ni 5.956483913259961 6.029221321917524 0.3921925892145552 0.21504629707900383 0.041983286410321244 1.7299793604767046
Ni 8.292247069171596 7.578431410752655 0.38694348846183363 0.050345285221771355 -0.49997826340555185 -0.22856541461136118
Ni 0.13373482437487494 4.854930056357349 6.387005978143051 -0.3824130286938575 1.0254572421853694 -0.29527191479997533
Ni 7.439562449416965 6.367771440863698 2.834719698955185 -1.278956958144565 -0.35759416987796483 -1.0393795086934166
P 8.523515897225192 1.9763096998813585 3.8463162135123987 -0.29574165534754226 0.34176285927266303 -0.13450957587551673
P 1.698371046779666 3.564926821831392 1.8944062098468022 0.5787365525523775 1.9175269379148074 -0.7041176837640648
P 4.821745666582192 1.149437188643065 8.170520486584758 0.09622327870080848 1.058997282924344 1.2931620460003537
P 8.556043351046593 2.1554433607160224 12.698734395274016 0.724182829945056 -0.4891027541436286 0.6385856634995261
P 6.557616807388776 8.12144372119498 1.5812138187156197 -1.0774086955519961 -0.45313147825534217 -0.08437280712012567
P 1.8003877259317251 3.50378615757972 6.172499053431756 0.4368489390452348 -0.20744200236918467 0.22544435248387623
P 7.0717969287495785 4.304189624347919 6.289961939196508 -0.3614731932173968 -1.4569564868829166 -1.2498613263301896
P 2.3539840045179012 8.794237378946034 10.297594250620026 0.35370151969177793 1.1865450827700468 -0.5155311235384864
