# total energy = -381164.8847241484 ev
CRYSTAL
PRIMVEC
9.35281329120585 0.00000000000000 0.00000000000000

0.00000000000000 9.35281329120585 0.00000000000000

0.00000000000000 0.00000000000000 13.68878764854361

PRIMCOORD
 96 1
Ni 2.3801787892141855 1.1282018280097275 1.194942569506197 1.453267982287736 1.506380031621367 -1.132187591065089
Ni 9.315402196006604 2.3796924429147954 9.976950073344996 -0.3956102441104219 0.8685407593695623 1.5919756554050002
Ni 0.6885662848321897 6.584661253066797 3.7398861321402315 0.5914946235489942 0.11295601807445708 -0.15020976021959292
Ni 4.654633375191766 0.11490211907489954 2.488128962051844 0.15246564613330515 0.20724814119082374 -1.206766037802612
Ni 1.9947493469476871 1.3328787975452783 10.935562011476119 1.5874440860832337 -0.018419897268084403 3.6216669687309047
Ni 7.416285366583181 2.8762800730322358 11.588202269284913 -0.2895116152774304 1.0744722386314915 0.5705828130969915
Ni 7.81083380196324 0.8200949003768092 10.928950507648452 -3.3052089067716173 -0.7002905967084907 -1.9650782053312095
Ni 7.8315222253142105 5.63463987408932 11.817831609823202 1.5836848761511175 -0.2498127540259117 -1.870564710232656
Ni 8.23423566683595 4.974696004257571 7.66584461730166 -0.7695239770840167 0.10425309098382045 -1.836745961910998
Ni 2.817694049582652 6.957913332221648 12.622964814524357 -0.1521000352637703 -0.2727577928578593 0.26983419145316107
Ni 7.879333807669618 6.577235119187651 2.7682017666503147 -0.794247962193258 0.055995798639329374 0.23396190303658418
Ni 5.782171153446557 4.080043280902944 3.8842206198603253 1.4560486303566667 0.9202111911606603 -0.67072908100129
Ni 1.593186301480274 0.45152203379089606 7.054584947320185 2.3669709400162335 0.6417458063950625 1.1173304714475982
Ni 8.90905051005289 7.19478268565143 10.025230231654238 -0.20643490126090897 -0.19313612726947382 -0.6224689604433215
Ni 0.06187821378391536 7.24345472684422 12.293612971140204 0.5937919042236032 0.17347233029195933 1.0707703642998718
Ni 1.866120103572508 6.213840905408896 5.941427119744471 -0.47011232908405487 0.13256016545862978 -1.263777165080333
Ni 8.08445971225076 0.9200633822164037 2.3307762932909664 -1.1766203674571671 0.8899889019410092 0.9408934021003602
Ni 3.6232331663875286 0.06122164627973899 8.758893895960293 -0.2596353965432884 0.5399391200692056 0.8114026195956737
Ni 4.0284344562869165 8.860182059777655 -0.04547805539968083 -0.34190478416716596 0.48609173523144666 0.21602383050092472
Ni 7.391210473724252 8.104830139944436 5.966080200716814 0.5947750940724789 -1.0173814071557703 0.37642827186533234
Ni 5.285770579598113 1.8842365032247816 4.613915901838036 0.7997802048653967 0.2641628520999967 0.004866584063681941
Ni 5.496293057539792 6.901936743724559 3.3553685891850895 1.5569112076016993 -0.7888265340673706 1.217232998772207
Ni 7.385785841923365 1.633702689344833 -0.0832194635136823 -2.6987808018412425 -0.5917255086128778 -0.05323906182979864
Ni 5.009778407507793 6.799270910486041 1.042048386916841 -1.3529224538884377 -0.14292839606683128 -0.9348312550666803
P 4.741408778379064 7.669933667341915 6.401274092787039 2.349868476007992 0.15215274287857666 -0.34791319514477503
Ni 4.0443716504053855 5.776858755407067 7.145273567654883 0.8834289893353044 -1.7990296783071469 0.29503383064724026
P 3.6406761634714164 7.288937458650626 2.663550331116402 -1.6739290544503558 -0.4331892308054604 -1.7327345546243385
Ni 9.38732533143561 9.512746559797506 12.035250852402768 -0.10526739118094773 -0.2063701094612446 0.8699144997886373
P 1.4448787386067032 3.0688732075906375 2.0323055693553824 -0.10069596976018141 -0.584132269646652 0.1429091127931216
P 5.136630616327509 7.336496515042888 12.506063063933889 0.5272844074196725 -0.2997469198521934 -1.095423644072178
P 5.907134093949413 4.287021042547148 8.069855294048889 0.6272208733060102 0.5236146718775692 -0.015454129771541125
Ni 7.824273794890612 4.108503892230704 -0.08355335895384036 0.5013072666296206 -0.6242527918166216 1.2533351438114029
Ni 1.3865265354933645 5.719825298990152 10.729011673406571 0.18934117900341588 -0.09306313580527198 0.4822543637632275
Ni 6.56954710653191 0.8156092910462822 6.66616634587513 -1.6149083529417736 -0.3382700156280561 -0.1935865845433311
Ni 5.73189978115385 4.947881488096978 11.838173043795186 -1.4783820037465443 1.0858869082263363 -0.9099609741875619
Ni 5.932751449988431 5.89668700132598 5.54697034193622 0.6948077192170485 0.8469697180670058 -0.0023307050157056635
Ni 3.196426877419089 3.4852417567490934 10.50829369352326 -0.8753768084547892 -0.56081030709126 0.38280897858069557
Ni 9.32759826474515 4.688359620491766 2.1036385422557067 -1.0193228471528575 -0.15424202130743758 -0.3342066441919599
Ni 1.1494046561004374 5.348462488152162 8.234859499493052 0.655469069518426 0.7552309575001123 0.6584093830936726
Ni 5.911099686852131 0.651324316956408 9.367429091383839 -0.5268136384308411 -0.56899232868142 0.6475937805354073
Ni 1.0896775894099773 4.081941902033256 6.217611959791856 -0.9797155171738805 -1.4372893474712924 0.9685885540227834
Ni 6.756378908005232 8.399350235478822 1.4926800328673158 -0.399475383492783 0.130141271604492 0.5810078650850574
Ni 5.580851843939486 3.325925932445101 13.323283844737572 0.20391444883190044 -1.1868045070790207 0.8574235664104781
Ni 2.8681524781443546 7.527770902904867 7.4820590271689404 -1.1168967263442893 2.128289520016793 -0.4224795576974401
Ni 1.9697492765963562 2.010611718558558 8.908184439527439 0.47335037640537836 0.3224883273137672 -2.503615817067198
Ni 0.34796394214926596 7.981550705862546 7.576867561828277 0.8679812873216665 -0.055661555228362206 1.33764341624218
Ni 3.4223814975529487 7.786656779195493 4.624647319990343 0.09731599754435498 -0.8494528895001757 1.573734449806625
Ni 5.6886056076947 9.1060581725596 4.588263005107908 0.671100862518412 -1.8720361525718598 0.027518774245559062
Ni 8.711238505589497 0.8533722106312183 7.083125992843613 2.0090975483349527 1.944686529048735 -1.0707305122008721
Ni 3.2812381897819285 2.9149820150875323 13.016202920740099 -0.3659793086178665 -0.637424039091257 -0.20159094290504634
Ni 7.089049129601376 6.367039989716715 0.16700851336645778 0.8883757918176184 -0.02030143056151342 0.18741593695624495
Ni 0.5290147696292622 0.12289129232372367 9.85988371323781 -0.13863105424305802 -1.883851400039233 -2.864208407451854
Ni 0.11500406474150242 7.034213584345164 1.0837469704014555 -0.1415716249286207 -0.3206888122111832 0.0348333056291013
Ni 6.2037024556293066 6.906949851733655 7.9996998403618935 0.06082433037622429 -0.3183663347255936 -0.7960490199577387
Ni 7.796206001727744 8.895161582079929 8.497424772594831 -1.5984224394716084 -1.0437709528928927 1.8786875964501062
Ni 5.5467888973552935 0.9990020630141099 12.281224234444592 -0.03937413092224831 -0.12945195884695124 -0.534313546352312
P 1.7116116253817155 9.466543661355466 13.040665204318064 2.7813967741712613 -0.3017081573436223 1.5256800175015595
Ni 1.2332245702375972 8.653494235350395 5.034010611874894 -1.2721116530879573 -0.682763900678637 -0.023312192363379204
P 0.10831119143682137 2.9782163868216696 7.978701838885735 0.29721721145180424 0.5180160947438692 -1.3633498198693488
Ni 1.071149665965912 0.7690388270356642 2.950248668762715 -1.6072940309296255 -0.05473004455302832 0.6294855009704707
P 1.911200664400572 7.778884591218704 9.27171707494525 -0.8691526819219483 -0.42208437914155045 2.1763334107988968
P 9.028093119642019 6.609006626476641 6.304070302603208 -0.6997493794930401 -2.572433964282176 -2.219569595779713
P 3.2271508696017017 5.004568890416251 13.535199891883273 -0.5235190268399693 0.1581495838919599 0.26511030361493054
Ni 2.130355789156422 8.135404487111852 1.444263323481706 -0.0886305539552151 -0.2129973849697751 -0.15247361655310512
Ni 1.5590204739481335 4.019427696934754 4.0127039593456875 -0.0020206299744545846 -0.028463397547015497 -0.6425562181114998
Ni 6.998270722257559 3.064028450223638 5.794655288839357 1.3081942577431278 0.13734447422115056 -0.14807882991951918
Ni 4.885563692080922 3.8865616290668115 6.1664015650287896 0.21818381426672104 -0.5279696064121553 0.06542043438733895
Ni 4.22143911463711 0.40031257430917416 6.338798234223681 -1.2710731845211143 -0.05525095005350484 0.20038895217714522
Ni 3.0058258921254963 3.7172757056253265 7.726390055168978 -0.12069221037645021 0.11545487323691084 0.04633642117269439
Ni 8.075415541644798 0.8553054371712931 4.775251933847186 -0.12453883781605003 -0.483666927840038 -0.4714248772478913
Ni 0.9037866809697066 5.192607204824597 13.424676760065573 0.34000859558571767 -0.653691665903029 -0.5546304035327932
Ni 1.089209948737487 1.692082950898521 5.286883564398639 -1.6209134214852732 0.7747016646302142 -0.7413490573116974
Ni 8.25690688663828 5.093111975345562 4.633380977189772 0.21016994282330903 -0.1999356666898105 0.8678141656161829
Ni 6.677684335638566 2.714579281298543 2.081270353609151 -0.9136013991536266 0.7365909738014217 -0.5247770676167866
Ni 7.73672210818698 4.1496562714098495 9.690552896291766 -0.0770806443340866 2.1501765498978713 1.3162330688872041
Ni 4.560310251550474 4.439892778384224 1.5195104488107736 -0.08358887776624958 -0.2870657248400992 0.30442067117877897
Ni 7.1572311396504595 8.40813252730819 12.723125964321017 -0.6589670553693554 0.38030446699128695 -1.2428586697601112
Ni 4.478547956372272 5.047255131001164 9.563822274046897 0.6036767674374829 1.1067796925149456 -1.0679964010991607
Ni 7.248449129226415 2.3862861763969088 8.370434142136059 1.2229763290138873 -0.533383578338875 -0.6523503213837862
Ni 5.529785482503547 3.042947208707776 10.00870755141381 0.5562399141117581 -0.07417709753404644 0.561949820012342
Ni 3.7170231796621818 4.914753822857765 4.50873042065614 -1.0729763708122553 1.7550216481573129 -0.18065007898732113
Ni 3.015001002119756 0.5693338131300301 4.035058118772069 0.5455896334867636 1.046144595331392 0.4836581860892896
Ni 8.773696593807301 2.797136565619979 3.5417823198972043 0.19069460770751676 0.4693821357862497 0.43976405580950073
Ni 6.120911350971625 7.02372908046793 10.267658897398585 1.3992323926985708 0.3266110912328891 1.3447951967956129
Ni 3.8746180862914095 7.101778308706561 10.327684318838093 -1.8629578444196757 0.7151698278131683 0.16646993083219716
Ni 2.2124267271784683 5.395020793505294 1.9612204460114784 0.9369256757018638 0.5129857314088133 -0.2498680327438794
Ni 3.1510002624933824 2.503345989534678 5.336382394300392 -0.31369386895058876 0.8238647566184264 1.8682463465121244
Ni 5.020234852944675 2.1698433675415023 7.69307159253539 -1.4848730107875265 0.04430242146180112 0.6240949260825187
P 8.90183949088309 8.509554436357885 3.1271215944746835 0.48870860402900346 -0.6038382327160117 0.5814840333905277
Ni 3.801740963890522 2.90304782512558 3.2114858423546218 -1.141505783142221 -0.42792669685494045 -1.925860140370851
P 4.738350408380978 1.4865361697121382 0.6903199373540283 0.2201039141075693 0.6731644299156601 0.10431531168032358
Ni 8.696068242173912 9.247902941339355 0.5666336558870712 2.1153560997845764 -2.4123051451766586 -0.9809704726269043
P 6.6083145182813565 5.0625469809915975 1.8703672161600644 0.14992976708532887 -0.6666477118430648 0.19163074636854094
P 0.0637020124066275 3.8580916649256025 11.833888519953828 -0.2959514573655032 0.7023173973305323 -0.23819419595037686
P 4.2145367383111525 1.4643325905822993 10.648795398291622 -1.0703618160075439 -0.5020809115708514 -0.6742391510370775
Ni 0.032841469147648183 2.0412234769797726 0.37075955437047775 3.5407026730716957 2.0816371102655764 0.7999905211039899
