# total energy = -340851.5445961386 ev
CRYSTAL
PRIMVEC
9.47207520464783 0.00000000000000 0.00000000000000

0.00000000000000 9.47207520464783 0.00000000000000

0.00000000000000 0.00000000000000 13.86333951403578

PRIMCOORD
 96 1
Ni 6.1106346093626875 3.972787242228214 4.007655845364658 -0.12954400434012528 0.2425722704134145 0.17670420696569566
Ni 7.365409879950506 2.377509813227679 9.479502229752075 -0.7481437116360277 -0.035522618386642044 -0.96971315454553
Ni 1.8246910897537343 8.793410461349826 3.3889768359872017 -2.3328768265460016 1.2979867210825065 -1.8624305111612958
Ni 9.584792870196605 1.3771923701573625 9.807632910777931 0.3571198013447075 0.7869748255706124 0.14362336525132685
Ni 1.344797873056787 3.384116714214598 12.391884972825995 -0.7280649386082816 0.19102987955974843 -0.5391991565793876
Ni 8.930537693667086 8.559639646015848 1.0941790776079574 -0.7298675390346591 2.0076482174829358 -0.6251537063643363
Ni 5.327114022911661 6.949348977861974 9.56979383915603 0.21892120665337783 -1.7935205755634593 -0.4392516349494564
Ni 7.91141818137319 7.3975959913972185 12.885238955554996 0.196219651290804 0.2847864418876192 -0.000735849724760023
Ni 4.794669733140448 1.5030004726397734 2.8061894138651544 2.151942126438726 -1.5111008341358039 -1.5666124940498631
Ni 6.031324923917331 7.4950257566535115 4.720398244480997 0.3444491478555745 -0.16234253892738493 0.8603361120715828
Ni 1.9864362454523974 3.375042466196366 0.679640338000145 0.9270374700538745 0.3423148751213911 0.42992804355568537
Ni 2.9252799206330247 3.497734255946002 6.252698687261475 1.7521512685880534 3.421023477340792 1.9018164691580859
Ni 8.244854171704903 1.9344250806631398 11.659816698728864 1.2977509509226166 1.0812725493827766 0.6128913440572155
Ni 6.018802840535179 7.610935540577413 0.4758202243714361 -1.0779635396142015 1.3935435698439096 0.07041043140276261
Ni 3.3361501255253243 6.897707224004566 13.448478856137143 -0.21324883885894888 -2.531289885943699 0.9769515812754982
Ni 3.4251781601008533 8.970945566366224 13.19544562872605 -0.16347870941435716 2.3443267202541564 -1.5212973150528315
Ni 0.8583594524134958 9.055228091278774 8.520019849971318 1.219780447784409 0.22864691858157396 -0.837630442943951
Ni 4.042880598527705 1.2539512000475415 6.782347767648367 0.059801031318032494 0.04340999155451878 -0.49962730782403636
Ni 0.7994526168963965 7.548040961411384 13.22892562564175 1.0151316918896451 0.5922207030817414 -0.3572650686733202
Ni 7.517304077466538 0.8581321226092811 2.4485011222538176 -0.05410526648483585 0.5604472673248865 -0.06572202478815777
Ni 6.590897236991483 1.5358875176494802 5.205212204231672 0.6512411474800075 2.0640386804575224 1.0695390629959323
Ni 6.913999193306609 8.070530100173034 8.616454100126655 3.690423152359696 2.14870227934519 0.7156681076058254
Ni 6.834651619560551 5.462820443952582 1.0802096611389722 -2.382806878607225 -2.289579192199631 0.8837634898565877
Ni 3.697983397233507 7.575007959436336 10.751865249525963 -2.5189817580003067 -2.153682763278917 1.1514760069810555
P 9.151009715454512 7.678954512413446 2.9356035353669183 1.2045710870338222 -0.27415184499190853 1.726134018588685
P 5.101839659010203 3.2877004610020952 5.847334599668756 0.1201409658586705 0.3872024796627009 -0.2859573222672688
P 6.703122383672073 0.9325532700565068 7.870120880815062 1.1792336367102982 1.1194585735341946 0.8584298961878054
P 1.9273968008828395 1.1466231162327398 7.48700764501736 -0.3823994018471027 1.0994674751242484 0.7964110312828477
P 6.117009315955871 0.06929770198473995 3.8833983215884946 0.8697707751219215 -0.64296065263877 0.5738622551792117
P 3.507831488083199 0.770033298608479 4.567609883068387 -0.04212186887071455 -0.7516923482192345 -1.2097757711632133
P 7.881950555501877 5.4842746942253315 6.0679146031131825 -1.203928825464133 0.02287561904659286 -0.5382085105313441
P 0.21178234002132404 0.9053362092469179 4.398906540945723 -0.5865282806826544 -1.0144804314588916 -0.7449120920726074
Ni 8.577608172623973 4.993763281256529 12.774388206982385 0.6332663081691415 -0.5307134877058794 0.5660805543512638
Ni 4.791477643806268 3.330438464194433 8.081522443414325 0.3157515228105659 -1.7806072099359012 0.36202109530106685
Ni 0.3473002667662493 6.9017707442549 10.92435268568128 -0.4433252907981977 -1.606621173232317 1.2865522539933196
Ni 7.2995884295552145 3.572137406450394 7.059503528909177 -0.2862090332667587 -0.019214625255237875 -0.2716149375026677
Ni 4.08579857114838 5.372220044897902 7.562700892160669 -0.6313096986634031 1.6327893469872525 -0.11006378412832658
Ni 2.366929505256526 1.367095138020166 2.28447035481528 4.088955712323235 -0.13195724176730825 1.0635018556629168
Ni 3.8140163181346916 5.335989357351206 2.692911919632554 -0.5024046134588573 -0.4245503241835398 -0.1232723123988006
Ni 4.660346235075166 8.542514134098349 2.748531945063718 -1.3842269204286741 -1.1197177407328522 -1.127193480284607
Ni 8.766462407475224 8.458354746163083 9.925152947481687 -1.377734113615479 1.0365109288963696 0.47601043973604473
Ni 9.420262924396313 6.854647170256257 5.1160155667180165 1.3546996003935186 -1.1294743058989838 0.3881432463094154
Ni 8.12150880876815 3.339228549957397 2.565327803054717 -0.010469274962440035 -0.47774619148022884 4.717875056377591
Ni 8.181618597832552 8.71957563535597 4.963658184725897 -0.36174547304217697 1.8866736999793765 -0.1476427708233651
Ni 0.25514739459028746 4.577323496160973 6.508630369676303 -0.16386925998455648 0.33302265118618773 0.7663910878819898
Ni 1.2271641714509254 4.635737783768939 8.565574848320882 1.056410238923458 0.4533456511486773 0.8828751737143634
Ni 3.6863801051433884 1.4882335074410022 0.38701573077005136 1.4391582823592313 1.4932810323455639 0.16529725068033466
Ni 1.2700063674701951 6.328975414235601 2.806286029031946 1.0431739427388422 -1.0761198015372435 -0.11463880509351869
Ni 7.362824003427566 6.268373077262068 10.837679408994408 -0.9050275414416864 -0.5421263575285116 0.06024094706892851
Ni 0.13546867195401205 3.8936291099856675 10.501451998108443 -0.8653947575414128 -0.02149082288392428 -0.46382649607534315
Ni 6.260293397137276 4.867765737270606 9.024216517153837 -0.07154634477941871 -0.3618948541358477 1.2213884157014772
Ni 8.31027779494282 5.964291047899561 8.52776990188 1.1799383760868065 0.24672203091572995 -0.6318984812873375
Ni 1.5288497657940043 8.90594818651121 6.12982787529102 -0.27007510381937355 -0.011846100705308631 -0.533471510066991
Ni 3.1042642531512925 7.644305661421075 4.568399854138033 0.8070194029263134 -1.564044733322687 0.9025587681862198
Ni 4.517943056885092 5.873425430739965 5.242130564436117 -0.4887859942341582 -2.3787975003375164 -0.1662452164159008
Ni 6.372925843050417 6.6381534200425865 7.163492706224577 -1.2809433924469746 -1.862792522486405 -1.9805405626328665
P 5.620473663175383 6.414176730440185 2.900972681317382 -0.3505930559697833 -1.901087047191229 -0.33652192258869784
P 2.4983071879421934 1.6013774454136263 12.415438234957659 0.15750243722626422 -1.2695896579970523 -0.5421479547950663
P 5.908102697957862 7.723217519709056 12.049695837824501 -0.6581075355825375 -0.8244725654057543 -0.13371356233678264
P 4.298370882239349 7.797743807190732 6.320213744698165 -0.6121552372221393 -1.3941099838703408 1.304233987543799
P 4.5263258434155045 1.8389086745923202 9.73802547193495 0.22043327242253005 -0.831564182145213 0.9166502132822795
P 5.892881073150661 0.44551053101701166 0.7174414956109569 -1.132146196304192 -0.0358810301673253 0.7290697257237121
P 5.812747317165027 4.237957986769328 11.359245967633955 0.4023935855808425 0.4774883098331518 -0.6529535021854238
P 1.3603983808710116 4.179742612740049 4.771193194817706 1.5328176569876053 0.20965700774263246 -0.30146133144013887
Ni 1.1409872315032539 3.5447346929673635 2.8502194081114456 0.15478915206015922 0.5326253600166118 -0.26326553709670786
Ni 2.527130712701565 0.1087877305993626 10.397213705215924 -0.5400370790996507 0.944767797454102 0.18061768308748893
Ni 5.236163157075484 5.615140884851515 13.275020532276324 0.35160221396058805 1.4212690607836362 -2.845140592187126
Ni 7.046494580862999 0.06307549580188379 11.429366792951454 -0.31578469004134646 -0.8812741477758306 -0.4566500329315619
Ni 2.4524244557915535 2.4581077008969174 9.556138895582874 -0.5077293681058804 0.40958033313726877 -0.3932515140702582
Ni 3.7622893156007025 3.3317645547190184 11.680057576171619 -0.6966663696923421 0.11899708206221442 0.465941742646133
Ni 4.9468575649869235 9.007450944093014 8.555371528941718 -2.2096957883094266 2.2295639879882634 1.6987265731100099
Ni 8.993678546787681 1.7507615430081225 7.051088537323167 0.31937600693703067 -0.6275918834921838 0.5763469692742784
Ni 2.9544160238731916 7.759410318955051 8.133774198913045 -0.08476052947684756 -0.7762895779426243 0.2066519023677215
Ni 7.10684117180679 7.870375679637284 2.6659752322481634 0.262041949102252 1.023637158257495 -0.9894409719917604
Ni 8.071846718622444 5.647004945742257 3.379715988088011 -0.822896479167886 -0.25418825738578804 1.2573856597316926
Ni 8.728962461854996 6.2359217477104405 1.2190475502329479 3.5848711400587936 0.5643160062516732 -0.987736587706144
Ni 7.577593835959276 1.5900867318043028 0.040953464229253916 0.041820021359579594 -0.9925903162540195 -0.4666804205843705
Ni 5.69941393768889 2.05171778756268 11.919227474355692 0.9715067561108431 -1.3829166862576827 -1.9347224758574875
Ni 3.625701991568451 2.9983664526880074 3.69779585014503 -1.6304164758797015 2.4503309896011283 1.648770038686225
Ni 1.1390170398667276 0.5224635641586771 0.17570983613006033 1.4389932175362765 -0.684873233712156 -2.231344991148086
Ni 3.4616361774517643 4.811918382035228 9.889357975393068 1.3225101601451674 -0.4426436913501409 -0.8411114595140159
Ni 1.8953811867892885 1.9567507618520452 5.335666359587717 -2.0309256999536376 -2.7587764656685843 -0.7202618976240951
Ni 0.4216238518391662 1.535773852747373 1.9092179942058147 -5.522917538083192 1.0044194476784638 1.1018596295055088
Ni 9.079315578450343 2.8974983241429695 4.896323096717544 -1.5263731869138422 0.04557151798221184 -0.4862208046101433
Ni 4.741190396698971 -0.09976273737204436 11.267429354126726 0.5339322517534933 2.1819430436761906 -0.8688408071084843
Ni 2.3910264645032697 5.626895730144444 11.89744833190442 -0.9526055483309659 -1.0770865363258868 0.6975433729806567
Ni 5.907828007777768 9.035497758687985 6.521606165459366 1.642771140790313 0.7993366895700749 -1.7484301109827245
Ni 5.6921488560292 3.4584061998168822 -0.309221577352792 0.9011276921666481 -0.4285234498986749 1.909948354236601
P 3.966270454507397 4.439504802355892 0.6158260203345639 -0.6547666441347626 -0.4405107041675382 1.101517929895374
P 8.096985606138505 3.4571937741944043 0.7172501596924097 -0.38495456416878865 2.1290199704249138 -5.310919798022524
P 1.221765088600829 5.6187592175685985 0.20405217947051124 -0.22642085746453264 -1.2573679191198797 -0.17783626368760988
P 2.039716668315186 6.3168511580108255 9.938614660721258 -0.040517757608388286 0.5701963762918503 -2.188554121234805
P 9.28137388609639 7.8856351927451875 7.140922645496141 -1.4207319573332435 -0.5357765040510837 -0.07809237342805261
P 9.03104588335545 9.196399899696019 12.040504136074093 1.3211778144869892 0.15231523659836993 0.5476074352477408
P 1.9675299834018858 6.120599232447426 6.027960442814956 1.1647904647017746 0.06803087542699252 0.49825742405970325
P 2.7729973680347926 8.167249459791156 1.1772425464454066 -0.8401861194862691 0.9217908769429545 2.041189543773491
