# total energy = -340869.2133698671 ev
CRYSTAL
PRIMVEC
9.30026230519208 0.00000000000000 0.00000000000000

0.00000000000000 9.30026230519208 0.00000000000000

0.00000000000000 0.00000000000000 13.61187396856843

PRIMCOORD
 96 1
Ni 4.208247854659244 6.076651980093417 0.3696631117089635 -0.6670696298718318 0.987958216798647 1.0847489379671513
Ni 8.810073515888234 1.850491819957831 11.84815676908503 1.3715488107403733 -3.0912414445790892 0.10976322216877224
Ni 6.7871362296052 4.614027605561784 11.453820061099462 6.03268064878965 -3.499484289851857 1.49504917998958
Ni 7.257376099540205 6.404207223539303 7.104145905460419 0.38430433217929943 -0.918175134567238 -0.9650036648850026
Ni 4.289429845574609 6.6862469825608795 8.741286914764597 0.14379511494250072 -0.040836831510703865 0.44747659396241
Ni 1.6621708056325684 1.8249439990110439 4.061824522665717 3.2497057314979902 -2.6503101079343647 1.1549642226399723
Ni 8.51561790649754 7.921944953342383 0.4546693705432646 1.5401195899656572 -1.0052283167330043 -2.62919852276673
Ni 6.749609670624389 7.715507027766905 3.0966739765978386 -0.06406494880070902 0.374302226661265 0.48256161059100117
Ni 5.322261191560963 2.84727534869273 6.010541064476294 1.0428744092205522 -0.6319997827518922 -0.9034321719301087
Ni 6.949239804087363 5.1537497362515925 9.200769171125103 -0.16402763993929168 -0.6125167343266161 -1.3722944306571463
Ni 0.9479106495665822 4.090673936781819 13.49730348718433 0.04949193608254057 -0.24094861876706244 -0.7218958336830922
Ni 6.178182945246703 8.01989531745289 0.7141671534414985 -0.3758654573833269 0.17717009085852067 -1.1219062637437387
Ni 6.295449954463319 2.709436158939423 8.349646352862932 0.33138408714150025 -0.8141213040784173 1.1758258965803297
Ni 3.6737059701534025 7.799255891118131 4.389012405744876 1.2252039327928252 1.1119146997486657 0.056998271761914736
Ni 6.689185865494693 2.2148482019135227 11.166800011536568 -1.61923603378285 0.5422047761749307 -0.7077164568589167
Ni 4.587261450234207 4.460024559672504 7.362621589515532 0.36705222996707104 0.6238357588838611 0.37504887501930245
Ni 1.7783496841426765 6.729595505834624 5.061547864360675 -0.4528975078676652 -0.22354302169610532 -1.4146536123496476
Ni 7.5289623635693586 3.2810860906158807 4.825341658739155 1.013187937899713 0.5247181893543931 -0.9855892023458379
Ni 3.093490496761622 2.6682731973411413 13.186598459243138 -1.8854501119849205 -0.9959378925700136 0.7807434999489199
Ni 2.038366421685552 7.797163332067157 13.536572915348042 -0.09918698931482273 -1.652259282786406 -0.4008408963817419
Ni 4.120471977667697 5.86132300361691 2.867504349545063 0.4542920742223467 -1.4923976012993456 0.7208679066392101
Ni 1.4164392712110125 1.1032622335109343 7.699079974203632 0.22394077135515625 -0.11590533051076812 1.5787259894839456
Ni 3.3247229220255368 1.6110379626891986 5.989428538691327 -0.6832254136960879 0.7171827444781391 -0.089814032740355
Ni 6.2257537876721925 5.612494481799912 1.4696600230741326 0.3483942485462516 0.376861502748009 1.6766330836450802
P 8.496924378975502 1.5301256793848488 8.378203738738142 -0.3651748104387001 -0.4385515235586383 -0.3694400134729573
P 3.390894289348577 8.934566829027547 6.753313965157737 0.48026870079176637 -0.8011837700811427 0.06394410695212857
P 6.1743233363304615 5.932804820798201 12.988082497221527 -0.6645437781261845 1.3243538982221257 -0.6523189539252184
P 2.1066675491093623 3.2676472113773993 7.116559895777046 -0.07079661109758775 -0.23029448148732595 -0.21022650709285728
P 4.766170598961307 2.140194995237199 4.061320448440993 -0.6075087395890634 -0.5873649176513368 -0.49567423671355926
P 4.618575433899235 7.902898015847289 2.0973040448759344 -1.0078318157941224 0.17905882324080127 0.7208563366749843
P 0.27167368649617124 3.189562207857477 3.6908872750012707 -1.8684803168998014 2.0058574441311006 -0.13077402009248446
P 3.9870690131024564 5.721121547201613 5.460648166772503 -0.035814438595448 0.42946447365570556 -1.7049843810942635
Ni 7.149493055134405 3.93454113079177 0.18608430120633185 -1.2419240737609836 -0.8506870190175929 0.16010645050801459
Ni 6.155629808808422 5.140720068560857 5.30374436902545 -0.4325629100753711 0.47624903810941205 -0.1564264305532661
Ni 1.6220029721163056 5.187332983954122 2.917092418895691 -0.4549664745815519 -1.1276614210599611 0.5591316338372564
Ni 5.378230170977696 0.6374418482915873 7.494139390882407 -1.0409951899199685 -0.877167838916941 0.5585338523522575
Ni 1.736182294199927 2.857868347621886 2.0457964013558794 0.8820259383401906 0.27869447005726844 -1.930086776857689
Ni 1.5454525119004314 0.33476666694866664 12.260350910998488 0.06592848437200903 -0.284162178040059 -1.8381292154117697
Ni 2.828498118808652 5.478068488365305 12.306849433163633 -0.49340061018803416 -1.1195801867137234 -0.6358358686685308
Ni 3.3939540756942246 0.4715865479375879 2.513840479326728 1.311886104772418 0.3184964325455547 1.9491247673257466
Ni 6.420222275476095 0.37777666066927557 9.570372761154395 0.8278594796001162 -0.7989481958824047 0.0503887368651971
Ni 8.33966624122915 6.658383396264347 4.809851141604473 0.27586908479333133 0.5087858343948528 1.1408419243059773
Ni 2.585435759709895 4.285570236658367 9.132927476666262 0.041980201086527696 0.5739807830349469 0.33387600032541853
Ni 8.822833475967954 0.9739327838982571 4.0111743633434385 -0.6932619719964835 -0.842391097557388 -0.7731119515455911
Ni 8.678651507224583 6.720313843910746 8.930845794021792 2.4241594734120833 0.38418837542672546 -0.03048762706589588
Ni 1.595050811539753 2.8598772043108216 11.03974726617135 1.0453917763257674 -0.09572422757720289 0.13543543012389578
Ni 4.160956020107219 9.294105675034773 10.68926873584172 0.0738456823365567 1.625379941897059 -0.35944356438187774
Ni 4.812978819865997 7.548846324684841 12.023926149209425 1.826902493458015 0.3025028853307758 2.3811271769119573
Ni 0.2344224152838444 7.318395121466624 2.760842429598787 -2.5907993541632415 0.7417388365509484 0.7590493028049379
Ni 0.7073137900429955 6.449425099565251 11.83367347037355 -0.15591863767891212 0.7613100738146567 -0.49984790847527455
Ni 8.869948605533452 3.507993893841114 9.474204327329074 -0.9553640849127095 -1.296918170608676 0.3663834860348206
Ni 0.9524212768542385 4.572864643963501 5.370047800075263 -0.6543948626176407 -1.0051740664563011 -0.25844574711056134
Ni 8.652554970793316 4.325384660201576 1.9192747009764874 0.04529846682648327 0.8419100441559113 1.4858880823156022
Ni 3.1152438106293094 3.891983129826172 4.476809673340055 1.1826709445266212 -0.5772375994093478 0.14409182024731312
Ni 7.282077596604155 1.865260636726487 13.434157495235878 -2.717632644440423 -2.3302167632153354 -0.8236431275259234
Ni 0.25683883786412887 2.143598891293451 5.982364059335238 0.8463994473858327 1.3528085540183927 0.4021953535271073
P 7.51481666438477 8.955678424786269 5.1501068234504075 0.044950853679077425 -1.2702095509692384 0.11111279421813122
P 1.456049088980349 6.201126692707833 9.717231345430525 0.5064520440553536 0.04219617375207572 -0.15334779162794235
P 3.9417023328773277 3.85309873252784 1.5000421204417935 -0.8127547627481938 1.440170011453197 -0.3726724043673259
P 1.5410906888119555 8.702683385392218 3.910324177401403 1.0191495547997869 0.6715101821416887 -0.7358682367027842
P 5.047438436199636 1.4003219163872842 12.622059508235015 0.7912343721779147 1.154015485573458 -1.0204191655408297
P 9.037464932760804 3.8009242601902073 11.552520026363341 -0.8921380870735279 3.562867639204509 1.0684221757826697
P 8.679116520347021 8.712578864637717 11.693171615481157 1.3083318117622564 -0.7818513883011181 0.16369776740369874
P 2.1837016229725728 0.9571365099157679 10.083431039403564 0.18607407821636984 -0.28882950160874127 -0.4436448789211456
Ni 4.941945559243171 1.9720741509506778 1.238869360276535 -0.07934192956443756 -0.9249759595391555 -1.5765606064015105
Ni 5.857528496537809 3.4263468898033107 2.5641641994370543 1.2830252146766679 1.7515753414799253 1.8134579379173348
Ni 5.252964936055133 5.65276461820311 10.833949198652348 -5.637344741386537 2.697368751985064 -1.920899453931466
Ni 3.5266502203133583 2.0079824642654014 8.66281409030056 0.4977632580321041 0.08721336189271432 -0.8166926643500193
Ni 1.9030569033183122 7.621946387532219 7.869623536858059 -0.1953922702935022 1.30449624006625 1.841946018054699
Ni 2.934297904425926 7.3565261975066045 11.013394972522745 -2.23188003771595 -0.09096048763997237 -1.4496802649364775
Ni 4.734493905060778 4.055593346825036 12.812762319773409 1.9549454877725814 0.23560869461138778 0.21451844959999186
Ni 4.095277566693963 2.6144897795998703 10.85173967069061 0.43035330401856203 0.11427962198188706 0.43643422010531935
Ni 0.9904128489574879 8.836318856518679 5.998289828752521 -0.20796162231808057 0.47315137302069477 -0.837372561296874
Ni 3.8425336343860304 0.20574784610177868 0.21437383952301825 -0.7582558603693651 -2.0800674517856113 -0.5529573867057445
Ni 0.3388736628460461 4.682291531935798 7.743305512226296 -0.13629674968292657 -0.768641060258431 -0.22788844314899462
Ni 7.256613478019406 7.203955392034437 10.69376076260448 -0.39876704457184875 0.3874881292239198 1.1777444537592814
Ni 2.3578304368010032 7.256297269096147 2.182392146019785 2.0894044129158207 1.1550117880484558 -0.22435240497127812
Ni 8.416430607481345 2.0044855655846616 1.5701428486494415 2.0165424346487724 0.02152064768059519 1.8636469000669
Ni 5.119794478051112 7.279399121018907 6.433516070620375 -0.20137805556329189 0.9104397135961934 0.28244031025294586
Ni 8.188713681423069 8.745101882421086 7.3731029852953025 -0.2970809429842561 -0.15591658079638307 -0.046540052543068235
Ni 1.3397958083706507 0.2549490245345376 1.6115643575437997 -1.4027038961869391 -0.38329440285754635 -0.016014373150385324
Ni 0.05389037075943174 9.12098128955081 9.535567458966096 0.47942949271992275 0.34180631091608876 0.9516303289018901
Ni 5.5053182573402175 0.3416079400059862 5.233180487747854 -1.0866348421359544 -0.18909538154119693 -1.1036349762383768
Ni 6.448160263872218 1.0186577460144202 2.8936259966849396 0.33638822522431094 -0.363107129276394 0.27592822016604096
Ni 2.6194654200099654 5.611536554767687 7.076091663783687 -0.7206730170195847 -0.9845260511886464 -0.16768400574495637
Ni 7.398284375901609 1.5251593392372025 6.3542136627459085 -0.49975380609957154 -0.5394647515359484 0.8070132322787262
Ni 8.349059506302414 5.702409419154677 13.299046072458797 0.28671322659668685 0.1506180514016051 -0.831216054777175
Ni 6.689911285965698 9.191142469464376 12.166483362102994 -0.6931912666595481 0.06670135798229157 -0.3026255269515691
P 8.393291554508792 -0.11648299709218304 1.9492475867964023 -1.702296035628823 1.3887317502775633 2.267249675464495
P 0.4626582959867631 6.504482653262004 6.717079212631061 -1.715102443364872 1.1025330014234498 -0.5415871971955899
P 7.257152893241435 5.4974316347836565 3.352033142706367 0.10994834159638485 -0.585803743811804 0.3955673066876284
P 6.407201908047808 7.545479629678384 8.722611057741211 -0.7507600662129522 0.5623871646600767 -0.34032458416423966
P 0.6086221950153207 5.967950512592124 1.1252843249633906 1.3467096402095065 0.7986360639586245 -0.969247527763021
P 5.007614712393978 4.060029572013103 9.38457025790026 -1.3412213634014254 -0.38787610869095784 1.6948668330442873
P 1.1018299930938227 1.7499280820992176 0.09854186080224953 -0.6076516929248309 1.6922291383111243 0.4872914119665027
P 7.303524001811031 3.9997917721323812 7.051468288924308 0.6350987333921901 1.3893056205031622 -1.3708990929715164
