# total energy = -340864.8910845377 ev
CRYSTAL
PRIMVEC
9.37037736144134 0.00000000000000 0.00000000000000
0.00000000000000 9.37037736144134 0.00000000000000
0.00000000000000 0.00000000000000 13.71449444073237
PRIMCOORD
 96 1
Ni 7.074522470220411 9.117077329448168 9.75059448790353 -1.4472667703989783 -1.4591465525557 2.552020947843463
Ni 0.38002033945046 4.136384423427043 4.469101223835603 -0.1608620977271165 2.6787781334670706 1.5753632436592997
Ni 0.5843770254488373 2.119757398383539 7.605044188769874 -0.9150653852936627 -0.29792503615210625 -0.47092531190365344
Ni 1.5884476310972144 7.945358491150458 1.9033935108225666 0.6348663056664099 -1.832425480158773 -0.3957588538731442
Ni 2.13467503915742 0.6410125233140473 2.7601927064515617 0.27139562240301 0.12312987328366537 0.2136828410725739
Ni 2.814083620784944 1.9305975904046841 8.350001371217454 -0.03505981981761058 -0.21300149873483318 2.160877738365459
Ni 5.361448820095171 5.356079593861859 0.7659159055122413 1.051463179330828 -0.787919705982385 0.9385063899254225
Ni 5.705622780914675 7.168170021661472 13.068226258939134 1.2143708467330634 1.5435070183806514 -1.1954398141565155
Ni 1.558499905021006 5.55032751675291 11.503004982230248 -0.2184221555297722 0.6566764595629658 2.2933250323953085
Ni 8.992188939853767 4.681075089598482 6.982652479366541 0.642748536627964 -1.7630712579346668 -0.3113852754220702
Ni 9.086136343370683 8.484164560333205 8.750135225693754 1.4463242039800512 0.16856795101180644 0.5538991817937234
Ni 4.694615284898895 2.662527137194019 11.273767133199907 0.5125144481993495 2.180376984740651 0.05215379918541986
Ni 6.11828482993537 4.558220071893486 12.24117332627288 0.16806350057156216 1.6859839287323606 -0.37821441723147764
Ni 0.7976055847416308 5.359143707262021 1.5435935086999695 -1.2151424347917652 1.3783959155691938 0.512869260435607
Ni 3.0801367454663535 5.5748123128221 1.5595165909657085 -1.021937144847253 -1.811720643511254 -0.4563245312713431
Ni 7.41043175819911 8.173527180122822 5.218474665137913 -0.3887909071957433 -1.694383979870598 -0.3113557077357154
Ni 4.700968400756114 0.5597010736812882 10.554139954860338 0.05783362317901653 -2.3646358641251535 -1.2119722645939
Ni 2.0819198145613456 3.6805155643508423 6.659072733931984 0.07929899214164407 1.3170676489733575 -0.5436353379738702
Ni 4.949836253339975 1.439327445622627 2.2351610920034912 -0.7037983527514331 -0.6300434303564697 -2.1551714320093014
Ni 7.851589124803581 1.369171430249482 8.470757424391454 0.0045608798978050485 2.083889910855495 -0.36306959117023924
Ni 9.206245840506115 6.035178953036155 9.723754916001127 -0.06217853041127355 0.36638759979987867 -0.8225203267753898
Ni 1.6897695216047368 3.3739168167871565 0.5137121985844724 -0.9920077042776722 -0.44106246290595 -2.4675118722557894
Ni 8.70508057722078 0.25912091950269284 6.335685081233523 2.3450887952311614 0.28735703082827285 0.9450272217630756
Ni 3.014431659344209 2.9363389343382265 2.2184565202650504 0.7337429628296654 1.1102365407152943 2.6274977380255393
P 5.505031112543776 7.516391985505043 10.531854386360012 0.6302195509230178 -0.469136852544663 1.0775009981554862
P 5.779929873462964 5.432354465657958 7.2236848223931664 -1.1279321582228445 0.5382478484097117 0.016256313957862326
P 3.85624762155773 0.21369520408584583 7.543794717087416 0.9075711337991467 -0.4122743350296642 0.4141257864161061
P 5.940013400461069 3.3498443173222694 1.817924424750504 0.7387062203722117 -0.27362091218910295 -1.9807336524802792
P 0.7643210672837772 6.893889705648737 0.10173418711182564 -0.5681677758975957 1.3552459598152917 -1.486897497416723
P 0.06034054507751691 1.8587642774822144 13.553266976845265 -0.8136081118874245 -0.20422915185884183 -0.47342853794148143
P 1.2857563308970392 2.1234024751806744 10.135916586870234 0.7400503931049319 0.01111539318687118 -0.777080706385352
P 7.201013194345173 8.808182839428703 7.620348826129159 -0.1620365776511919 -1.1996942185574953 -1.099712758365835
Ni 4.55865110925253 3.1223784066526954 6.753469915562686 -0.21853194163475914 0.8260147130818936 -1.0402775950276535
Ni 3.6932311664426494 8.649982758282075 0.9451562320066546 0.8556533618839329 0.019846088191649694 -0.1465600792821476
Ni 7.815119616077485 7.212538758510923 0.36901014604008925 1.1612575118478516 -0.5809358741965415 -0.6722231490483133
Ni 7.461594018642194 3.039075751828699 3.299144953521289 -0.7881619039001782 1.3078368744037088 0.004598675114275951
Ni 6.210479972883998 4.434249979281397 5.200111536604889 0.3087974600902359 0.03292734685564006 0.9268780616578748
Ni 2.6884830825103827 1.7120991308787057 12.118292071511245 -0.9548015275410201 -0.08934969150942677 0.14577563570763927
Ni 6.7491923382930405 7.594943859002182 2.4026013022751984 -0.7914341468935466 1.8943684975204729 0.3913193300445519
Ni 4.833962166776022 4.876231939094475 9.795851536527707 0.4929990038742413 -0.1201517644919479 0.9706019849083863
Ni 7.620712396771135 5.624156720055302 2.030828768986277 0.1423018182264259 -1.3147312875306971 1.4436425433828297
Ni 0.5471344605896726 7.777319513764774 11.20511225228152 -0.20654057360083783 -0.509918148227083 -0.3749987385076574
Ni 4.80928059278205 2.4159831381980497 4.261518316908552 0.5934486619515715 -0.34622115215433275 1.119237458662324
Ni 5.663418601237816 9.193652053320125 3.856694588558304 -1.3522056303270713 0.2509728357722839 0.7812332951011448
Ni 4.167569039316161 7.79268693265244 6.068375388946726 0.016366100062849234 3.133722239451119 0.2532528900557122
Ni 1.0057319735561716 9.182407600475491 12.89088437089999 0.28310236931697697 0.7842373720347914 0.551132931902496
Ni 0.08885366637829745 2.0804111838046904 4.065044929392 0.4703979786452738 -3.8814538032503925 -1.0383222710734956
Ni 8.3193115112535 3.762206514267108 1.1009368817162133 0.08780728672297136 -2.056399932965342 -1.472789340150115
Ni 1.3574771992910626 8.070218769612747 4.967211744098146 0.025494801836994804 0.9779517404052382 -1.1757631616631943
Ni 3.1733251484162572 6.96293064611479 10.736720820887344 1.9334531222267606 0.9941730873601072 0.281780822292076
Ni 2.3118501344793687 2.112823319129348 4.645866833666459 0.4940868376217813 0.1976718103562983 -0.3544399405196993
Ni 5.222111308595415 2.358748873218863 8.958623311074797 -0.5378207881746221 -0.028877602266298655 -0.3625265741825756
Ni 6.911374829822144 3.7286230817711346 7.670159878155412 0.4231560149391745 -1.1188993585966152 -0.0510399972959508
Ni 9.022146036307346 3.535349678126618 9.103256022826638 0.3871934808016364 0.6670421190680061 1.622049334861929
Ni 1.9426197845710722 5.006892481149122 9.388023665192467 -0.39361815338105755 -0.6823592090410506 -0.9520597031298249
Ni 6.73962518299773 2.5614113949886486 13.091197739062984 0.8115401736148022 -0.42335707520638705 1.2424928017802601
P 8.341584898263246 2.5246420341866957 6.037559028888269 0.26811798009300275 1.1946913660262652 0.8226560810223058
P 3.0492051297662397 8.610945766156453 12.456353735171955 0.6161404471221325 -0.24310783120191035 -1.070400382554963
P 3.461454882182632 3.959855884143661 8.422633040291894 1.0087088190824371 -0.06352630268841963 -0.18777254896471532
P 3.30603780311505 4.231728013172169 12.002143432890337 -0.3018325987366286 1.084264799241881 -0.15900447569308745
P 6.095289923868093 9.012972436861599 0.7004825603338423 0.6336334617005733 -0.2777123086496572 0.39551099952839625
P 0.6836936551990667 3.453330765002384 2.408882266226663 -0.19012536546760805 -0.7244448253571911 1.296710168362928
P 1.708538387477905 7.210289867941995 9.1730634601616 -0.49427092860812943 0.623155702097701 0.018525826718329384
P 3.2864162329011632 3.93802290487033 4.560522373613424 0.6764338446955512 1.1252607820382685 -0.021155036811060342
Ni 7.072292320406226 6.192301440785173 8.845026226211884 -0.8864688046028927 0.25481869188093537 -0.3525949168911605
Ni 0.7833204444402605 3.498898910155263 11.907623499316081 -0.9873002714996739 -1.9508610332905627 -0.2753522930579129
Ni 7.46363676090897 1.158825199035863 4.650489240823341 -1.8921306093288899 -0.40612374204723606 0.17011652644584896
Ni 4.989332393956751 4.673794306381581 3.130607472059493 -1.0094120157970485 0.29454557815691207 0.45313070692439383
Ni 9.075538446564616 6.866500092594683 7.018364861601099 -0.3379365435480373 1.4082641638835358 -0.4975282592031625
Ni 4.218684447872393 3.1365464172369344 13.596851413108801 0.6563399021591536 1.01672860406312 1.4566155586037302
Ni 5.388557321828109 6.765524906049871 4.280279686479824 0.3623237141431502 0.40807366668475525 0.27700165573587776
Ni 3.9031463602972236 5.6557161510392415 5.8759200192466565 -0.7301454752863941 -2.6831137847279467 -0.537042515247701
Ni 9.036014194815728 0.9483571529164271 10.818391155973394 -0.7012015385585343 -0.09701157893005873 0.2135799969461225
Ni 9.335791307653668 7.046917338486835 3.3533038606474688 -2.5599689990459464 -1.19893214358049 0.13590979865715302
Ni 4.9314328321842575 0.9112251585102347 12.94110678249281 -0.12889531501253285 -1.7751906669060202 0.8054068070235548
Ni 7.664050392109829 7.0967583757206745 11.50422500536389 -0.938327698255713 -1.062648763634002 -0.5497270526939049
Ni 2.168445879200804 -0.046827523871478066 10.366045558788514 -0.24116510565324273 0.5175270709225926 -0.16155860957350887
Ni 3.6970355396550834 6.248233223309857 8.144941906916287 -0.5029455735639919 -0.0211699492093958 0.1230036321184462
Ni 7.193985411317277 0.8442991122167104 2.3045150030737194 0.7216343524915894 -0.587339206619724 -0.6564933970178822
Ni 3.671754261509398 6.47143561227584 13.248558234397215 -2.356418104201051 -0.42993704241674985 -1.5380115424837189
Ni 9.091608643755071 9.217911960332422 1.1207580409680917 -0.5529576438160606 0.39670604827776196 -0.22775088912986585
Ni 2.0917868219325118 0.7950296680024727 6.490836978621519 -0.3068303090615361 -0.8184605548837195 -1.4642561058681234
Ni 5.845044625810765 1.1713346528255182 6.957966220183884 0.23084058379878308 -1.0274452191496757 -0.7383838040357864
Ni 6.913530016617365 3.3146491799185656 10.239817205230127 0.23400612601095824 -0.5882411496087031 0.13607923435548178
Ni 1.9354608162599887 7.97856710855161 7.127450109760104 0.37375972389423373 -1.2926681370830704 1.6692159652454026
Ni 5.179494832314253 8.026974478047759 8.486090172882848 0.5507110138737289 0.5838473914163815 -0.8829908733566212
Ni 7.709299944432109 9.196716166720288 12.795197825343102 -0.5164248389973494 1.1454449702956275 -0.43813269085366485
Ni 1.8792198112820777 5.823886313708113 3.695000293690205 1.8834166264946597 -0.126478220930608 0.864047499484899
P 7.456899459579559 6.010928416401227 4.35133525808054 0.7081885113993287 0.7005759891593935 -0.64320439321846
P 3.6187554071016903 0.28513402412101646 4.5518960042061165 -0.20118239461271803 0.014857890948438928 -0.23723491736090108
P 1.4633343524459206 5.9061957085308325 5.932492735583484 -0.4344719541726259 0.33673326726855557 -0.40116228427690265
P 6.654139230246401 1.3094914967765874 11.379958808826894 0.20273894046656052 -0.19481197230999997 -0.9431400320426919
P 8.323078402956453 4.691644875272439 11.135318870512613 -0.1188279034742018 0.49935502799925613 0.7837432060071922
P 3.0204287008613475 1.4395617050568903 0.7019780725621785 0.12136095430870067 -0.5374433502305453 0.13181171732837943
P 0.007963883727211992 9.126803781158776 3.2068326808555296 0.2337472159226168 1.675087079314199 0.9856717347573154
P 4.322011599137209 6.86661253712313 2.420457493392477 1.3166539584747066 1.2619478251810783 0.11919685677784633
