# total energy = -340889.35735297797 ev
CRYSTAL
PRIMVEC
9.08529898340303 0.00000000000000 0.00000000000000
0.00000000000000 9.08529898340303 0.00000000000000
0.00000000000000 0.00000000000000 13.29725341830425
PRIMCOORD
 96 1
Ni 6.228535770070151 2.232203458610039 11.18183353017592 0.7410765203766012 -0.6681353521321848 0.3497798160398686
Ni 4.5930820073089444 0.6308595425077077 6.2223432302548165 -0.546248093006369 -0.7671367077987628 -1.1423802153273745
Ni 2.6223261987368436 1.7196199729273616 4.44334355996088 0.7950637732263339 -0.4224042243748145 0.6297616374499928
Ni 3.1471112410098865 4.214352232159295 4.279468387330158 1.2834427618300606 0.44213538425515464 1.3436361434905053
Ni 4.210327444691289 2.694408961199956 2.2372230863212654 -1.0402876223299824 1.0979615800026832 -0.07488723622719361
Ni 5.61417876471117 4.720030890583091 2.775867752256708 -0.5050428224126527 -0.4903201714904975 -1.2124710586071894
Ni 5.387863966002304 4.857673170809479 11.370601513604813 -0.29634329348728317 -0.5751624620478739 -0.3502940366721258
Ni 5.92732176620047 8.151693697051094 12.434793478401483 -0.712160094452567 -0.9955488846617113 -0.8383657784480788
Ni 2.09347094250067 6.42117136529392 0.19791778807681318 0.22888603117557355 0.5216878871685016 0.08597717549276807
Ni 2.635136470361874 1.4461797281766293 0.31242980551585037 0.17197800513461994 0.8267839871477504 -0.2235797884713117
Ni 8.015623173556005 0.1456800442736672 6.834841383433315 -0.0545328409405577 -1.3325078947878277 -0.9062724695923811
Ni 8.717244476048613 2.4211776783267958 1.0449929108973701 0.26734459226208795 -0.1992851775900052 0.47889161793858176
Ni 6.9377523825475285 1.0391855877606897 4.875265035311284 -0.6455970618203527 -0.7619065697480749 -1.4085726962628904
Ni 0.8792498007871395 7.2087941083557014 2.1238776212770185 -1.0171410090101902 1.6624915020373754 0.2782154735383209
Ni 7.393252934457111 3.83882048226639 4.103984928135391 1.447271912605301 -0.13922755017647634 -0.4275281758649411
Ni 7.885321814941691 3.7434793542996765 12.408850407036038 0.7215543911832735 0.34104654993192873 -1.026256598158213
Ni 8.102642167615961 7.6502215320758005 8.774152972080431 -1.6080414506186114 -2.1913725645202065 -0.39926275326134464
Ni 6.681864935512795 1.032762281350125 0.21738758388705404 1.5592766225100823 0.4311171787677801 -0.24618004236933083
Ni 1.9974029906119688 6.6104817410745955 9.39610528742418 1.1434881036795725 -1.7556564535278345 -2.1488354624889445
Ni 0.35948256916551774 4.915255796028941 1.146331244750383 -0.36037636060879225 -1.0503066971288815 -0.15974186807974425
Ni 6.322795747452909 2.100866375906893 6.87130250547982 0.8271436844800142 0.9803438947864987 0.90666636259669
Ni 3.905388468221423 4.7425715174637295 0.7735050969070769 0.2454567910500611 -0.47922997511460685 -0.04313385507499668
Ni 6.127652609698282 5.969186824106952 4.732147045362623 0.5801313760173751 -0.1361183151235333 -0.11852194219800877
Ni 5.518801295548356 3.092372314385201 9.048754318046539 0.19199070081112096 1.3452757359764573 0.03334386556776838
P 0.4828136863679711 5.615741436143443 12.295092469416065 -0.35543804276691043 -0.9169708298464917 -0.6157506678828816
P 4.2988455130903445 6.3010727974845055 12.686430822552394 0.12484325643034629 0.7344165918579223 -1.1827599046960018
P 2.3957388410572324 8.498861143388435 1.3679280476756475 0.868654145018975 0.004147446509470277 -0.4837605159951087
P 6.491437067952064 7.964036845692939 5.657529269008213 -0.3781023171336456 0.28563053505546937 -0.16241375848495254
P 4.653626440010505 1.2023938994429884 12.605862390800075 0.4363221200074872 0.2565588145004936 0.1035072139567314
P 4.055159622645977 6.084779083600043 8.147692531360553 0.6499162580209968 1.823883504126033 -1.5171246717323807
P 4.663747463124182 1.2771113986233062 3.7651169024572453 1.4863421391338854 -0.5996689318296705 -0.18283423112283353
P 0.12543163833699725 5.632176742079386 3.4700109451219676 1.6994017448001637 -1.8308859035857952 1.7329502701795703
Ni 0.622457457969532 0.28866266326685824 4.739713282390513 -0.43547776972932095 -0.5860927358071325 -0.07682044869416448
Ni 1.9043331874014662 6.6791211752072925 4.467677624869022 0.07316742532260948 0.6637616485445215 0.3393239108138672
Ni 6.2991194581941645 5.958684218434232 9.021933606795296 -0.8734137711911475 -0.7801390335957016 0.40412676622186533
Ni 8.916185268795623 2.4626884095713084 10.075408552862259 -1.0816561579744404 0.6011707131861775 0.12043612850158612
Ni 2.444463299727471 5.476936237641875 6.454726100182376 -0.05597240160056167 -0.3258168774663679 1.6832881270677529
Ni 0.7076875566514965 -0.3006343617918953 9.102275814601896 1.7550913250529838 2.331394328463204 -0.6292492165899485
Ni 1.4403469662026798 1.1202537109593733 11.123671262878672 0.06361937662285816 -0.6570577541617845 1.6689886797259452
Ni 4.117502944554458 7.016985275343194 1.5432261667703064 0.8014233968957746 0.6757203635682943 0.21125494835737163
Ni 5.785663783805102 8.029823495931836 7.76420024246208 -0.8755346741888921 0.18301009457906547 0.008966722274984558
Ni 5.1039029449808035 3.171096430435475 4.919372345017098 1.0661012409589767 -1.5160903169305955 -0.6140357420743038
Ni 0.889329940055204 7.465898985459765 6.496931856802289 -0.65998418377996 0.729469275154976 0.7434167384740036
Ni 4.712953442642737 4.934480288765511 6.331700249027158 0.7425425633991664 -0.29887505877020143 1.397035127936936
Ni 1.1233699685248948 7.52467178485148 11.274767962430952 -1.9091091461647574 -0.40775356434117516 2.521536148991044
Ni 4.7029232725193095 0.26444125606662394 10.597219976764473 0.047119836305938204 -0.0435665717370411 -0.5806293986997162
Ni 8.354795556751483 7.310912869394949 4.5553861931249635 -0.19224498291377215 0.3066091941896655 0.14294228002390222
Ni 7.5349290874505295 6.294095287833426 6.8206001772118725 -0.25898079367842497 -0.0031673419843880933 0.07988674632431403
Ni 2.280737126000756 5.38866347231649 2.5965412115744333 0.43082818677245155 -0.5684048316090663 -2.1007188094873754
Ni 2.6844423881697024 5.255536585705451 11.44194109860769 -0.48278529656603303 -0.08425042260964845 0.10620995759987514
Ni 1.2011219575795102 3.3164339589359058 3.4428586204563185 -1.7536206540447281 0.409836672122449 -0.918589082176205
Ni 1.183841718834257 0.9243746639837351 2.2627009903766355 0.35706143730294637 0.5532818599246987 0.8681453237033565
Ni 1.260167315941972 3.263275874341543 8.037671377229495 -0.4344254172054066 0.8185639132308032 0.5363670864472311
Ni 3.83822085253075 2.81334461073419 7.189612316524549 -0.5436795609482443 0.20657554060383132 0.18618540698325353
Ni 4.18204490882695 7.168310015900996 5.809450005182046 0.15484597344002365 1.1553066935810554 -0.3883597331955957
Ni 0.6097980023083142 9.205860942903751 0.00779064391380379 0.07610182536058507 -0.9213954412767486 0.44587942467861913
P 0.551076080591137 6.015976114084899 8.016847871864554 -1.871562298259235 -1.1261948638167638 -1.298151785905461
P 8.86447174674621 1.4690746817192366 8.130804777533173 0.7389371054360951 1.3218005356726525 -0.005263305281468356
P 1.8824194461535424 3.4156817654833023 10.171188500771873 0.30457288048592707 -0.8757195365061885 0.6388489444632417
P 4.151818118971293 6.2156437307538965 3.610763123204559 -0.31172620370125664 0.2839300074245949 0.6234426372105004
P 7.153655428573923 4.0192454356007685 10.182637794602982 -0.20463358638611207 1.1602648089172791 0.9031159262412705
P 6.304479784618823 7.947528857364798 9.996370085465726 0.21990413939193743 -1.0756798857863474 1.2396522470076714
P 2.5166641710779065 8.663214202747865 5.622809798784772 0.40587923013659777 0.11377825686543631 -0.1406992496259964
P 7.2223584597997945 4.1096532461969915 1.194179880594627 0.04415432591971105 -0.3109062789031226 1.6537178696098036
Ni 5.637137315346951 3.2797929479687093 -0.0013546180846042508 -0.8457366169908532 -0.19811763964446524 0.5713790837460418
Ni 1.6896748273414754 1.2489015451511654 6.875770655540237 0.08667780110421845 -0.7121757781818508 0.011147017755754995
Ni 6.959448076618856 0.8370776597736185 9.142978862763098 -0.3754828772329275 0.5850851204782246 -0.01622700338182367
Ni 2.9257661008676106 1.3892330738889067 9.47538360671497 0.6325605403513687 1.8955828295435484 -2.2068562619781025
Ni 6.539988905940831 1.9637147018278471 2.5238987946913904 0.5225201532618098 0.29029965839636457 0.16296037501704194
Ni 4.1060191265870545 6.869312824993378 10.362110608599558 1.5510766031977932 0.6357307105492341 0.17886804738623388
Ni 8.459076618958644 7.181083946329927 0.027600229907573805 -0.0046634669139403555 0.5450671853243904 0.6340016436732693
Ni 7.902720162574267 4.125952272647562 8.19145369117352 0.3297604354951482 -0.40499348509753474 -1.3101912335684984
Ni 3.1509815783944704 8.446175494343365 12.582592214407741 1.077456518070796 -0.48222633873876947 -0.9657359150653368
Ni 0.23346674610122306 5.057831393625818 10.009640981751316 -0.01189006656936662 -0.4307783073711226 0.6891888303683744
Ni 8.748870401954095 2.4314713221219444 5.842467798898134 0.2897615265047074 0.3807742075388539 0.31613024630622333
Ni 3.747867553728676 2.9207691864039464 11.556749296794939 -0.18781214395339912 -0.3746171867985226 -0.31333082918421523
Ni 1.3658838553950576 3.352048331113294 12.304706532844154 -0.8031367800424555 0.1088013724761352 0.8604487263900471
Ni 3.1031383937296417 8.541280404535433 7.88491206795567 0.4826981361688654 -0.9881209676287563 0.1930109145455192
Ni 5.697345591984592 8.153083747801896 3.471407355582086 0.6032723329102126 -0.002029114614886828 -0.09207634641197046
Ni 3.3225574504786506 8.594002394776602 3.4132187409176673 -0.624699135325421 -0.3075934124798057 0.6074053812419796
Ni 3.5241602358399406 4.4367330963904035 9.274462218780545 0.53544534596391 -0.5781968779988236 0.14474488045027972
Ni 7.4803900374043915 6.137146747179244 11.433816115689774 0.09430574996312145 0.12720121513956156 -1.1547670190275015
Ni 8.045459295553592 -0.20300192141111592 2.484086105834621 0.5294274219046043 0.45346546455599324 0.38200448040152923
Ni 4.691139639684087 0.44727199658278105 1.4342416452579845 -0.22766321451206598 -0.9292761295764062 0.307405979059348
Ni 6.389881595452357 5.908269894145373 0.3266174084730468 -1.4218259617283706 0.0814854582700016 -0.4282239163803851
Ni 8.081646041569547 8.733543502499183 11.064192535752726 0.12467536339391432 0.46060901757931 0.7641627127721033
Ni 0.2379203596832016 4.8667584698343225 5.897318474700825 -0.5496545475847566 -0.16419887540983333 -0.412061961908542
Ni 7.641917568767093 6.271282101982042 2.3296260285833448 -1.6085397304112685 0.09608521046104743 -0.2448338127540816
P 8.665694489381647 1.7725509250461031 3.5350080828756045 -1.2489138748152553 0.7068296833785892 -0.21523013095503576
P 2.324655461486852 3.391669320160639 1.2036821948447114 -1.572064775413686 0.12734108315153553 0.7858414832971176
P 4.886273692139688 1.22736030116326 8.404515764194844 -0.5502237898246654 -1.4798267066128707 -0.8204919834914514
P 8.653983538938624 1.533607560692704 12.17165414568512 -1.4308019399747358 1.1419392711352139 0.3514232651805625
P 6.5783197825266475 8.046276972465828 1.2354144187487843 -0.7943716322553158 -0.3689229646272227 0.15226227187324745
P 2.050406625122909 3.2848625448245725 5.968738010335124 -0.6741455628820068 0.47993805692522507 -0.8681239835471178
P 6.874064436383372 4.174903863793422 6.167266330506408 0.2301708114252681 0.27591767864307964 0.2050480482157114
P 2.52494087848954 8.474349006619406 10.126390708340173 2.5549993137454967 1.6539207296492289 0.8886647838129469
