# total energy = -381177.3870107922 ev
CRYSTAL
PRIMVEC
9.17857569248738 0.00000000000000 0.00000000000000
0.00000000000000 9.17857569248738 0.00000000000000
0.00000000000000 0.00000000000000 13.43377331060399
PRIMCOORD
 96 1
Ni 5.908753873467388 8.882584800981448 2.9202877073124736 -0.8220441584699199 -0.021685455393233622 0.5264179456543192
Ni 4.269377681304008 2.796087812882413 1.6030923653391942 0.7800331041454567 0.39344306125577405 0.24173563344473206
Ni 9.137657414232855 0.4797301808557737 6.3034353737046835 0.37853014869968354 -0.8611377820372716 -0.2961072662170771
Ni 3.9178474180828644 2.336920394727867 7.791292559308406 1.1084254556484845 -0.6412495834849343 -1.3494969731466566
Ni 1.5062042401783264 2.4329191159224135 7.660971472874842 0.5113250558769388 0.22152959081050233 -0.9447292309066826
Ni 7.3645401984031835 8.333724343003487 7.569702471637418 -0.44460775705504724 0.7022281800508358 0.07331732063691244
Ni 1.4777781918429682 9.341128076001732 2.4148685293365837 0.27239938107717604 -1.2001603595606363 0.7300269474306589
Ni 6.437228715251346 2.094569287124768 2.745554247588532 -0.6118186798183269 0.051775075689762445 -0.8707485656541584
Ni 5.4240241225346795 6.21312461574986 8.359313293650612 -0.28229504292433316 -1.0489437553430838 1.4712101685884533
Ni 2.116625404060469 1.3233945518685657 4.884654311627677 -1.8938707319484478 -0.7689164254070048 -0.2311745700994341
Ni 6.837387071491776 6.202266360928831 6.528531677218135 0.5592470763691981 -0.573264987914845 -1.0944625657104894
Ni 6.908328281560871 1.8423603894305571 9.484942586283477 0.4897077347174792 -0.9357954187521627 -0.9853668019223869
Ni 3.0610273948004343 4.420117426803391 0.24471367293778445 -0.7481707082192212 -0.5172110823440704 -0.8190105138499185
Ni 6.6661240311658325 7.025602940773292 1.3326327881131694 -1.0457666431666828 0.33096499732621065 -0.24414115756243115
Ni 3.8289070214507626 1.2454409101145467 3.2826229896167254 0.6551458818510524 -0.5610702456208659 0.037437318910851655
Ni 5.1043894091893405 9.385001666910036 13.194194943893674 1.0474512299579573 0.023807643942558996 0.9375291136138177
Ni 1.1895984567492515 4.301346659783845 2.0161135772906897 -0.6765526296616027 0.39711819611451604 -0.9037931548139532
Ni 1.8670599361113607 4.941809301290019 6.282411846513163 1.0030133113595565 -0.0791246713473089 2.0479829125462405
Ni 1.358851389039857 4.84206572128991 8.624240025562928 -0.47160639713107805 -0.05509591253287931 0.6846768014306338
Ni 6.226874121854595 3.7882918248463193 8.235050984907124 0.09732628195700012 0.6501389155547642 -0.7349889194216245
Ni 0.85461441158886 7.404705644807938 11.78561036134387 -1.969962272896388 1.5932699487363915 1.2182138746282376
Ni 3.064294967679798 8.520205461514779 12.195407139720873 1.3375020055683093 0.8535887660454201 -0.4493013058759746
Ni 2.093486215215316 3.9204816692524638 11.35821458229583 0.6237033470710549 1.550332268832601 -0.20240315439369655
Ni 0.36624719118398325 7.536381488985868 4.826204224961744 -0.7142596572940731 -0.5621313398955287 -0.9608441341906742
P 5.667164587631108 2.3297611058348804 12.105065174609335 0.5612211693764334 -0.9810956853508587 -0.78932532808066
Ni 0.2858254304769846 7.158251713954628 7.182393203244799 0.6889736290337747 -0.6067590059072324 -1.4236432174427676
P 7.666405189573109 7.054882596630507 11.357906182158901 0.1689423036320897 -0.5827276759896416 -2.3837571583356367
Ni 7.9737222545923085 6.386351871233623 8.662660624764404 -0.7070320291973823 -1.1338400390668473 1.9849772582479814
P 0.8078743515507119 8.911607456724557 8.268030524549932 0.07855414355581956 1.6964385484067817 -0.32168485757586535
P 0.3118154848736266 7.675060586273219 0.934178893343801 0.23940981352503282 -0.20825035720309296 0.6926564772020006
P 2.946754129777765 5.917381734440988 9.938990195021987 -0.743841741826564 -2.5158313852967837 -0.3204227030339901
Ni 1.580688380391898 6.7649864679175735 2.75194896114205 -0.0997595739888411 -0.02270515490699961 0.04625697408501066
Ni 0.7750435048310662 5.025462838431917 4.441796304285885 -0.21710935025561964 1.021969026526453 -1.4900380999282339
Ni 4.533674762936763 0.7274443301257598 10.402952501019733 -0.36990306915230486 0.5959727139250058 0.7998997611623966
Ni 0.7110045835408518 5.595791984513334 0.07809315610167726 0.8574608474063168 1.9498264213784613 0.33217341581201504
Ni 2.884000209058086 6.75917642962365 7.829336836914226 0.20426900395784175 -1.0872323665106371 -0.6135271778690015
Ni 4.709545448165628 4.037343292567213 4.145340247660365 1.0226904780735098 0.735084050238592 -1.6506240611758283
Ni 3.0681224336648945 6.299210475400272 4.7316034008164305 0.3395478538992152 -0.03341534223565213 -0.46947263861752697
Ni 2.0126046078755757 2.2117796963086636 1.2121685739131667 0.34623555033203596 0.556033454527907 0.0021257880937511774
Ni 2.193789688321159 8.255908379882026 6.070520759577071 0.5683387542578212 0.15454926813521125 -1.0710686122665811
Ni 4.168073743468248 0.8363903499260077 5.645986860371123 -0.22730274584885368 -1.3893706694131427 1.7294659111753956
Ni 6.694081972150495 0.45664881703629506 11.384746172647198 -0.32667793991508254 1.1854647052216747 -0.11400348550236496
Ni 1.366836749728188 0.31283338889700124 13.442101843249242 -0.5456845071934151 -0.5393225695311292 -0.463236427899828
Ni 0.34677392539505986 2.932141837575669 5.496629408342617 0.5806535670694323 -0.09505136987989436 -0.6857054998054642
Ni 5.055623637537498 3.138008107551048 10.18938265262399 -0.35831613564565384 0.3326544692134916 -0.057414533363726934
Ni 6.357521965576097 4.485542312994683 2.1687486986316125 -0.46553062325064337 0.8508155741756573 0.3422457124463525
Ni 7.51085587050972 1.6288667232114962 4.75394405359275 1.813197999387729 -0.7856620202964598 -0.19235296924654616
Ni 8.300709006916215 2.3542679024301036 7.369311221950073 -0.8187408051282997 0.34242388989542966 1.1226166595472022
Ni 0.5504584479731786 1.897092235159889 9.679288826144 -1.8293291006216366 -0.13563443350857932 0.03557326911891938
Ni 2.54545763017486 3.3159806865702905 3.33410103032995 0.5614088599072073 -0.18359424921730963 0.973378262101943
Ni 1.7766050745211266 -0.08861547505926672 10.35663281973966 0.08045341746106144 1.517676944691425 -0.19421547637658165
Ni 8.593716672724945 5.808175043096432 2.250224159806451 -0.7919234278251394 1.1560348299963317 0.04261192113325565
Ni 6.366507790994345 1.1122964938560043 6.653049150360628 -0.22537698958105057 0.1443281046278353 1.3809996717406279
Ni 2.6274682023015714 6.1792097792632115 12.045070333686109 0.9108001822594057 -0.8366814487671203 -0.5429303414870457
Ni 0.5757261484776692 3.427013914440109 13.0149483785945 -0.2993406855527103 -0.9297589827500955 0.43887214012285064
Ni 8.835452815769287 1.7295924107905147 1.5834254316071399 -0.8606754976888726 0.7668271469781438 -0.03547531008847439
P 7.80657121609208 5.6437959343983595 4.506507097302979 -0.4684002314889546 0.5404841939393982 0.2013474594356726
Ni 8.692312930787075 4.759256613094366 7.016768561850857 0.8949537021454521 0.08285559914465085 -0.09179223951264835
P 3.4715667199356943 0.49899968226851216 1.2217170460098001 -0.09444767485762444 -0.1810704543541914 -0.2560065415414494
Ni 6.106093246799711 8.035613389214626 9.773392171497006 0.6883437087592598 -0.08156490535768532 -1.0153602629606837
P 0.2643833602424899 1.2971346473521113 3.820282831907365 -0.39717758859754176 0.11898834031146605 -0.11065539496573845
P 5.028739589886783 0.580704607830946 8.325996900286812 1.6009567758576881 -0.7175617250841125 -0.08322095290386958
P 5.508375231414867 2.2575807880727696 4.935044691143697 -0.3082881245539852 0.7788974478791167 -0.6601381928593212
Ni 4.959303666200317 7.709177351420952 6.794130280857331 -0.4142620548836543 1.5412092234854102 0.8338192967279768
Ni 5.499885049073826 6.457182938396671 3.866038030793952 1.234682818817538 -1.458960661797139 -0.8028102499409723
Ni 3.6139539617265926 4.481081525299823 8.383964193881244 0.6038744852705857 0.3692070715265448 0.9483460017236636
Ni 3.8529089963932748 7.8124913972920496 2.4762878851780052 0.23940621398060707 0.4494303752546711 1.570101481039728
Ni -0.051100801260017155 5.283674524505631 11.167226783212158 0.26697049675212087 -0.12202378470368018 -1.0928409709466662
Ni 3.00588251317343 -0.1065742758900584 8.027162674748253 0.12711482607334235 1.5832603870191895 0.4734704469230104
Ni 8.87626076245931 1.5174571737460207 12.103117480887422 -0.9933529054516569 -0.9784615901621213 -0.45641400566135587
Ni 3.8836480457555984 5.300012388902447 2.2132005397966563 -0.018610930232967945 0.5441217906919855 0.4937911607582335
Ni 5.67757309225245 3.9772786944701566 0.02380371771162993 -0.07365464937167314 0.011316196343767607 -0.5021459604808319
Ni 3.2237451813323137 3.167021584718651 5.564860185065431 -0.559468705461701 -0.15762353618516078 1.4905276379701424
Ni 1.0056139107750008 7.08205118012184 9.472663487974456 0.3026406964602207 -1.3549145446178021 0.21169486410826768
Ni 4.663826963581057 5.120819059341195 11.49016119445112 -0.9805105022713501 -0.7638050723223684 0.13467541202941968
Ni 4.760073506314207 4.770582975266091 6.3996075699762525 0.01673505336649376 0.8327003526321852 -0.026000537828819736
Ni 7.576335828154035 5.470651286094131 12.96498847426961 -1.3291801159661754 0.7374985732173557 -0.3921001740746344
Ni 8.194650566969472 8.648824840049933 3.003684244340264 1.2493995562024223 0.10975602307992066 -0.17890198594796286
Ni 6.973248346099453 3.8181313738092673 5.825381200735909 -0.58984654642261 -0.4634518863447437 -1.1060955219637274
Ni 5.503501407822334 7.276976588096655 11.929754382486204 -0.06961338942276399 0.32090761309020865 0.8973371147759642
Ni 8.540214756113127 3.912734951527232 9.226651046602878 -0.6625084928637106 -0.2746236424220045 -0.15052677723937946
Ni 7.49764790035971 3.419973947028672 11.238788464985308 0.44835951078799563 -2.3171807559669837 1.9230139291713075
Ni 7.873051638466313 8.503913489995483 12.853340281841033 1.27538363897101 -0.3263056441773284 2.1813228935936886
Ni 2.8237703966019607 2.4779951002217175 9.759864786919465 0.07261978034925558 -0.7541865753959979 -0.20179868804047826
Ni 3.5916683804032963 1.9707686607291235 12.667443838589335 -0.465565590253637 0.3837057793633521 0.050220329608132865
Ni 6.620708439572887 5.132099528635401 10.352857671634935 0.177220741590798 2.7073184069986085 -1.0014043150012237
Ni 2.708258023886274 7.2440163234624055 0.640631527295445 -0.9115337179913205 -0.1494595123171297 0.1761251945337741
Ni 8.4540921821607 8.775571789182306 9.792347765627515 -0.515160370462629 0.18232103893184085 0.8774493747131018
P 1.7134564750547836 1.8123739832595478 11.559909189704719 -0.23303013525093416 -0.6827875548277209 0.26722220775161076
Ni 8.220552507041276 3.758911204658563 3.4124465972579823 0.20702522654674022 -1.4850043941590683 0.18604785296412474
P 4.613877155689219 6.070774088260976 0.19923933846161446 0.37619635836018434 0.0960733833865055 0.15935208884049332
Ni 6.820654528348297 8.141405650471759 5.103275130123176 0.7025714223228674 0.6646304243027199 0.06530242075223593
P 8.061680543645501 3.9064843416091244 0.8230190011320296 0.10313183289518368 -0.9278918476343698 1.8635718238545904
P 7.065309458402856 0.30868283705416977 1.2322999435657147 -0.37921251947868884 0.4227078716581623 -0.0764340118890232
P 4.525570080766881 8.023002026472366 4.815658041707844 -1.2165341729329695 0.8389959558329099 -1.6946115225003715
Ni 3.7244089393396704 7.7766765956761095 9.95237072239147 0.7743021151989503 -0.0010832057618497472 -0.09241624624989246
