# total energy = -340854.00742175616 ev
CRYSTAL
PRIMVEC
9.48537244585296 0.00000000000000 0.00000000000000
0.00000000000000 9.48537244585296 0.00000000000000
0.00000000000000 0.00000000000000 13.88280137064245
PRIMCOORD
 96 1
Ni 7.826124613092026 0.16700515665021892 2.0028714655738944 -0.745784981595864 1.0782849275093622 0.7712137060816139
Ni 2.7726217619893814 5.469332089137754 11.142905112585588 -0.8341597107865311 0.40516549189902484 -0.9942198814376427
Ni 8.322418264691583 5.635477871053924 2.876405014915711 -1.5084914215374148 0.5722265193480015 0.6649870363111902
Ni 0.15997080452250534 6.496891960156286 1.375256628069074 0.03175518092440982 0.589232824098011 -2.1294704276987715
Ni 1.0454303125080298 2.3498966582627303 8.837555556982775 -0.8982154036158595 0.28709477830582164 0.996942165464812
Ni 5.516332109084924 4.806342504026279 4.126398764393397 1.0198213840558306 0.10400677930096927 -0.9265008808241141
Ni 6.477295180900816 6.865303821861243 13.733950288935278 0.9129493673919244 -2.785098905613197 0.9985521902644092
Ni 9.501971742094259 4.601060075833213 5.6699439199903585 -1.208873571063918 0.9046267064588421 -1.365327769531326
Ni 6.032696808556975 1.365324494691338 7.4653370936743615 -1.5138897097348507 -0.5682495369781245 1.0051362712398302
Ni 2.8131906994896934 0.9794310917628422 5.149880873842748 -0.9552195889150452 -0.435613781086553 0.35406250257562244
Ni 1.6025536569272025 7.281711667609121 8.850369346477553 -0.22662474594522264 -0.398821551958868 -1.352736820240193
Ni 6.077496222121149 8.800566399003767 12.956638253689945 -0.10680079710633865 1.060543030144909 -1.269651364472923
Ni 5.632641744724115 8.498333980118467 5.594935492596165 1.1220772421039642 0.0015966550631585407 2.2140126705172256
Ni 3.519054167580221 4.106065920244304 0.6876079204840049 -0.24274761964901417 -0.36277031476226557 0.37114799730299947
Ni 9.185881194219492 2.606845909594491 13.812165720717791 -0.5269457931333312 1.4709630855746538 0.915609687832907
Ni 8.291410582510494 3.150149066513558 8.857976615094634 -2.443193864335715 -0.2655072819430331 0.3741106794757492
Ni 8.583901524002103 3.4758388111969105 11.551406900487663 -1.0548704052401638 0.7880999403139911 0.1581333859420438
Ni 3.1902721915138663 1.589729433522849 1.7382931292686707 -1.4715528966398528 0.19958651088050788 0.5456729372291893
Ni 3.576867511995559 4.124552910935936 5.242562446981758 -0.4418939576683099 -0.7165813634487143 -0.7311813727500763
Ni 8.410954730117796 -0.0565138484046894 8.315367787430892 1.3149668005802708 1.3346732778702628 -0.6984944240400164
Ni 1.648254180863724 1.8259436609182804 11.192134195032775 0.4871386884387223 0.3248030914898729 1.2177245936966445
Ni 2.3879235159757886 2.9175203098628346 7.080880724655452 0.9869711702950293 -0.04930835931682476 -0.8720587998251498
Ni 3.3204399561425255 0.01076684614369972 11.571869694237819 1.146192132874297 0.4229809228138908 0.31883067595652187
Ni 3.638237871038583 8.0337973551149 4.829979103361567 -1.3122401456777273 -0.9924926143338908 -0.8596041190015649
P 4.572822122375549 6.060991674248681 5.644399812277397 0.40661816518515137 1.4645067884263487 0.4157193561554712
P 2.719996916244296 0.5478997683552722 7.683075712824971 1.0113444569330712 -0.19699689577646073 -1.8879294267633489
P 7.685807500059035 4.476602505353533 4.502331577827135 -1.397141314497497 1.1078181610817888 0.40748128451639504
P 4.359088227427099 2.117618860388606 6.179942986084702 0.643098463768215 0.5805476376191873 -0.2811807268142319
P 7.1065642673418195 1.408814926872523 0.38833778338064234 0.3677176314652119 1.2345357517167126 -0.3760140671460492
P 5.9529153418010425 7.340701198194681 11.163201912319787 0.06134317899417177 0.6207087832191052 -0.06432025934462471
P 6.634591110423301 8.536882533310253 7.8204599487302815 -1.1034241457791514 -0.5027385997595083 -0.4645008964345484
P 2.556307845764316 9.227152049273 3.1925031510883515 -1.9107888478600255 0.9203646860193891 1.62241520284178
Ni 7.436275809897543 8.361213437564222 4.203615386468458 1.4563782457819436 1.9893113668469606 -1.870489119799714
Ni 8.549308371076306 2.607158926881728 4.060344528488634 -0.39447407362344966 1.3948131805849528 -0.48614907083194336
Ni 1.548411151607638 3.08700494284286 4.519463108811309 -0.269660127769142 -0.6202722099023189 -0.3523362639131351
Ni 4.451874139661855 4.628150299237676 7.444583098993352 -2.0002303277523104 -1.5445452298371787 -1.0344514752641798
Ni 6.143191910951441 4.082314547903696 10.64783127986902 1.6288666148940787 -0.846654243709116 0.5766950966423166
Ni 9.032929565228956 0.5398106428232953 13.117997716723098 0.14812793798989973 0.46228820505394574 0.8372257513063646
Ni 0.8274023895010361 0.9182732050602447 6.5725624665398446 0.5102655042641728 -0.3185298568866514 0.013259436113067485
Ni 8.925280074536639 7.010524872394273 7.613620022398905 0.0968223457373881 0.5024048705691734 -0.2609805977172731
Ni 7.516664340483267 6.693267623721623 5.706608678235321 -0.4584395207318169 -1.6166711012691513 0.25579082598621755
Ni 6.380032172921346 4.075760155616412 12.961052745977213 0.8373928730118482 1.0385302733192439 -1.5395099814061164
Ni 2.068617426877591 7.9251613856991705 6.678654459093851 -1.2934890903224692 1.1614745129546642 -1.1570262473753234
Ni 0.14315039375109953 4.933844879027258 9.60648157454187 0.7643491177512965 0.308765578411036 0.8715147543962216
Ni 6.785531840477651 4.079990631680274 1.2150780938923116 0.5599631285996163 0.22554899638254056 1.5292168270102244
Ni 4.3216968896608545 0.5638503704830543 9.398559367226445 0.9937514264416564 -1.3433934313520801 -0.6791175621753014
Ni 3.359984473430063 2.550000073157884 9.519311951269925 -0.18665514753082046 -0.7611771477812181 -0.8607294908552596
Ni 4.5625494641307895 5.44297223940351 9.72002906975551 -0.14042954090437748 0.7101484633391769 -0.6428274694950156
Ni 4.809909004026306 0.5872678577172767 3.9504062174505554 0.5720892224391889 0.2544929331104004 -0.40364365593785967
Ni 2.0751907899095565 7.004074819202733 2.7120054900474266 1.2355271690957044 0.4475221024883647 1.76302523518808
Ni 6.736312243402805 9.515820385711388 10.072666757258219 0.09105459001567545 -2.3967438004032915 -0.5538894116017105
Ni 1.8480066369822796 0.24782337460296736 9.448787259381087 -1.1420781107059235 -1.5027380639934056 1.8091487690190196
Ni 5.566272594457648 7.189229287289263 3.3840023847334395 -0.0022445730598025858 0.10965060785030795 -0.16411377189519477
Ni 6.964131916276895 1.2284031449562438 12.102831433204665 0.12412206199360559 1.6161512242099394 0.40760546879908505
Ni 2.485139097093556 6.456626554570869 0.553319710110633 -1.1608435642388848 -0.002173610612551095 0.22138638036441874
Ni 3.7971178577419313 6.993669365745208 7.797552774527978 -0.12679883749482035 0.10015603809631138 -0.008912729108597552
P 7.341991208832989 7.558049020004862 1.9002919063975747 -0.036749291704891544 -1.186842045185175 0.48307891654705193
P 6.814187150318297 1.4204439933619741 3.923002028221622 -0.3119216075415144 -1.4647780398098647 -0.6211921506134269
P 2.643639668903284 4.3509402925866105 8.963486205786934 -1.0785829183657554 2.0603530040758193 -0.13805795534840742
P 0.8271453359106085 2.962841418905736 2.2716015493525545 -1.0514788630601117 -1.0575268690264046 0.19969346877201738
P 0.9260853577198791 8.338353690223622 13.949161056357143 -0.4881820421015722 -0.6228595110135209 0.9005023998778233
P 9.429380187572427 3.108992035928135 7.069705058963876 0.39417479721547594 -1.2308086805741125 0.3747349433233095
P 6.1314110785045415 4.305742493384136 8.568367329720068 2.4988330509665735 -0.5085431222564274 -0.45600597158965983
P 4.730013712802289 5.444594238073734 13.342329618187588 -0.23014252929049395 0.4714601013612009 -0.9234350974145968
Ni 6.950435038617216 3.5147572939099754 6.376509305634084 -0.3946913318405783 0.9419501254996487 0.6126458037053126
Ni 3.37439275401528 7.136357821863324 12.537307964723958 1.2995280974276975 1.1861805003417765 -0.40938132975258523
Ni 4.539130079822099 6.099293607759614 1.4654407026708303 0.8356260109194125 0.45960654445672455 1.4639177486920982
Ni 3.9903633484349053 3.3169777952382433 11.444633858199609 1.1945008472820136 0.9324118469919103 0.7872676742206828
Ni 8.172511440222348 8.15410981788178 12.417999054350702 0.3770571636985829 -1.670593048098587 -1.360962807694411
Ni 3.9643829135942803 8.762928441556669 1.8291288489502198 1.7619641409134168 -1.232157224182207 -1.5743466294693276
Ni 0.6174104739409125 0.9238382730124151 1.5517357746129827 0.13830529547252307 0.9902542119216753 0.31266799878923573
Ni 8.901623555919437 1.492210320490185 10.654619960853115 -0.008770032883146187 -2.019420784637832 -0.8886740397843276
Ni 3.6154255505596846 7.646500117080008 10.125212874412876 0.6157781786867073 0.3641072884061342 0.020733633002925585
Ni 8.571712820544562 5.870819444194029 11.549088675487644 -0.2345565991977896 1.0519576024687431 -1.5493174544148414
Ni 1.1340047194236038 8.869733734110682 11.834491198229198 -0.6129749049099572 0.9666270594210385 0.06967329612642194
Ni 1.2980921755418855 4.032212811201184 12.026545326156205 -0.16141539912742525 -0.5241684874985102 -0.8917961303530769
Ni 1.042499332454816 4.586187012003312 0.24815915678382097 0.23819753838448657 -0.28324840797653794 1.8769513304852898
Ni 2.0499312433668093 4.618076833812067 2.590183904541172 0.7329248378037442 0.5105627237896174 0.26066846579349306
Ni 0.2823292621032324 0.842019348277744 4.065314863595056 1.4362956160994553 -1.5251881654668054 0.3740116920040398
Ni 8.078018160966302 1.461876099745271 6.583668889013335 0.25814749914385215 -0.21614364390824065 -1.8047233862578145
Ni 2.0292341609198417 0.8012597547933884 13.640907323110094 0.7637636775614718 -0.13000757424010512 -0.9964695967037678
Ni 0.2874077304543352 8.45578259979899 2.6536144864565525 -0.38923545093232964 -1.0398520774544606 0.5016469093572264
Ni 5.009111308549113 2.445642006667721 13.722676923908594 -0.7887059493291061 -0.9667029069642965 -3.541736770763165
Ni 5.961338352439405 6.28533970084615 7.75168435950103 2.050922711900855 1.8349677869646528 -0.7397045797297389
Ni 1.115963541231976 5.233004037274236 7.5540348104303625 1.570339050971831 0.10121507548844504 -0.19754454074981462
Ni 8.813039663631523 7.955144647667486 9.87457234422478 0.3972004714156772 -1.138564184015394 1.5794939779982216
Ni 0.35321914082718114 6.915329675585031 4.766299056153631 -0.6787663494834697 0.12907889177824863 -0.7357993311380618
Ni 5.394871916264842 2.0264454614517353 1.8119413542692364 2.5769251672843105 -0.8695473462572055 4.210178855502491
P 6.210082756696635 2.002504381664317 10.210133515902891 -0.8140544553962237 0.6590007368207682 -0.6161206496277906
P 4.011155284605278 3.4680038936436586 2.8343127266175148 0.3596772776592386 0.5639449960654997 0.7443310227581568
P 1.916491025280678 5.608520442862227 5.122670186209559 0.8819729736150681 -0.5658558399349674 -0.16377001540253086
P 4.280141473437131 -0.0988110207454398 13.559817823508409 -2.810270262672502 0.6961171820570914 1.079717546190831
P 2.8149834348620475 2.7271963138507345 13.048222369249158 -1.083301149777031 -0.21545458826101604 0.24331454789607773
P 9.101603660974163 8.7437300479395 5.559923086212918 0.3481913885068262 0.8698268251708375 1.249024432251191
P 8.58687993091702 5.176547101103591 13.438440153427686 -0.8582941419408897 -1.2177623889131157 1.871204914919816
P 1.1858991914984705 7.154019585161333 10.80165271750318 -0.1507355508160759 -2.6701446261617887 1.0443260540654142
