# total energy = -340871.1957114265 ev
CRYSTAL
PRIMVEC
9.29621532989895 0.00000000000000 0.00000000000000
0.00000000000000 9.29621532989895 0.00000000000000
0.00000000000000 0.00000000000000 13.60595081115297
PRIMCOORD
 96 1
Ni 5.952747802369088 7.960005202696628 10.162379936365538 0.35524212470602046 0.12964710557689285 -0.5571999640321823
Ni 1.3830351352633339 4.4627968949233585 6.4897260164503745 -0.151229716843675 -1.0422899974719921 -0.2925252052927736
Ni 4.067568301380665 6.381981951484617 2.203252296393369 0.7520864983338597 -0.7082736149139672 -0.40080053006210975
Ni 6.585299476343427 3.247056450225573 1.3073546464939336 -0.032384586978292614 -0.02888531557578251 0.15407541382258624
Ni 4.228225494220952 3.530925680671761 10.61026043413279 -0.6682960460797652 -0.706469471825693 -0.1465135423149283
Ni 4.499898090191591 3.586219569285002 7.935793209943907 0.023399609870862925 1.8899343730085192 1.0413669714370906
Ni 2.0833004414936998 5.398079820190602 10.694604065941643 0.5876343692626396 -0.7787848335606523 1.238473396208222
Ni 0.3287392728418722 0.2729666291406047 1.140419719460552 0.18336182149152938 0.4316833356838952 -0.3273397418687975
Ni 3.5356946391214232 1.7711428278850887 1.4515370865769268 1.1790130360590596 0.023533821455882047 -3.123220311478531
Ni 5.649235668990858 3.5168326182747074 12.846126642668363 -1.7307818017733416 -0.7394600678191006 -0.765407898033114
Ni 1.3769275218102575 0.4468495474903169 8.50301201240093 -0.4206715579544239 -0.15584510412849933 -0.7814641801650283
Ni 3.450095088625337 9.05770230549614 7.159546217568373 -2.098433870107941 -0.6026408699738008 1.3178834600064335
Ni 8.736741175997022 8.19461378826024 7.645986486784659 -0.5647626068707886 0.3559736035554063 0.8547334211728247
Ni 2.822925923310559 3.874365058769874 0.11791226526252303 1.7423281118500444 1.3839641536855907 0.2461890412303954
Ni 1.9181159918015882 1.175599387025967 10.591048875590738 0.13514360991508984 0.7692321568752106 1.4251334288350488
Ni 3.6799533081698894 9.128018878036583 12.168427899082355 -0.5742669468167981 -0.4457927785020838 -0.6758635740143779
Ni 4.719660619918728 8.858819075336141 5.4180936421131705 1.2768861916584655 -0.8854105385417075 -0.7073629301742399
Ni 8.824971555423428 4.865676273659175 11.121653604461326 0.6874520501829257 0.1452534446555821 -0.2591227185729279
Ni 5.8094373472813725 0.8733812868177052 3.567984113349606 -0.9246931381914139 -0.6127201085866738 1.4136331415049332
Ni 5.312145605943662 1.3622859827104166 11.416222778719524 0.23508213268395645 0.628980022088962 -1.890114093119493
Ni 8.450984813844633 1.8664941082324344 13.21849398354164 -0.5093522484212841 0.30754610418163814 0.7008312997033092
Ni 8.703972017059282 6.576970067433295 1.489756616545928 -0.13262829969240386 -0.04939886214810202 -0.9152474193974818
Ni 1.8070262189488262 6.957268939201801 6.224926112452126 -0.22835458415213578 1.0198602077135661 0.0582848517838222
Ni 2.6046414918163574 2.3227430590140843 7.165165779718121 -0.7590331048550218 -0.9225750634071466 -0.5714870700788157
P 1.904404074231896 3.983549107485831 3.8932884346375793 -0.661515532822822 -0.7756897395750963 0.03114197282044314
P 3.507164554361162 1.8500769920100095 9.062937004332406 0.16620870675101052 0.41559491476246485 0.6905378881971012
P 3.7798690302302647 2.010985182663437 12.797593891443892 -0.009687402491092994 0.06959410614905435 -0.5376966038919321
P 2.8503590546652453 6.111991970483549 0.009954387344831611 -0.21257443849974358 0.49693639125543454 0.7343924234882061
P 0.4171862540848041 2.2832806250592745 6.900094426233069 -1.0263424730038002 0.5286131535334251 0.7620641783718617
P 3.7250678410280025 7.085398674702187 10.58693994842748 -1.1069028483563712 0.9870182214828807 1.0061050629110027
P 9.301793030667266 8.007685490977952 5.55017984684587 -1.105441433319496 -1.268729623989602 -0.9030519057725546
P 7.949314555099919 5.624191664968655 13.10210908645315 -0.6249102228949625 0.623359590578391 0.24456821779752072
Ni 1.2886506613073427 0.3512770172187958 5.936004388989581 0.28155302255198605 0.8893201580087587 0.030909545094662896
Ni 0.31856549481592555 1.1231873251561868 3.4688232439717117 -0.3316144579847515 0.057136082891359664 -0.6795757327586426
Ni 5.531508398412835 5.572021304696713 5.631312565889592 -0.18308362812947826 -0.15275078147389176 1.0088638566030625
Ni 1.6297752817953854 2.053729180619672 13.132585798697544 -1.0307686270959537 -1.2438189767908514 -0.949316850277365
Ni 7.904190726026504 7.223605507589385 11.408603600658425 0.6177738689604974 0.16500388780963193 0.5587883915652249
Ni 8.92829898849945 4.574230627742276 2.906897706507355 0.3079423111787922 -1.7637397447566012 -2.28543380257269
Ni 0.0872691507642335 2.904128363969042 4.828561134067991 1.8315443631054007 0.35529740342398813 1.157432995895439
Ni 4.220463154444212 3.134953389904949 5.618590695249509 0.9690696074242601 0.4557136371602217 0.3863033648871992
Ni 7.212515122734712 2.5479159860466876 7.115326910243792 0.4832082430360646 0.24552698216636426 0.07256475874160406
Ni 5.68971139041353 0.9590905326543493 0.0015431717400467384 -0.08334333741434678 -0.12755242783139323 2.505023496048002
Ni 6.734457250855775 7.911227961009729 4.8419904466925185 0.28412849658864614 -2.112384161640446 -0.09719592702672294
Ni 5.723224246575388 4.441378414868734 3.6394961791778204 -0.7614167745958499 0.46886611538177964 -1.5490929971088612
Ni 1.5924695697905207 3.0435622972760368 1.9673524665243807 -0.806434991177753 -0.8901868768844283 0.8819328644057521
Ni 2.7266543176483657 7.250378607657665 8.55442844961192 -0.31974238913751385 -0.8857923473611582 0.08860432870297
Ni 5.2319843413989435 6.921171735186129 7.656626005197211 -0.5502487295253298 0.2897975219489654 -0.1330219355863967
Ni 2.495801403066555 0.5406567264760858 2.921469523992435 -0.3205494584198415 -0.9391450519506858 0.9854958713010835
Ni 7.684121421194417 0.5329287826959602 11.382575127435796 -1.0877270467588684 1.005075593205224 -1.569057613156246
Ni 8.627101612731291 8.299159025540757 3.2143105318260874 -0.013863388245653543 -0.2673703032937008 0.8262954775471059
Ni 1.8242614021177819 5.62222086732474 2.1999865359579567 -0.34295250870539 0.22641751503042296 -0.3300388859675155
Ni 4.633354557059729 7.633596491030838 13.814802502920074 1.0767679766442035 0.4861704109881821 0.052173339569445636
Ni 8.70834123825098 4.263950849624565 8.07008354732459 0.7095511960748103 -0.4494144344150712 0.10793928158615605
Ni 5.0237677110762515 5.718994468613212 9.770352029751146 -0.932175305501072 -0.8062452437644503 -1.9980659731111396
Ni 6.449435289712203 1.5075579392267442 9.365955508678125 -0.08587278870441985 -2.3277798716390685 -1.0786957897945357
Ni 7.494348482029874 2.8421876814152385 3.4485779462881347 -0.2541044394227301 -2.2938935033042687 -1.5950738347143498
P 6.311265641686211 8.745107769768358 7.703676010081094 0.3066328483387493 1.160202588220776 0.1975162586150405
P 6.3680934058241965 2.3358414263738787 5.118844753072204 -1.4309276669193227 -0.13983227364001077 1.6019551352152153
P 3.2172620801843093 0.9816431509757553 5.122804011169107 -0.10783463768749171 0.9462392397933058 -0.43731250894521456
P 6.184270044452606 8.630624878330554 12.245505609011568 -1.713927192109848 -1.2666069212196445 0.06483422286656576
P 7.183111193736111 2.76726948230056 11.631141980274588 0.19731108458276986 -0.1684712775329421 -1.2982294332209319
P 8.677542876957155 2.725733992333519 1.625244306457441 1.3387788153982039 -1.4641869431930847 -0.36337041024010974
P 0.5188450165142083 6.005382973406103 9.17291402021358 -0.07867704228692901 -0.2997916570471998 -0.3862167187106639
P 4.494924615005296 3.7843776946514858 1.6877232398772009 0.6658169884116534 1.0803289545225845 -0.2971423923498108
Ni 8.787675139633865 2.5665363052955645 10.071927761482074 -0.4477241911968418 -1.1283630751126763 -0.6795078556351847
Ni 4.25754575728184 5.482238457314957 12.167815278493986 -0.007654945442096494 0.4601284783984656 -0.459803490958879
Ni 0.23920463440866654 8.991680584424984 12.113596032369598 2.670226130132001 -0.04703190457782223 1.2125371359584343
Ni 1.9444242811047947 3.9523231202881384 8.943654476934444 0.027457581990320452 -0.7696602455515649 -0.7155547219564128
Ni 7.5845310666695935 6.0929440253308025 9.253488966339214 -0.1334407682913702 0.5453512922237124 -0.6053806375024671
Ni 4.019469683410775 2.6918771762055056 3.4811509550830126 -1.0761352281562113 -0.2631902037740822 0.16519774898799292
Ni 7.2515964118621605 0.9233428663340136 1.9668216526306659 1.6233798807478945 -0.6790381150876176 -1.7153166162582072
Ni 6.408225167280714 7.646397379500986 2.324944402797476 -0.8414768132732346 -0.062244864872834725 -0.2723980955255954
Ni 3.2110336159323136 5.412498250123207 4.676950088337579 0.5126324618344527 -0.18665437619987207 0.7518304164589955
Ni 6.513476916924143 3.6693277340802903 9.537118354430625 0.41093273340010517 0.8715738897689312 -0.839931837383618
Ni 7.9291138792497895 0.4725507939343363 5.219310811078428 0.5536852660107044 1.6179119156547876 0.41393526767185485
Ni 2.848732216987485 7.691976723124173 3.985849920772949 -1.3094587262778479 0.5873870291385239 -0.057327372966559334
Ni 0.5359807301794381 5.5877969820633355 4.582334138620581 0.19804564875594924 2.2458709526784033 1.5471687835029548
Ni 5.019854004434327 1.3922941657036143 7.24489662949438 1.4307062949371359 -0.6299215600666247 0.008901673365004024
Ni 0.29411365970842596 4.318463856152481 0.30405317310877517 -0.673050530045615 -0.5742780025603915 -0.14242625961943214
Ni 2.271381469473372 8.238622071497476 0.28069922102838113 -0.8645177542530981 0.1346047066924843 0.12314041480662664
Ni 0.8449646158841218 6.277622638510132 12.715168998473263 -0.06933596739166123 1.4021305401819721 -0.01978798126020463
Ni 7.570568151286761 4.234844399515611 5.110163947223676 -0.10440658584254922 2.436281710596914 2.1134966779783344
Ni 6.52716094584793 5.169132629745595 11.229957301588232 0.4209952598424298 0.08994387344999993 3.1110304542805585
Ni 7.686436178804487 8.490112584048587 0.13327333142669912 -0.016876206930048356 -0.3602740307029731 0.41056917941309934
Ni 3.98404180689681 -0.19922904936921482 9.666715032705584 -0.3330920709715425 0.9222734730063278 -0.5909017271600017
Ni 1.4252678413779867 7.585786055735294 10.552435186092954 -0.23481088130044078 1.5308523057311183 -0.067394013173942
Ni 5.807522326929267 5.432513001667306 0.5212248476313889 0.5882532337935611 0.8451493770288153 0.5077381098566288
Ni 7.7865843062474 6.164273885339108 6.714482473037472 0.37488638129950924 0.7472430541986292 -0.9675066338125143
P 4.642771623160135 9.125481011259277 1.98079479385033 -0.017651651643492184 0.08701101607392112 -1.0053504441331653
P 1.2389066132290893 7.824457087385656 2.1651833651122523 0.29156284137950433 0.38026718599544834 0.7969918434869822
P 4.831252388397771 6.9474800244893355 4.112153879588124 0.6062360435242269 0.20326884482810156 0.26094408805238284
P 8.973943405629747 9.041052783891177 9.815945317697285 0.8500483569923296 0.19558176059648896 -0.04589881941464353
P 6.358220825174018 4.8913803089677845 7.626965500656289 0.5153403476839189 -0.6917802452446344 0.6788193142085922
P 7.6996832856091055 6.1466017800509825 3.4841034330627645 -0.6663268381685363 0.6086076290801969 0.5862470019968097
P 3.096978350398377 5.5157606096921175 7.224922781297606 1.3069806970510007 -0.5905420298277378 0.18359090678319995
P 1.051420543028712 3.358183407939541 11.244379450006958 1.9982004418064747 -0.6443529050006065 0.7675596542687941
