# total energy = -340854.95747946826 ev
CRYSTAL
PRIMVEC
9.46894241093037 0.00000000000000 0.00000000000000
0.00000000000000 9.46894241093037 0.00000000000000
0.00000000000000 0.00000000000000 13.85875435375689
PRIMCOORD
 96 1
Ni 6.402652689842295 2.928374609957375 2.7546905331318357 -1.7554515366058798 -1.3760305006608107 -1.1363599772752235
Ni 0.410156711014042 4.8023540716659125 7.898935922137753 -2.439231794364173 -1.0478834323993698 1.071379972859413
Ni 4.476622451505163 8.990609349904346 5.339708980352728 -0.9052275732676346 -0.4483530830300924 0.37984269686352
Ni 6.299924133239855 1.171658531506707 13.064980710444077 1.800187446060674 2.278506479325237 -0.8782690424009196
Ni 7.426510498701062 4.54385194287555 12.928346711623334 0.18200530746363494 -0.8518720404646295 -0.586693602615925
Ni 7.767581805625196 4.603051771051278 3.283776214380093 1.2468058273333171 1.1023383689141402 0.2922992053248966
Ni 2.9289048707343808 5.3561262327665276 11.091285709619585 -0.16754542328456304 0.41356271482378454 0.902837218658587
Ni 4.885150504418401 4.2358556519171575 7.146404977718933 0.09113660820652046 1.0477600194476275 -0.23879840519327908
Ni 0.9209635457635111 7.2798460491467045 4.884338069156489 3.403436617496964 -0.25738208173273736 -1.229697964008437
Ni 8.079706555490276 6.471198364212751 11.73860060625526 1.290198335386339 -1.2851679720512834 0.6392947737514086
Ni 6.890558887284823 4.680962229501354 10.206154535862247 1.432959866858003 -0.5702136026830309 -1.150552723835838
Ni 9.464501512526004 8.348757086166078 13.42934088131546 -0.4505809439193465 -1.8141469935645598 -0.15510745463152642
Ni 7.54153921154155 5.290089828144403 7.702668417577231 -0.4893452091717379 -0.47284104086912754 1.7222819918324468
Ni 3.233624907606273 2.2485329491236143 1.1798860955984998 1.1182761231903193 2.326795396238612 -0.4211572393415909
Ni 2.512422906166054 4.895064487159921 7.473333472204924 2.634254340023083 1.357803950350455 0.0820565002821232
Ni 4.311285247446243 2.042848581300015 8.855272596198777 2.9192343859787466 0.7913493004892242 -1.8977037325412927
Ni -0.07464746088300164 0.47039528217615373 2.580610654512031 2.646057246195282 0.7610501352850506 2.237343374823366
Ni 5.824194995783567 0.5643234036687867 10.990158351184855 -0.930453694824275 -0.4431561122101852 -1.7805313623926433
Ni 4.448726947057676 1.763268586623669 5.051835138987464 -0.3048294765814234 1.5022405555316967 -0.13087994954272944
Ni 1.1346065597134216 7.467293233818281 2.4733303772755413 0.6499016027329776 -0.43815223123769054 -0.9517887088566254
Ni 8.179225140603343 3.6099017425466187 6.284446199916751 0.7282539146906362 0.3518639522624069 1.0591451213561178
Ni 4.566170240222029 8.738650260344539 13.42867521466147 -0.3454084264450503 1.0650830841071077 -0.7883976740600681
Ni 6.453169497794551 2.8505683098742094 8.168890736817197 1.5319108289026198 -0.3464780053601452 0.16290483918875814
Ni 1.8693207420248434 0.21056844833752109 6.470194656313418 2.5328562019895537 -1.1773641876017273 0.6152071366745856
P 3.6803790811761665 8.512370942699729 1.3633212893554794 0.14350483739559156 -1.0135224384209964 2.5424914110864734
P 0.6180179887060993 9.151117393315534 8.352713210320239 0.4406202331622089 0.18448847889680484 0.3023427056038277
P 8.696702845306396 2.960985647743236 8.846929511009137 -1.0292131096833759 0.12044281336980549 -0.6883791899828854
P 3.034303669106744 0.12312655242076348 11.257479852969917 0.38457866888660863 -0.6102940156436845 1.0086964777872627
P 2.2177967619421666 3.9542682414421457 9.347258960941517 1.0577945208654944 0.23803195934089977 0.6214693155342137
P 5.2347912042566485 0.6211370583479873 3.2891536267954793 0.386083021346277 -0.20035552783604849 0.376543457286958
P 5.097349504645215 1.0658525686091422 7.080091133083125 -0.08228687112537442 -0.35053597747960274 -0.3014268786577777
P 0.39163356580013337 -0.30363868364449814 5.1092519653005075 -1.9520198294853541 3.1123283471563754 -1.1523697224399185
Ni 2.374791827705691 -0.0020774859727694345 3.917689716771188 -0.5160669414372983 0.15755951571644478 -0.4024848597430681
Ni 0.5884019774160766 5.762381739492597 12.566703180339863 0.7811193952310999 -0.20252939555891572 -1.2443555660206118
Ni 8.770181838691494 2.2620640678797104 4.405157502178441 0.3064269029755304 -0.4136678729430811 -0.9876671679207892
Ni 5.270347083143381 1.077897063401133 1.1476755940781271 -2.408321477938562 0.281844842760792 0.8005607917851632
Ni 6.941814272747909 1.596160690327247 5.792778938534459 -0.19817368969338128 0.373072468019222 0.5083857707429568
Ni 0.6787830330682382 3.971501716694837 3.013129220007806 0.5262814200764548 -0.6882290375582664 -0.05411606511811325
Ni 5.954260389229152 6.8911933064287405 7.459142368160305 0.279673546141086 1.0637150001149875 -0.033137920204549386
Ni 2.0724958401001112 9.807173070723604 1.0791185569767356 -1.0475317054869058 -2.1770546052356377 0.03835160319500492
Ni 2.7954495958929386 2.1037717570010113 10.35280856957991 -1.316990258768203 -0.2335243012785333 2.1614660067687614
Ni 1.9755244005051624 7.0108049874133505 9.853560472874925 -0.6703963802522197 0.8902537255666217 -0.7874119131080309
Ni 3.691533495378183 7.096233786165976 3.304148644053809 0.09418850765896683 -0.13244060916163 -0.20164416474048497
Ni 8.378120276692778 7.607168451638473 8.130959100270628 0.0660225867477121 0.9494448912147972 1.5839260456276465
Ni 8.356133392331927 2.694633765664697 11.118061038175647 -3.2547841744621624 0.696252422083375 0.26268318223067666
Ni 0.1981234172800422 3.129049907226758 0.6861224103585463 0.5370620556317267 0.5468242772248132 0.025270344531014538
Ni 0.939092782971644 2.7157495073204667 11.989305060940902 1.1761845654713292 1.7717101645565874 1.2068843085480312
Ni 8.811343331506576 6.571180927505697 6.203233921235567 -2.726558229064827 -1.1168728150848894 -0.7754280012732775
Ni 1.3464836158970535 0.7772420435215374 12.89356160465175 1.794617408172064 -1.1789760121735373 -2.048733931779652
Ni 8.197121441827292 6.9853335322321755 3.3114245794297252 0.1227084694755306 -0.1902590628319949 0.4641684527957942
Ni 4.587465891784283 4.202752229124076 4.363996956257605 -0.15686300387005242 0.7748690434460138 -0.019306156527779655
Ni 7.6870484501174285 9.14692265181172 4.315117328454355 1.1060633831742113 0.9482017628363153 0.13601778498992703
Ni 3.15515578155185 9.759070843095213 8.602502965165547 -1.2546803449853874 -2.9684219034469908 0.2543078136827878
Ni 6.214116576789368 7.556358106470375 5.0314343024864066 0.8461896453678718 2.0023286050422353 -0.7753804358647937
Ni 2.2302578902018046 7.587302610385645 12.558706658443763 -0.20610065784994183 0.5191615212022219 0.20135388719357583
Ni 3.774623465346514 5.5088318676017725 -0.14620804652843336 -1.423373765831465 2.995167032751319 -1.9457795050025972
P 5.946798862581283 3.179585653063907 11.623725290282406 -0.016399524403945948 -0.9311831167911319 0.18777640561945727
P 1.5722705485346433 6.140391390900658 0.5423109531633304 1.666338900807924 0.7095234281606684 1.2095819099848522
P 5.967270716150688 9.069798115584705 8.929375592891104 -0.42140612212760326 -0.4176263433701969 -0.4705162493906929
P 6.64538902945918 3.358539196360942 4.887719428504146 -1.1154078005035886 1.8803333595836456 -2.050846864357597
P 4.569796845179051 6.3033140146357125 8.964494006636807 -1.0895260476408204 -0.930547797199978 0.8085188702899754
P 9.137538929847205 6.145892846462095 9.62329757114286 -1.2304790651488358 2.56072516048568 -0.0862841652102256
P 1.7069851927214743 1.8207166604467875 2.497942999376815 -1.4212495203996103 1.6431817459651699 2.045150585303768
P 3.100633610944711 3.406063818500093 6.114108447351816 2.075396014451871 -1.64465344541469 -1.275839495561506
Ni 6.9367957332512455 7.642553889561168 10.334542032706304 -1.2887973412737546 1.3338870345235414 -3.390416551088213
Ni 4.396458384752811 3.9877693598179818 9.978081800518064 1.3534104492684498 0.5622814923201478 -0.7726260130481081
Ni 9.390425975766775 1.2491997012013691 6.765802729869011 -1.8832988699698727 0.9674230729597726 0.07029241776765958
Ni 7.775242180064442 0.6648314932675159 8.705653836601103 1.1532053309673365 0.7185785963844011 0.6288573804681686
Ni 0.41913232155911107 1.4896256188612995 10.000823359591903 0.7545017926435715 -1.9674711310434183 -1.2293526648538764
Ni 6.672621707935409 8.744293750042672 0.42104788861604475 2.190575522540208 -1.6939114111095537 -0.33442235974719176
Ni 5.990516969856928 7.966600037966435 2.680061063239482 -0.4794773152387226 -0.010387770992227272 -0.32334938976248184
Ni 1.2969137021894512 6.88794545916958 7.3090520552287925 0.1673212230888989 1.765080832165528 0.9917886462883307
Ni 3.8566245069334935 1.900871258256693 12.779850021705574 -0.3671710149331225 -1.128230920410186 -1.1867278882048142
Ni 3.5779629996744613 7.478807467833265 7.210751176114351 -0.36621816410154995 -0.27800901395446964 0.07477256502620026
Ni 7.274590786088879 0.6957239179993312 2.164820869636546 -0.6588750098761813 0.26154778307465276 0.5513874711154633
Ni 6.499226433854489 5.532087590250457 5.299768034219006 0.8286804328395148 -2.910392876427717 1.214072598766354
Ni 8.963083134212274 5.695928701402826 0.7281039135894969 -1.1719599858670204 0.4094255527269594 1.571114495685275
Ni 1.8900009123280725 2.2592044472608572 8.053155640870198 -0.26107907096835037 0.15923947452202897 -1.3333157354011036
Ni 8.884282595172222 0.9902525321160195 0.32958169215951044 -1.4247261660943011 0.27587756943376357 0.34711589605446025
Ni 7.011193214053659 9.16355958369028 6.671659663382841 -0.6611134122883968 -2.748773074598969 1.4591822908896417
Ni 3.147741599616215 4.8423792913874095 1.8372551153239025 -1.0536118502427145 -0.5845125358042063 1.68497451363124
Ni 4.325507599000936 7.62604952287686 11.49335594378429 -0.6411459680275345 -0.6379349172894045 -2.571207033853611
Ni 1.090235095408966 3.699193869817429 5.9061988780532815 -1.2375064043092623 -0.2935886135602815 -1.2848913213511293
Ni 5.3919377730993165 5.3168869352680925 11.764128875091114 -0.9956291030803434 1.9559770143608897 0.8393386838843092
Ni 6.029121848211444 6.359332278149404 0.2542609894685603 0.47305135710772067 -0.23521634426897556 0.25809581997031034
Ni 0.5044465461081327 4.483866192476761 10.43223311192719 -0.3762500944162553 -0.7794286377922383 1.0192192316954576
Ni 4.9533552968607815 3.7891866988292824 13.576354734846095 2.2305870299361388 -2.3340657046477804 1.0474437737587896
Ni 9.357881220578038 8.421042992802915 10.850988569576929 0.213696982139961 0.0071754347025166755 -0.4857937443750537
P 2.2075134904452316 4.311370467928262 12.8300884427499 0.0690685726628875 -1.5766125426853685 0.026086669784722818
P 6.283059946742578 7.492821502654135 12.25102757705733 -0.3867363386595598 0.5859420691618812 2.2702722643409032
P 4.388987389162495 6.511820127308378 5.4196325359669375 -0.3532893718550238 -0.39673150219905867 -0.08480346689964104
P 8.756982132921028 0.7288737386104 12.04120622827884 -0.2249843821283222 -0.1704029473380162 -0.5429408830100069
P 7.616002974941088 3.8957123013527837 1.0464686965268437 0.418718290882795 -0.5206635596690452 1.329611289966323
P 0.17617819626595635 5.362820775076226 4.624319962680436 -0.7818884121866405 -1.8324884721862247 -0.8848212416971406
P 8.735563385106968 8.22427836876395 1.6176211014880704 -1.5188583665940358 -0.6549422504806786 -0.9213499327507939
P 5.176869683311203 5.510782469745758 2.089803173103885 -0.3926254504504851 0.26324933914679177 0.6988993727879189
