# total energy = -340857.80088690197 ev
CRYSTAL
PRIMVEC
9.39030407863835 0.00000000000000 0.00000000000000
0.00000000000000 9.39030407863835 0.00000000000000
0.00000000000000 0.00000000000000 13.74365920557208
PRIMCOORD
 96 1
Ni 1.0724947984597843 9.379026312301 2.6743924035146702 0.2593615740566114 -0.26589449007912275 -0.7048607325776763
Ni 3.641259427640931 4.298139368073783 8.045909258630582 1.5414673622428032 -0.9184245315738828 0.8585795343917924
Ni 5.1985944057131555 7.091980195448503 7.859875127658395 -1.410801842703725 1.8624927318577988 1.602666302349627
Ni 5.074867759319958 5.54162221329842 6.289016233668177 -0.6451754009019017 -3.6653404983594546 -0.8010259043470398
Ni 5.8473423428235645 3.3290224270929527 8.736198022874735 1.4279912099988181 1.7018504634509724 -1.3476519495181178
Ni 8.831167802091661 5.107254918048718 0.5417369709877445 1.9004622691230366 -0.7726216421727339 0.15240702498122785
Ni 8.38110930874519 7.737150426709199 6.132847025752223 -0.16109735366637418 0.005775983251828763 0.17024508160391325
Ni 1.8954047051098568 4.700373042804547 10.037736422996606 -0.009501768842848151 -1.404501868627626 -2.2385746761273055
Ni 6.189318436353271 7.325075713315709 5.784994479937083 2.3612530636958495 -1.2477933880575671 -1.571286502486765
Ni 8.084967289368882 3.7892506197445113 4.037226952467463 0.43210345394044936 0.5115109466354997 0.008071721264540938
Ni 3.237673549124448 8.140802037354154 12.58968677371451 -1.1554853852507647 0.14548278705756879 0.4545502129797398
Ni 0.31725330098082977 6.207235136514035 8.874226102362712 -0.0582218597563707 -2.4618623872794956 -0.9387506447257444
Ni 8.29661535274595 2.6039594888260846 7.910616574717462 0.540131695695986 -1.4572647621519548 0.05075460484504807
Ni 9.14882300808658 5.473129335430177 6.089279771000714 0.9751176133905529 -0.214674772672198 -0.4906235616635293
Ni 1.5189474150443412 5.112062753731272 12.132393990114448 -0.984125473316118 -0.8265816413289572 1.604086065515289
Ni 8.778272219279513 3.3164863711628585 12.92850866410795 0.5657697079790643 -0.24823306824361765 -1.593653300217739
Ni 2.2590442301232545 7.007533190969601 10.793857791966683 -1.3392822373971838 0.4254442967527189 -0.6622385270317757
Ni 5.980111852033749 0.5649732784027387 0.9843142090836497 0.6345148358642622 0.3770911022603119 0.6572968667557841
Ni 4.842279317872397 0.3131750919243206 3.2871257074350497 -0.3223518017359029 -0.07373383934904075 -0.276574081280156
Ni 4.5309719574270995 6.241425233623751 13.295698663089262 3.272064558809165 0.6798076462637905 -0.9480490393085351
Ni 8.12112935033277 7.508890915436748 9.859810819586693 0.8726668657227938 1.6348683410034686 1.6962066349016338
Ni 3.250228385662677 3.314833677646981 5.729594503030136 -1.9819037615289803 3.169542334473522 -1.4374824373187052
Ni 5.711671229656526 7.427796249509939 2.7854412003863533 0.8084671911164334 -0.5836139352493368 -0.3563294442329282
Ni 6.360344044334394 6.0446420215855134 9.502751080633383 -1.168862063667987 -2.6480274825477745 2.0571432388892696
P 0.7103943442830479 0.24851251908520483 7.275315553031693 -0.06568680067484815 2.005432954999172 -1.5300758325764099
P 6.233030301787418 5.920342566644201 11.753563770211079 -0.9413780550462626 0.20713681242394005 -1.2131814544106525
P 2.6448636533440535 0.19901904343670612 4.600813282959433 -0.1306477789272653 0.015599911320786036 -0.9454684230655522
P 8.987572706639709 4.173774181003997 9.061881938847353 1.4065016726664745 0.8119206968826727 0.16496686392410945
P 7.895546075719554 0.26588270354924054 9.95898557696504 0.4475269875843712 0.15750783654290293 0.4753668926147749
P 4.688212599037153 0.08726785182077487 7.88411901469983 1.8767962929646647 1.3912303483297008 1.0680874181510702
P 6.553746746908336 5.256926974580379 4.468351775722661 -0.06940153052227402 1.1337191972182667 -0.10210082052750803
P 4.067259961966504 6.003071145478752 1.638477534549778 0.2631336395045339 0.8772079481262571 2.706092762121623
Ni 2.081586263855903 0.23151888581427532 10.60910168137808 -0.8464143597841681 -0.7754100035511484 -1.0253968212610791
Ni 1.5301969993171893 6.898586883178628 2.275193675058517 -0.0864875394702833 0.6581059929206408 0.45888972089535807
Ni 0.6647236614204228 2.325649656873933 5.878850569091607 -0.8898793729463383 0.4603087127300718 4.974688667201368
Ni 7.7311969739304125 8.867348643663686 12.323609690871073 1.2547927021935357 -0.387786377190629 -0.3080346137822824
Ni 3.4061449943992153 7.62072004657644 3.5502486006188563 -0.18796898124623757 0.4375297671623432 0.8670094103267004
Ni 2.215961515061628 1.0574045798233342 12.721997097055796 1.5748230548851134 2.1305366641797567 -1.614557140249942
Ni 0.7130076659050294 4.86015845681689 2.912584039399301 -0.0032233920333041262 -1.0333780396943428 -0.6431331736608923
Ni 3.465472935497592 1.3491049853757209 6.308133014688765 -0.7395269165012941 -2.6119343363696435 1.87414008628874
Ni 3.0391343502255905 5.133716794910893 3.958847023446563 -0.49765887124375585 1.0845049402771452 -0.09290372740927226
Ni 0.29780785931787956 1.4563234772182767 0.27168778952376044 -1.0920045910882998 -1.1172996182096628 0.5485805977942875
Ni 5.8866125944337915 8.251025426498305 10.232030265426552 -0.8544585702448834 0.9786968461013791 0.6025948472272138
Ni 7.648515346616199 1.768551087462188 5.793336826070638 0.16337715083948637 -1.6139534452276723 -0.7818750424502018
Ni 1.17474581945064 1.9446474596397538 3.916998194339405 1.2720165222709898 -0.49297432128389296 -0.8788812220636218
Ni 7.573252059515298 6.539811535672188 13.216631363810624 -1.4718596292469943 1.2320926894928588 0.7727113736730628
Ni 3.998475984672168 5.203298948050966 11.175258138093323 1.6103065925037041 -0.29830555941997655 0.9343846544475649
Ni 2.928112785235703 8.448184250699242 7.6291187345344 0.2165892160860915 0.6199042850399388 0.3207636313131766
Ni 8.214684949757135 6.166218288347255 2.3700939660253444 -1.5875816401023626 1.0043608265263864 1.3110448398180452
Ni 3.6997328510691667 3.994400592706879 13.380633963379676 0.03366679612482589 -1.4731958315599145 0.021655630596562704
Ni 3.4430113281681654 2.895979164716765 11.105962389227312 -2.283653056523183 0.19151324695407018 1.8902045959507705
Ni 4.5043034938754385 8.653869470993458 5.876115173516748 -1.5902823268629773 0.7795654204804188 -1.5590848182142503
Ni 2.4418828406212754 6.135051869147269 7.523334142122948 -0.18850042826967536 1.3414432496042445 0.3102835577174592
Ni 7.011655534455227 8.967158185596993 7.821104440224558 -0.3292048201019943 0.2381674564774995 0.475239108787659
Ni 5.394879931635816 1.8595619144842628 5.00971501260852 0.6397848260139497 -0.9515069159501486 0.06172138826919692
Ni 7.777819833625481 3.089954675838825 1.4838755683826874 3.836846448953663 0.016786989650351733 1.9250656694940136
P 3.3563200410171343 6.579945695256623 5.602657311676267 -0.36796959957501785 0.8667379018328687 -0.6230382026832302
P 7.612897923288223 8.169733564186078 1.1326359398904056 -0.75840961233841 -0.5581764690128387 0.5268164666443185
P 1.3799709148455477 4.110286335203725 0.7655097949767506 -0.3146595752979678 1.2255476892854893 -1.0447659698163105
P 4.054029023535415 9.430776278016916 11.068662223410444 1.8900374742452866 -0.49393899919000733 0.01669263016433254
P 6.058426987956582 2.524667761280232 2.4877394515044364 -1.4347449837828838 -0.7679725734364967 0.7201590534976435
P 9.599613945150315 6.926072303184159 4.193946432201771 -0.1877082713856832 0.09756128078594165 -0.3548106935955567
P 0.029794495775726494 7.018707652809909 12.247744485279448 1.0350343443508434 -0.5609905414228662 -2.568266463168048
P 5.488782972310677 3.065605617391834 10.843816087666523 1.1768196279521668 0.28695285341131865 0.5909274381916146
Ni 4.828024836297953 1.4778084929246846 12.451026726762791 0.6710959774224056 0.7670318067897823 0.4686766250787929
Ni 0.38380614202873037 7.8537873935314435 0.32443312747082953 -0.7287341967611642 0.3487799140204445 1.56385061503401
Ni 5.592433148607588 8.65639546278761 12.849496767623307 -1.0266124388357352 -1.2636817771530495 -0.08809447894608699
Ni 8.144999503272322 8.43531014382272 3.298794099269308 -0.3651133610731454 0.4517657082560671 0.31450428066702607
Ni 1.4077756051893737 4.16532290734326 7.624817036241084 -2.0577520761178625 -1.5002507787951775 -0.4566451478355555
Ni 3.835253719371125 8.370939609440104 1.2114102616821392 0.34514257437817336 -0.5040740307414802 0.30464641403633985
Ni 6.035420742991242 1.2483470227315956 9.603876204166548 0.3422883927588299 -1.2282869425935232 0.1589358272386811
Ni 9.345972441983449 0.20488328832685115 5.101935310794487 0.7373779884790913 -0.10648326586591984 -0.16593282738180457
Ni 2.5056430052395053 5.886133688926349 0.24502589918494727 -2.2986320464305185 1.5138076915440057 0.936709960146632
Ni 4.93217269871044 3.8219664391156325 3.922000409316155 1.4579581886745536 0.3023141663587374 0.10300816283312583
Ni 9.235429782501004 1.1195777830541593 11.530834209003972 1.0478240399163437 0.08739385333463659 0.11841009921049285
Ni 5.823800850526377 4.799788191967023 1.6467513314636397 0.4318340023291466 0.7533805345549347 1.2454133178611648
Ni 1.0037577726857865 8.236188746071678 8.677746197145854 -0.5133641977941545 0.8449416318933836 2.3520554563569815
Ni 1.7495075508133262 1.8463779275735122 8.992050003619086 -2.4075720013670474 0.4082909249018839 -0.9456885094961582
Ni 3.904140990010203 2.078947588412939 9.196940804189191 0.7384257130173153 -1.4985353387659677 -2.505986888402536
Ni 8.172822974224282 2.7255357555878263 10.30909085672597 -1.445288049406053 0.03351458681767776 0.4250429475492422
Ni 3.6752523283652305 1.5358593526698836 1.1642390082295297 0.2541473768455236 -0.6778482085445746 -0.44086037419747304
Ni 3.478985583050705 3.683130793477851 2.130569845993537 0.6438865068871491 1.0322696371215125 -0.8822894764142225
Ni 1.5954220513699475 2.4830405433490665 1.9143815705998395 -0.44187081773985837 -1.5501710606643884 -0.9977546340637783
Ni 8.715488646284301 5.3400687267939 11.06528077491574 -1.0824621988155037 -0.3992447555392156 -0.06825096185759859
Ni 1.27234863992809 7.729656964063346 6.161433928424871 0.6664672204011425 -0.39343071996059986 -1.2176281773280966
Ni 6.263548790006748 3.267515935450919 13.826533491054656 -2.6955293847834803 -0.7918761195269717 -3.706704663128539
Ni 7.381239121943342 3.9128739727929647 6.3304941457646695 -1.7662239446310355 1.5418859378374608 -0.13658008525130028
Ni 8.176259825512982 1.5936754548133951 3.340726502082667 -0.4949970081408765 -1.2158299477770933 -0.19667062278529354
P 6.509612317791153 -0.22354182250894594 4.818265493280615 0.999235332374363 1.4668387789936352 -0.8605693111283114
P 1.2770344016577655 4.020740395616177 4.735350047395119 -0.07572181631334701 0.31739265795841465 1.412913489730089
P 3.67405975974866 6.184632674623595 9.391317281294931 0.50720074929592 0.4802327053475084 -1.888237959142703
P 7.598850028403265 6.728951040199492 7.987883752706365 0.6106074331190451 0.22739479134202772 -2.404102554761208
P 2.001233431950425 9.253280750533294 0.5422130594039661 0.0711809910202 -0.540227854954218 2.584834137718742
P 7.4738181297446875 1.5332582384431899 13.181433687074465 0.2281229277573039 -0.022994146902328143 0.11503526920098897
P 1.362843000226453 2.853525600027661 11.702340600553349 -1.538537590190518 0.18202999005398326 -0.5494126067772797
P 5.149792995474431 3.281282121213853 6.604213058058227 1.0523101007121556 0.0951218181065136 1.1299540737488798
