# total energy = -340892.10707801173 ev
CRYSTAL
PRIMVEC
9.03276106870256 0.00000000000000 0.00000000000000
0.00000000000000 9.03276106870256 0.00000000000000
0.00000000000000 0.00000000000000 13.22035886953083
PRIMCOORD
 96 1
Ni 6.36586559150769 2.0765324517470822 11.25629015179832 -0.3894305976622713 -1.3197989318615915 1.968388500651365
Ni 4.747221873210069 0.25233741181838254 5.803195924244471 -0.501714015149736 -0.055160961442859834 0.5082433316278215
Ni 2.7151125413064423 1.6594627664010324 4.981127032415082 0.8492176335609181 -1.4536868149927094 -0.17261769560114787
Ni 3.314273660756644 4.1866848408787405 4.929369310433992 0.7908841879273476 0.11409630232648736 -0.3302643717147603
Ni 5.227882197778959 4.1635519393091815 2.8400771801405766 -0.9688194390866669 1.5472168631320709 -1.0178876573682276
Ni 7.260912871330416 6.081703955241878 2.6735401609145106 0.7756745700664448 -0.4580461419481402 0.040570208112878516
Ni 5.090629390535912 4.568788707413481 11.870666054303486 0.8292954407156944 -0.7131877643861331 -1.233660805310927
Ni 5.577459091040767 7.616342993884327 12.401212512721793 -0.9671351094057087 1.1766771888370315 1.189222886712526
Ni 1.5790440929633984 6.746551314525672 0.5270670387835578 0.6290216739601747 -0.7915117942090175 -0.8317747554941223
Ni 2.708663149771626 1.7104527036755968 0.3488389166674182 0.28186361181386943 -1.233245315040063 -0.1719972884083296
Ni 0.48872387053966093 0.1827408896382604 4.875390432460729 -0.3667529535590974 -0.1825346976045437 -1.122490675492299
Ni 8.703733891833638 2.514684601858204 1.1550851206094992 -0.1678326155076787 -0.9889470630744774 0.949536679597655
Ni 6.94970714787239 0.7486912557886589 4.68144801559232 -0.9744023324910831 -1.1675572288136344 0.6356273522021505
Ni 0.7019096819819813 7.6234156459456175 2.7299118173437575 0.7237938220367535 -0.8557677759746101 -0.23973274408209036
Ni 7.590473165655036 3.732887948276999 3.8298456075693235 1.4113957675339823 0.8330603070747653 -0.3793996957888305
Ni 7.501961138134495 4.0263442958724 12.757329125130951 -0.02679835113976675 -0.5344750116308409 -0.9069643534530832
Ni 7.855087906568828 8.667178307041759 7.018411233240692 -0.3680469897801726 0.6005166245419464 -0.9371948702028503
Ni 6.938723310188445 0.7728475692082102 0.4560577927434282 -1.1886760130701206 -0.2340007266943196 -1.9870673080077907
Ni 2.050454870008966 6.612387711631234 9.326117337189805 -0.5731947967985419 -1.0584876902777771 -0.14396943573683593
Ni 9.19562193864031 4.917597815968763 1.2451661387597288 -0.6002476871512759 0.1370477689163382 0.9069250155747155
Ni 6.009694782531014 2.0885189259301375 6.826913984843537 1.3064543922338856 -0.4765951085949211 0.9792864000562618
Ni 3.4129656102095915 4.077415527998244 0.3062982242691388 -0.09175650117870648 0.7595213573453501 0.6905934240253849
Ni 5.997753472154225 5.7093012742931215 4.792023465750036 1.076684672901778 -1.0133422040893902 0.4473264415377909
Ni 5.239480263228125 2.684193399536587 9.209050944795509 -0.2678832383743774 -0.14045319505346132 -0.4593268084327767
P 9.207454855882059 5.462282352300649 12.268136454282246 0.06384743347326423 1.2100300532658645 0.28448279460427134
P 3.8576303811843027 6.085597075342027 12.789362006363332 -0.4452585032651687 0.6736627097083172 -0.34533772110811495
P 2.379419002090871 8.529943565321217 1.4374103965125276 0.33304013468768445 0.6912426275736094 0.12255394617553733
P 6.363625466716886 7.679888469300901 5.669074775327923 0.9803330961532213 0.5930473127480947 -0.038217391609985794
P 4.66701095328126 0.8062904644722221 12.586654197974774 0.2508180553619745 1.0353084239478363 -0.03256225020673747
P 4.07949306308649 6.017399727880031 8.273948788471396 0.08236657532337427 1.4945100196566585 0.3391891850082159
P 4.594017209593793 1.1250665451365924 3.874463835055849 0.8233093983355885 0.3532847438693335 -1.2079891115764356
P 0.3207650946923349 5.480338842045884 3.506461915389673 0.0753906582261734 0.5285079954141285 -0.1533879008372584
Ni 1.4847962620470472 1.2011856242176822 2.454452343269321 -0.8052988206907807 -0.336664104593517 0.6750151099711535
Ni 2.1057263361175678 6.589832906781884 4.520530277141898 -1.103133868232242 -1.2108666902345468 2.19615404506925
Ni 6.324025841382663 5.866037747559417 9.273949527847817 -1.0463672528651593 -1.060310859529445 0.18424473831711494
Ni 8.53849759022804 2.5051731042585383 10.309923238915287 0.35149936983413654 -0.8107379894284813 0.3228292555929537
Ni 2.496700374202995 5.3488308709599 6.92371357081393 -0.39498675159381 -0.21789945025708282 0.5865627334650156
Ni 0.5539069855714479 9.177285433296225 8.852246939254979 -0.37968405979846864 -0.7807319299846941 2.1625075606593986
Ni 1.3083503037261728 0.9926462651640308 11.3702492743215 0.22683120552907385 1.6082250273843268 -0.25459397746463897
Ni 4.0308968075440355 6.998746008716254 1.5455786157962537 -0.24034672351700545 -0.8352143773032906 -0.20298628059067622
Ni 5.605659371673396 7.680394303931083 7.8614993605063805 -0.6614031756146738 1.2952808921155692 0.8515239130965915
Ni 5.575065409308658 3.0386479838751472 4.740093218029009 -1.2291197229074637 -0.8286025284137278 1.1033907214380545
Ni 0.7958991759264897 7.39957478932897 6.9788423192947295 0.20990254809453526 0.00944211924950632 -0.6476583152247556
Ni 5.159739046884484 4.486102810901283 7.234894002540447 -0.3494630561303982 -0.13434271128034928 -0.2091409873381624
Ni 8.451728885629375 7.067006585507022 9.216110950991045 -0.21595646759809903 0.5251524486783343 0.3554979494705684
Ni 4.732128129155899 0.3981568898340068 10.370234985803197 -1.2224284269302172 -0.05707489063612106 0.14933841335823314
Ni 8.352413675649952 7.147642045214733 4.68903643832117 -0.5760944869438401 -0.07520888123267047 0.6800336462316675
Ni 7.3676439782987515 6.307992690158155 7.20738292159144 1.0002005245011096 -2.2125381428542283 -1.7672238466504595
Ni 2.463649500777374 5.321497735407584 2.5576507373115116 -0.9005111416285718 -1.2838500245708082 -0.8148224439105
Ni 2.291205055691687 5.238667314715332 11.470075738587855 0.15958194546311227 0.5357132549133161 -0.4181763023363959
Ni 1.2467288064565403 3.0723221178272424 3.946607595909386 -1.3184542449082388 1.551988316378785 -0.7829057977075613
Ni 3.448220477381004 2.6358590940704767 2.695552096812542 0.6137858308470268 -0.030300707866070396 0.17377366358246202
Ni 0.8456985952678763 3.2040920389895704 8.280902208084143 1.1655335135153861 0.027591536465023447 -0.8509359018036056
Ni 3.503383550354567 2.5159672539561653 7.2554516638767055 0.47244689075450247 0.5567057980045832 -0.6175897779741493
Ni 4.298853670121528 6.98690405871325 5.983679526845545 -1.7509315372483394 -1.3084241143657465 -0.5078129289586222
Ni 0.6124266326267165 7.461665990183771 11.387065565946664 0.793314394635395 -0.5682114846513376 -0.09019404178759305
P 0.4733474010582632 5.556313396946923 7.926213675229124 -0.6146546066052253 -0.5972983747149648 0.8031720041557651
P 8.390559026422403 1.5869116280149742 7.76171264038954 -0.9785690622742632 0.8186803842040093 0.797263351980814
P 1.7916843256260229 3.2202968126778906 10.37725524784922 -0.3736501948995629 -0.3811544736964081 0.40523568301532786
P 4.152712625805289 5.933927981138801 3.754159197752264 -0.7430207885871655 0.44459490153924075 -0.1555489130443192
P 6.703907648649106 3.9237230952742914 10.397376626816946 0.47383348668938396 1.544563998890256 -0.3638936297334313
P 6.1426208971337575 7.877588514850659 10.310253837977154 1.4324464175566944 -1.6083862355525396 -1.1177891562515716
P 2.2868602975288765 8.434458246113172 5.775327145949836 1.5902669002440095 -0.008508808801959538 -0.5566844578483444
P 6.94477526022812 3.9298111763589785 1.6563916275749295 0.5419391812183698 -0.05508125724485998 -0.5915560729145489
Ni 5.239127985539248 2.614379187810262 0.5443123865682518 0.029277665918194737 0.272013458492667 -0.44336951377257183
Ni 1.298667183662695 0.9908035818683689 6.926675413228868 1.1342586146615046 1.507682038262242 -0.338843628743339
Ni 6.902754854878026 0.5964287091710956 9.050618118965854 -0.7360937224500291 0.3578906180724611 0.12664431419482705
Ni 2.7869410587922414 1.551810317784867 9.277678251693159 -0.38050604147913175 -0.6632661969653416 -0.02967850090103921
Ni 6.313656231463939 1.9038350893463045 2.5503396203531357 0.5217912455155852 -0.01438377952549781 0.5027005474327214
Ni 4.227765839058495 6.569328538737019 10.534074822519043 -0.08173254128380118 0.5079139733128607 -0.1737654360523459
Ni 8.027478155086996 7.241338877694637 0.13711099289137144 0.022377596364251785 0.08016802501015871 1.4031245286641256
Ni 7.5162690319596335 3.704362488239253 8.291875206454584 -0.29675878375814696 -0.028851634124369665 -0.20552575918307828
Ni 2.7990178605878286 8.432714923191295 12.360017701750248 1.4933941608846604 -0.6350141440981838 0.012269304285656289
Ni 0.17645679763437833 4.788908066393791 10.002444432750348 -0.21268473882536276 0.8558248544647907 0.7003265921527487
Ni 8.521470835265674 2.4668561310222756 5.726279252344719 0.25228949770117837 0.15794415274937312 0.9494957990573906
Ni 3.6837406942980966 2.589882339291463 11.400563221087388 0.15990847556459556 -0.08154305098081441 0.1979543745937236
Ni 1.1390040957503482 3.4949288858215306 12.566241964094692 -0.8681437810414596 -1.2420135481509964 -0.45843926362150084
Ni 3.0023904802046246 8.230715283284992 7.891298439880834 0.9520471047243344 0.6112221838849087 -0.22186563399368242
Ni 5.30625946717336 7.854672399551179 3.500539133835921 2.215188693103198 -0.14101652375609908 1.349874153980417
Ni 3.1056078430454477 8.299653317169753 3.5339341554652903 -0.6891613195645486 2.178508306963029 -0.1575741710044641
Ni 3.3978447678716606 4.2222287564102565 9.260358835266187 -0.07919897622867005 -0.08067504655356429 0.07008261574969867
Ni 7.272023167671907 6.231132924654299 11.448936367426887 0.32127682350416925 -1.2769921211087103 -1.0851554293769505
Ni 0.5246796799843253 9.055072173539829 0.40951558710996155 0.11203402048081995 0.10695274930317064 -0.26574279499260683
Ni 4.775602809067763 0.19550418128909464 1.5754833784773696 -0.8587641395987725 1.4987705947052252 -0.23402180974024214
Ni 5.924073238611511 5.625314660160456 0.6705298693882106 -0.21226642034102153 -0.10006219283092445 -0.3622638074394922
Ni 7.815903788252254 8.909337603479985 11.254862072244181 -0.04290476978332611 -0.4084184516186837 -0.14773944430222943
Ni 0.33799418350677307 4.930767581875994 5.671375419619125 -0.6744245275750063 -0.07445323401356856 0.33118508375681677
Ni 7.9879959556490645 8.987886495338197 2.2487041074429217 -0.18169548953269998 -0.11715411531620469 1.6214595237967298
P 8.503549836939237 1.6580897866905395 3.5780501614261357 0.5944092260926279 0.44275296323449553 -0.8542868205537094
P 1.7682623756963602 3.37153233434096 1.5580456328779815 -0.39968698528295676 -0.44042560065289954 0.07025693654403385
P 4.729481530108697 0.7293846318859745 8.024348303312747 -0.1450284731289696 1.0080655290714833 0.6147584791729412
P 8.548072317156478 1.4928896161299543 12.388468189869592 -0.8427834478998001 1.9943327313209525 0.15155830382768737
P 6.307107479555336 7.659492494391076 1.502321625430592 0.45852179603297805 0.22965196280732064 -0.35600831344808365
P 1.734163701965363 3.2557684661193806 6.190618280605122 0.15963413885728636 -0.23450183470045424 -0.43653346468734494
P 7.0044095500220385 4.09166019249461 6.170100363418378 0.11125471911263421 0.7311762305437536 -1.1424383222588195
P 2.2645674427558693 8.580156685128003 10.141826261820786 0.6512208357650333 -0.5895601255304427 -0.03557224067765486
