# total energy = -381162.176004085 ev
CRYSTAL
PRIMVEC
9.31486922135634 0.00000000000000 0.00000000000000

0.00000000000000 9.31486922135634 0.00000000000000

0.00000000000000 0.00000000000000 13.63325266687377

PRIMCOORD
 96 1
Ni 2.598475947531904 2.8458975066025323 10.47610471747987 -0.2023396481456128 -0.07816127899277506 0.9571312041154613
Ni 8.055787755161901 4.795658009576205 4.221931920537063 -0.4710068158738662 0.3568989435831531 -0.5877660097444974
Ni 2.0265895451848963 0.6201187957235498 9.335438421706497 -2.70450639147111 -0.5261960594515003 1.1014999321732448
Ni 5.094022588997606 6.761514606747378 10.070897655387885 0.7521605461049047 1.4327510932813066 2.329104246877447
Ni 5.253809857437391 3.3553183952409475 8.664218252853608 -0.5061599667362315 -0.2754363681312869 -1.6647327326630683
Ni 0.6192161848857385 3.166841329273208 13.524473018240483 -0.7517879932568343 -1.6820303434012513 -1.0238436178413464
Ni 5.072477296243658 0.5062510386063492 12.510595134828147 0.8417460077742213 -2.2688283328055245 -0.7371113650812661
Ni 7.9244946719942 2.4238687219924517 3.841482849629997 1.430620162981233 2.353112951087218 1.6866989525215144
Ni 2.1243118392971607 5.030336827407144 9.309452730744244 -0.2675363965579199 0.743681562099616 1.6207275307267122
Ni 1.7628203904449304 1.1543917557270895 1.4046608703510606 0.19031357021901416 -0.6440196900309038 -0.06389859842617382
Ni 1.950691989906398 8.331396108816813 5.934827405848689 -1.6082985609347398 0.42828716551815277 1.3866450429518635
Ni 7.441630475807798 1.7097628947568686 10.59332396458102 0.14569978816438134 0.27097910369088174 -0.5309454012110275
Ni 3.5007887095247363 8.622113180520536 7.918820053600034 -0.01324272394251913 -3.0124458744364246 0.9867374570176685
Ni 0.45472025000102506 3.3222599239985087 9.009126439842522 -0.5060108427528769 0.6601050256285406 0.6888700135763749
Ni 7.872545645756081 7.171471320709332 3.472103569431445 0.0702124564593436 0.002022686856983613 0.01860295981316796
Ni 1.3746697855780876 2.748454658570086 3.159819780774321 0.1680573299239751 0.3764647815302226 0.6540379934988543
Ni 3.8900291541028684 8.736564979944555 10.792273738133394 -0.5003508162536222 -0.4028090758517063 0.19345442984084102
Ni 8.739769294993133 1.504742620863919 1.8190849956423671 0.7944672772929157 1.3378717302029024 -0.9016491118877569
Ni 3.6070620536794236 4.7123923926598446 3.3281357435701433 1.7903858865892197 -0.43454497350240645 0.5377022603188869
Ni 4.037511480161345 7.160349366732586 12.963928400786342 -0.8145753608967004 0.5533168269276922 -2.3513216635147502
Ni 7.4689882470219535 3.1090705097055538 8.428553921847845 0.9953925615895051 -0.28843869392822585 0.5129214538297812
Ni 7.672248010612052 7.203700768581645 8.79672040605999 -0.37544173958234694 0.34441829461763906 0.9050193139115704
Ni 0.3829016760009328 8.175316158369277 7.85083175386731 -0.0532891983414437 0.035752732119577135 -0.08600674317912284
Ni 6.293172291842171 8.99640325982842 10.008921172318974 -1.4985808472919222 -0.28631470560668754 0.17324144522807583
P 7.9206290012233875 1.3345133839082783 5.833736854987688 -0.12443882190307602 0.9569399140402617 0.8745190884401843
Ni 7.44471369755512 6.0445118551510175 12.137439606604325 0.47517663098083973 1.8415276995703578 -0.4514970279757128
P 7.065728924106298 3.02133375551211 1.9653563886883 -1.032392278742306 0.7380446755288128 -0.9238644716425314
Ni 7.548723528463283 4.169056064800883 13.273252855458198 0.26854144078366654 -0.06896701408801671 2.2855207058595415
P 3.8569706828604295 0.6484043279227015 0.8079354374559864 -0.11325143782768882 -1.2861038536019915 0.3813215954018917
P 4.909923511613679 2.7333179959132914 10.622035186308427 0.8351788960796648 -2.3697865550881576 1.871848976261718
P 2.595150539182073 7.2857740822241155 9.81200204027994 0.9333225317316378 -0.24295896432887193 -0.46853032930891564
Ni 4.508741404558002 2.388118253514436 13.45720662088062 -0.4682181973851356 2.3263742495407937 -0.531510272575562
Ni 8.44558709189967 8.500610025015783 11.72157074508036 -0.8632106054059004 -1.041618168215948 1.8361790336639343
Ni 6.679171161894417 0.8013637971456059 7.984709713273326 0.8108794001023518 1.0179969292525823 -0.6426150963738932
Ni 1.9229150495725145 6.389078186435619 7.532727103367583 1.1238605592566322 0.8639027463769187 -1.2503570350196853
Ni 5.966453250188596 8.52229504080964 4.807521427151401 1.4491966404318397 -3.025262823695435 2.242386850784545
Ni 4.101458058092971 1.090379973710172 9.214360955729997 3.503787030992269 2.2013394459249316 -0.11408730346542287
Ni 5.410672256908417 9.049134735090027 2.710699630212843 -0.9104607966421159 -0.44887116031709146 -1.6959387259522276
Ni 5.688823569889669 5.505078457540177 4.992960914231521 0.40333589488945376 0.08639523686679315 1.3218622421485233
Ni 4.898382388517206 3.9615766654055373 1.442521156731701 1.2542460856614464 0.4048849845441285 -0.3633675820266323
Ni 1.9774349797449557 4.416114343967748 5.0349234690638855 -1.467920442093588 0.37177508936403714 -0.7384938472510894
Ni 4.295980474254101 4.617911673073467 10.20806190069256 -1.2037542475594816 1.796292996102274 1.355852483051039
Ni 8.425494918760775 8.555511864830642 5.52617104764482 -0.20685733351030827 -1.0615971824410362 0.749841925274057
Ni 1.5656991257414958 8.475702064434694 11.592749828232112 0.5878922509097165 0.4298740503892983 0.22233537454124938
Ni 4.879333480742964 0.6420273683812607 6.283238915191583 1.8019753911990324 0.03630886173336328 3.2875665110995063
Ni 8.510940215099712 3.659318470605341 6.347355955231898 0.01195948635472134 -0.9810578901343878 -0.6299842949837602
Ni 6.982109342155503 2.223347529984568 12.693376158202268 -1.1029022118374103 -1.2347208711443252 0.2362206171637738
Ni 1.7272934788307681 8.287476499938792 0.41913372322316844 1.0880636041626808 0.9159827549016096 -1.5763184084837176
Ni 3.204706273088512 6.408266817249772 1.3075393853104045 0.48595726653611154 -0.820503039235045 0.6214418047303878
Ni 7.75895081431017 0.3410313383749079 3.3399283681384517 -0.8149268306988482 -3.7634892762177503 0.876568000549413
Ni 0.7818891998431076 7.0186608893956635 1.9259693952249224 -1.1114040786608343 -0.917425400885407 2.105337796316626
Ni 2.524478625596166 3.3350678693234883 1.0040218201771627 1.7026043108978612 0.15969018890620237 1.0361851701258349
Ni 0.5388269996176361 6.972934195868155 10.186248339701987 -0.9897428195028954 0.4970284367486086 -0.6519664556818061
Ni 1.3584153386020223 2.5471975918853484 6.356518060702189 -0.5056737711284324 -0.23324687924743054 -0.3459231612979397
Ni 1.3135362981832932 5.169808365844178 0.3515357165152568 0.6215816727423619 0.9804089436964792 1.3400276002036406
Ni 5.252366052691666 5.002122088214879 12.548400463479757 1.209510947537601 0.4533266249852838 0.3277799147300097
P 4.796412513991712 7.167214425426775 3.7059133099541515 -1.1844105529255473 -1.0351533864272109 -0.0985347004428045
Ni 7.744782898063411 5.855429322677007 1.4187579935909327 0.19821199913048446 1.0966780853045694 -1.1629703807739002
P 7.33420208785653 6.758002901011002 6.43034212606844 1.1343367761976078 1.2225032460322107 -1.4766012576970375
Ni 0.16082960231750468 1.2261255644163036 8.04660515697909 -1.0536133929046112 0.5624092761472637 -1.796324620671158
P 0.1812189197879398 6.763358950874175 13.264336662538147 -1.5793124581150348 1.6363660085949174 -0.6684402849671134
P 6.148000053376855 7.718738523424397 11.721979667843826 -0.754464768758049 0.4243302377529337 1.5363184710520121
P 1.7606872853689883 5.120486132756346 2.6275504491630746 -1.6587772864105819 -0.3856456766985423 -0.15977863485495064
Ni 0.36567382518016905 6.2422944755766885 5.2859526770249605 -1.871658200407151 0.20903197256412387 0.8809059658031345
Ni 2.667396665684286 3.0839203625219573 8.192166756982287 1.4853208969582226 -0.5999751502161796 -1.0012883582486496
Ni 9.118651604879354 4.1729589950490045 1.8549817075688215 -0.13289466597991306 -1.1437022765729077 1.3751033608608512
Ni 5.921835026111029 2.977721537321888 6.499449141607368 1.2121869517078672 -0.38521064604365274 -1.3647374442454947
Ni 6.922531437938361 3.935131751385452 10.843466396982139 -0.3839757451952871 1.3030466521039172 -0.5531288792866023
Ni 3.973807088832227 1.9804809420149692 2.569009289902056 -0.35530203140967836 -0.4267203352516651 0.5589925371562309
Ni 2.2774762356452647 6.799118734221519 4.421686498799314 1.3282948851477445 -1.3927380432234786 -1.7538242854151023
Ni 0.10132808002884573 4.68506256605367 11.877671188240416 -1.0266355787641868 -0.6156000012376301 -1.8526739459951642
Ni 5.856668200297531 7.891697017092925 7.5258694965688555 -0.39094420609332026 0.5752059136912998 -0.16947786442058554
Ni 9.010515286859215 1.184804804080587 13.304023594793863 0.14711492334435308 -1.8224627125191066 -2.1854937371419263
Ni 3.065150900827532 8.241898844320518 2.853453728600804 -0.3941115480777084 1.3682431434059081 -0.9977703177930624
Ni 3.2753316123277827 0.5317551508243817 4.905421635267815 -0.937795994121959 0.04779372244451124 -3.48286699301015
Ni 5.962140465690076 5.641541293184507 2.7075642451972888 -0.6259836584647993 0.42228389674686634 -0.10799096075969788
Ni 1.8822649598283603 6.022612597362634 12.020930152545914 1.2481358589986504 2.991168710225203 -1.8216952382254628
Ni 8.484485986210299 0.028272491382093617 9.705471605731821 2.4511504001786304 -0.6702146032587166 -1.4948620036794384
Ni 5.864781451481574 1.2862996202703905 4.369198141627147 -0.241551542458384 0.5499355691602852 0.5415864258646415
Ni 4.079987284293642 7.138543257637475 6.0522096631630635 -0.050773888118757715 -0.2883767303420388 -0.6281300153838407
Ni 8.997576933363653 5.668228393807102 7.556625332113596 0.690513719827385 -0.4832894898959612 -1.0696707034777901
Ni 6.330655326015058 0.9443693970054023 0.9681940382837302 0.6238799818582352 0.5688015528268527 0.12283831018517553
Ni 5.746091386513652 7.2319900267285275 0.6962259355619117 1.1848532968899208 0.09093503371867566 0.7502574155449208
Ni 6.607707484415694 5.143810565551801 7.436407628576004 -0.43938096143846905 -1.1084627366443232 0.4835365729097608
Ni 3.7223149318655873 2.769972006716052 5.662121565476151 0.26871524735736946 0.5874189108177238 -0.23916787271755582
Ni 5.604151407704894 3.275685577362218 3.8508349784345643 0.16897495664223802 3.0444586798975957 -0.858972656065153
Ni 2.199883374149205 1.3260927420364368 12.343070004438209 -0.12620105600982137 0.1629130667188743 0.6338432637185343
Ni 7.998296381674065 8.225029615968854 0.71225589418719 0.7666417704402152 0.33116554337279097 0.05477375330677019
P 3.139325205280488 4.675803585942375 6.7214932706828145 0.8288100164388436 0.6310556736710681 1.3110736361734516
Ni 4.602421045382236 5.930740041187888 8.249686075078104 -2.0619887399070294 -1.4066502824291969 -3.429662641073029
P 2.871233951172674 0.9818151717009796 6.986264705362393 -1.593706779163494 1.9433392709922208 0.02716987554657256
Ni 0.6990995727493707 0.8715038316929263 4.799109168661953 -0.1813710163137457 -0.10012724174090498 -0.8710918079261901
P 0.5162272636558427 9.05017800045468 2.7642098285502104 0.3246323702399635 0.07841298999226497 -0.0032287913499428264
P 8.636569857716442 5.408921061474892 9.58260847930529 -1.0392152152014105 -2.806197378154709 1.6983424502977138
P 0.4682733848721855 1.9982164532140683 10.846724738272814 0.10951665337560494 -0.7839000433000306 0.11463417710782839
Ni 3.1733896824102703 4.360644297123926 12.399306665027664 -0.6450666432381793 -1.971992415952539 0.7655485373760363
