# total energy = -340896.7093416779 ev
CRYSTAL
PRIMVEC
9.02459504055697 0.00000000000000 0.00000000000000
0.00000000000000 9.02459504055697 0.00000000000000
0.00000000000000 0.00000000000000 13.20840706190674
PRIMCOORD
 96 1
Ni 6.422172533135773 1.9930457052863184 11.316170688301217 0.318668953567677 -0.038662963787836645 0.8997472668793537
Ni 4.577148234884702 0.4068504012026477 5.902836872592227 -0.0395448521721577 -0.5864010110761707 0.561346382100388
Ni 2.7720397202768994 1.6810564318674959 4.783332254174641 -0.6997486081620916 -0.36851878721026854 -0.21777475175376043
Ni 3.2169522533117534 4.2651950598458415 4.6768988882344145 0.05067412931609983 -0.2922521541370451 0.10648275164528757
Ni 5.084727555534039 4.565443335181939 2.712940355062186 0.8288683804806047 0.266231047482935 -0.180817714913437
Ni 7.20701448568024 6.143980367956616 2.606864363083586 0.250822940457981 0.07541148416177981 -0.11526615426487245
Ni 5.212299230320666 4.32890870047923 11.677631888998816 -0.22672784718199013 0.0003226734467413798 -0.3513924119426271
Ni 5.4998228267200675 7.742940059194942 12.506921776790813 -0.011468148540599602 1.3062983262719954 -0.6230500297577722
Ni 1.8919160938220472 6.448154342113609 0.26052561802562674 0.2173078394196709 -0.22336047337165404 0.2581025048385297
Ni 2.776245181542502 1.5274758743180605 0.485120713555818 -0.5221018347774685 0.6133834532022856 -0.02846211199543485
Ni 0.7731686389241708 8.878134838463122 4.740378791857548 -0.39971372475583417 0.8853380334325591 -0.5345678284549632
Ni 8.926181782192891 2.2040858591406813 1.3243936083263783 -1.75945423000737 0.9445811353645925 0.22156378648254746
Ni 6.934832700764799 0.7050618254493748 4.882540529365421 -0.36934925353136394 0.5328076512307468 -0.306522290902814
Ni 0.53318299909707 7.23656100967935 2.3951067539274735 1.2292945579224313 -0.4074290911222209 0.036653389556975585
Ni 7.528199821394448 3.935039276711011 3.771422467072569 0.15742350435921276 -0.29752831493431986 -0.2142795941163084
Ni 7.643055841839368 3.9036517353338263 12.632150666717889 -0.07121030159623865 -0.5306335263975636 0.22289664636135806
Ni 7.996368735719988 8.859769787657324 6.830516504809359 -0.43427089390541346 -0.11387467323398452 0.3374256653498898
Ni 6.956888810921741 0.7237815428383038 0.2683102336644881 -0.012611261006107315 -0.5131345982818518 0.16390551253913063
Ni 1.923700717378817 6.404141392344624 9.39034558126162 0.442499966683425 -0.020244352071332877 -1.4799575757637802
Ni 0.1132830335380653 4.806381972240043 1.3637543793777276 -0.6030468471629679 0.03858300247952065 0.5261960594515003
Ni 6.276732160267827 2.1469601728504046 6.936342515506721 0.006752488232485146 -0.3868355832415854 0.45684029456549713
Ni 3.700372733171349 4.207455701096206 0.6640522608932493 -0.9774277495809681 0.4267907834782843 -0.6204298185261057
Ni 6.074166101109605 5.849661251529319 4.8311599002461385 -0.7552664387237379 0.026610660608992878 -0.5744957749981524
Ni 5.322661002460285 2.985047235839205 9.433866690603619 -0.24302041369442662 -0.5255789946927916 -0.7398269642402161
P 0.2396616568669395 5.505968575908642 12.443402164949722 -0.4467440866717597 -0.29349014030920423 -0.12328439658365865
P 3.998527302469636 5.97792782013022 12.647948220248873 -0.06378881232118692 0.29763295883298424 0.0265353272863672
P 2.4402956084237295 8.305082081157236 1.4555263882962821 -0.35497807241135637 0.5127126802530847 0.7621670224983133
P 6.161984434962794 7.836091928687554 5.90642956385797 0.5954543795276906 0.12763341758097374 -0.15089650187397236
P 4.580297818536408 0.9740967340916054 12.528662928582584 1.0552594131484665 0.09125822138604929 -0.03807598093611507
P 3.910672870236486 6.03670500730377 8.346049230116906 -0.4621905031338169 0.6232541753487782 0.6547661299141304
P 4.586217952850219 1.1099529870795708 3.780378475141205 1.6757244557878819 -0.4060522653793523 -0.014070876270769314
P 0.11077780596868447 5.428375108179764 3.716528563123459 0.1895736067291961 1.8742303320097011 -1.7893438184779507
Ni 1.4184136438570827 1.0738365579273297 2.592744481761348 1.1842814835468507 -0.9866680372323136 0.7410112143563045
Ni 1.7430102764777247 6.494847596594792 4.814054682901021 1.209213213791524 0.1265304143247821 -0.5454297108701316
Ni 5.9600952204288635 5.504669034230001 9.203816227401632 -0.5167187160886842 0.7501381163582371 0.6930015192462452
Ni 8.536391475360409 2.3827908891438496 10.013464986656162 0.3328367604276268 -0.20210182110319386 0.3888901517777689
Ni 2.4319749318424284 5.137810223268543 6.899080865250177 -1.1108307226558674 -0.1793359881615879 0.48637892745456235
Ni 0.5383730436761439 9.006401407064024 9.02711375502687 0.7801948265343015 -0.3427995280672935 -0.15248390096575026
Ni 1.4868742214555086 1.1009915642539398 11.390943067636043 -0.1310082475904776 -0.23449720671476387 -0.36169405097895124
Ni 4.238455184888797 6.834235540404971 1.5833706058516241 -0.4781123165703958 0.7459873274146572 0.18541818979992586
Ni 5.353696584632839 7.7567296403405255 8.143299971680376 0.5772165163634252 -0.033119151151471994 0.05724304078286915
Ni 5.41664313469203 3.093089687066249 4.742174686260671 -0.805529191534032 -0.708185168965219 -0.03486364464640447
Ni 0.7258942005255951 7.36482757828025 6.9051309537318515 0.762182706227597 -0.4468271333038692 0.6410366961431798
Ni 4.905977402555918 4.5742332907027485 7.118037393830264 0.8427695639427292 -0.7448118190493173 -0.6599895830965988
Ni 7.915057134854998 7.248473475066895 8.94642394875673 0.6005153389903658 0.023545905640740092 1.2033454421568373
Ni 4.7412153718131735 0.3955452910579669 10.393127892990234 -1.033788387758884 -0.5146433216168943 0.11163498527018839
Ni 8.148730972945698 7.26181182646295 4.857536986484562 -0.35994210128485105 -0.3641216865838374 -0.5003559584599446
Ni 7.190797288482194 6.223044844668956 7.031033078445224 -0.5066356208210694 -0.8236492981735105 -0.859168574126043
Ni 2.357801785614975 5.500860655143982 2.4380340449190943 -0.4073678988669823 -1.1376815243001246 1.0874511673896625
Ni 2.455935231542379 4.971468888402449 11.370034885961902 -0.18488314323206223 0.3087810050300037 0.35868226073582093
Ni 1.0048886521994131 3.341753377436277 3.63774023901783 0.17671860514339888 0.44064748685571853 0.37133337384092824
Ni 3.7770908151861424 2.658185429875931 2.589679729302552 -1.077528508959312 -0.0364808685348533 -0.08744578961849456
Ni 1.024472023328939 3.343143165064824 8.21239317338764 -0.6370198616743029 0.22222635976721083 -1.0365880619912085
Ni 3.5657708988870724 2.5849598661224866 7.014892590304598 -0.001315890597946121 0.07888658719457382 -0.34977415961291375
Ni 4.094855829398926 6.70660069345341 6.182736491143598 0.04611042120481736 1.1564842588289244 -0.8861533302450029
Ni 0.6473387109707229 7.242192356953462 11.265463293968228 -0.2616398285678268 0.6774615146291172 0.25084170951105833
P 0.05373424349282214 5.517492983711594 7.97593615020185 1.1890382815055458 0.9287428827807553 0.8475150490475146
P 8.53483022042704 1.5882113986045632 7.91033005199894 -0.8154320524700408 0.8787390400588028 -0.017643938334008322
P 1.6409601563244156 3.169085801481797 10.3687714135702 0.5447406552229069 -0.23916684427629137 0.10086797656167146
P 4.053802946786846 6.070565287708369 3.845429560752196 -0.35322200895219813 1.1733414395955792 -0.004859127864514212
P 7.073685119289633 4.010051710272587 10.391753447173173 -0.9597043641592763 -0.014134125408536948 0.3903451390567406
P 6.2711639851586485 7.7835236628675135 10.341152543061073 0.42363912522318004 -0.5511632709197991 -0.08654796039457352
P 2.565114781738234 8.389687659193783 5.821275290445997 -0.7125195346745148 0.17390607539526823 0.5806977900438064
P 6.864359638483477 3.8282241704026836 1.567111895516622 0.529632853047191 0.8244514823598318 0.06654734890293056
Ni 5.359318907311961 2.612421708678776 0.539141036709841 0.1387457254440514 0.07350706805021534 -0.4420867904054063
Ni 1.4903306413368953 1.0401026218525977 6.95822806081834 -0.36259316575445294 0.5934381204286102 -0.5461887005233431
Ni 6.7417514909416605 0.5060270903109608 8.98879622715643 0.07897349048142528 1.4034042646880733 -0.7299796391324912
Ni 2.650243786284234 1.5648828205539527 9.20257444313093 0.1354130615263926 -0.4543743495235078 0.05353705268619166
Ni 6.553507464033466 1.8250799433219227 2.647176326446941 -0.44447740212477005 0.4343732238112325 -0.20023417176683578
Ni 4.1773316030177 6.821231099023567 10.65182693298977 -0.1541612886681732 0.14859433610335698 -1.2957817430113876
Ni 8.042800276946446 7.263030146786677 0.176003066262993 0.5220861510481848 0.17752773130825555 0.4197223066672772
Ni 7.483573199166105 3.9376473846632845 8.147328550884165 0.8367557536484816 -0.6678710427272047 -0.20626855088637377
Ni 3.042497807549142 8.343743446096818 12.519443402340222 0.3172646170209827 -0.007769359532773717 -0.8513948437178951
Ni 0.15942849510332135 4.894741781792665 10.116978896116942 -0.5667624109096369 -0.3412378400071285 0.49540889886731454
Ni 8.52491219053241 2.675052397913297 5.732606839744697 -0.17271642596254125 -1.125003414611824 0.7237220882585537
Ni 3.5002252654705983 2.5571189905765936 11.444503136445547 0.7253010027098993 0.5947434695035951 -0.13817056966687175
Ni 1.0576644837042373 3.281405910734369 12.662727799464923 0.6521204647611673 0.6295734326985867 -0.7675820228662974
Ni 3.0721526266881383 8.431291042100288 8.083993943240378 -0.494302038956381 -0.4812071534456358 -0.0952323755424489
Ni 5.641391648337061 8.061797049401585 3.548147669789497 -0.15786393433074103 -0.1399284328982429 0.2918410347415555
Ni 3.1442591406627525 8.209863579411785 3.620424748609433 -0.032800077249156415 0.22928660904810189 -0.18234957817693112
Ni 3.2372666166355155 4.037296962549103 9.013245659904868 0.18648622605312398 0.45777566189557295 0.7785536913864526
Ni 7.229693292891529 6.062190463557126 11.440065743088686 -0.0004944231379152775 -0.12054514327562466 -0.7764127337840498
Ni 0.6996804594565009 0.0703801089529193 0.36280857272969236 -0.4087285266599348 -1.2014919338878662 -0.04566510613728265
Ni 4.641358228242572 0.4129519298757687 1.5909657049956838 0.0040363748529027264 -0.8495441636624013 0.005987585042002592
Ni 6.010867591845782 5.714896974535213 0.42726674244980295 0.5090642848672201 -1.388707324797531 0.38855385148427274
Ni 8.08345607737894 9.101755277734334 10.834287999428012 -0.06460462335426292 -0.5490390254879448 1.8854321142627917
Ni 0.20128637158855994 5.030065583676188 5.81758964585185 -0.8105592977587717 -0.8795484233339756 0.7630278278367117
Ni 7.951209662387201 8.7609865708906 2.7197828029840325 -0.3846799703511633 0.4764066467331989 -0.5667086748535659
P 8.54616511173519 1.671138401972865 3.6340022517727384 -0.2654306630688268 -0.5306751782687764 0.42515504764707424
P 1.824141385442904 3.341257024711796 1.582393242214146 1.1017094770808897 -0.23744291960664912 -0.007906656441586384
P 4.615963017939122 1.1030762456967604 8.243181481657452 0.9167980517140533 0.17665432756436672 -0.46274586141665464
P 8.667248102723601 1.6009180283512787 12.405824653868509 -1.5473737004249095 -0.09753634108527719 -0.4565682718510331
P 6.287218739646864 7.876982368589805 1.355182819055689 0.7638608652609683 -0.4914614841837923 1.056116104721807
P 1.6360417520545578 3.220119886153442 5.94984598789808 1.0329070135951954 -0.15474081532072706 0.042752046255545725
P 6.816384891513633 4.206129085632593 6.0040269488429345 0.2321492753078776 -0.7385977198188054 0.21557902965402226
P 2.3132924831215083 8.374192429594984 10.26619425706944 0.3023231652198019 0.4718725063082712 0.11452850476789954
