# total energy = -381167.4477369112 ev
CRYSTAL
PRIMVEC
9.31695063073866 0.00000000000000 0.00000000000000
0.00000000000000 9.31695063073866 0.00000000000000
0.00000000000000 0.00000000000000 13.63629901988438
PRIMCOORD
 96 1
Ni 8.481238747984362 9.053001371252579 1.7932008690400905 -0.41758777682277753 -0.2917605592126072 0.3875647480981261
Ni 0.9048473333270106 1.7083281077204804 10.42459625106666 -0.58228081826021 0.8725866473041617 -1.379993856183933
Ni 4.8844206591543795 7.399783026220007 0.8399799282953931 -0.5436566781301089 0.14521693499069185 -0.7515136565495251
Ni 0.5671730934119087 8.108784331549572 3.7819999351921654 -0.38375591587499713 -0.8432007379428768 -1.1809143668468307
Ni 7.876727043423163 0.5422222997554055 12.216842132672177 0.072122786108179 0.6376726647669534 -0.7725200835978632
Ni 4.343096513435004 5.303133735224921 3.7756317994699025 -0.7025814496251964 -0.10668998256008722 -0.37029439105345263
Ni 5.918136326140572 2.9802595671672676 2.767091464649221 -0.2713678544888681 -0.09156238289002941 -0.5366895027836563
Ni 7.442072664908157 2.6152866620491952 4.663191530993463 -1.061272966332398 -0.1329463451534549 -0.11629870929444487
Ni 8.545497756143027 3.2848306816673003 8.440910327393558 -0.530586475209712 0.924607263345827 1.0494610612991344
Ni 7.188139176817047 1.164003903913952 8.393551335894166 0.3586053847512985 1.0622001061323576 -0.8228388864570731
Ni 6.304920212569276 0.9983392056293059 6.158180104305202 1.0459972711202503 0.8408903446421454 -0.14968114140963254
Ni 7.643747377189213 7.544046689019593 4.130939300055019 0.4607059481684905 -0.6856887876349158 0.8013694037293877
Ni 3.9979221283020205 2.5020298107839034 9.808890230382127 -1.3576689674344875 -0.56878046978093 0.31723453511399563
Ni 1.1207546193159357 4.224435830832604 6.334878867163185 -1.1162377526040517 0.14066196863015776 -0.9888493611543486
Ni 0.7539518651037121 0.13032364133996813 12.858143679993432 0.04432941804499462 0.7154513636093291 0.16081093277420694
Ni 1.0587037284450205 6.769593805856968 6.571059837616841 0.3468778119017252 -0.4285213930161459 -0.013644844476944244
Ni 9.263452650981142 1.792786264739226 5.973094222534006 -0.6401401524708396 0.17573310130167802 0.3765241740132483
Ni 3.083407527051938 6.523616993562219 2.2448894283027374 0.6461166817692485 0.34524233318083125 0.6613826067893835
Ni 9.351516467874822 1.7976962976955284 0.7992620591702939 0.03596664790259612 -0.5000276285862486 2.079998546220889
Ni 5.748875284931575 5.222476894043312 1.67309233231737 -1.7618060180689978 -1.4113749415983756 -1.2233046588875833
Ni 2.4134442446576774 0.23840865333762581 3.767163623086633 -0.5722470881732918 -1.1936624105411184 0.8623294883525277
Ni 5.9749604077354235 5.781894557791413 10.975133929215803 -2.2871962937897514 0.015361055837102578 0.04381725429526647
Ni 2.504042272109446 5.212535707773151 7.9507530108761175 -2.0511942203946867 -0.05322852030683736 2.6810885267678017
Ni 5.6481404152474415 7.590873682640797 3.06692677316882 -0.7110082402363109 -0.9440075222493097 -0.16482930990498065
P 3.974266390776307 0.7258547372359315 10.986834155755698 -0.6940782972501918 -1.0151520036046193 0.6840882759170154
Ni 1.128990803629733 3.1675489077509216 2.1570035651651613 0.8377883086780539 0.8623567420460374 1.1324261894384562
P 2.4858462676243267 8.195189731239793 7.384724038995583 -0.10153800604550255 2.406051708067779 -0.45882390065442913
Ni 1.239825247743908 2.5488940722074322 7.885953619583743 2.683605636762701 0.9681404107417714 0.3138136823579047
P 5.855563686037108 5.764304155094073 6.188056769733995 0.11051167029902258 -0.7990291856319852 -0.14750290281139114
P 2.031784681048643 2.0170918499820614 -0.11305094665744715 0.7018718251526815 -0.5970178673600686 1.3512689774454147
P 8.764837406726073 5.796149492180678 3.3968427883349417 1.4271563728023486 0.6487893435054052 0.4069956031292281
Ni 5.925375596742179 1.4859231803962134 10.695903988601627 0.8639258863053701 0.09544500577388723 0.6327531159781489
Ni 8.074078690634533 6.37069788367268 6.448906230241544 -0.942640466698454 -0.8219469707704231 -0.5023632186979605
Ni 1.8464612170376258 2.2211330677107464 4.68701404193458 1.3582510651902027 1.7291211262414674 0.44414572981696415
Ni 0.7309380654730443 4.26989323271837 10.804367268792882 0.9054728565092212 0.13050174026770428 -0.9499118035488866
Ni 3.057310748473945 3.9892573642614875 0.9718790659786454 -0.06170416187801631 0.39969701258528584 -0.26510593273955635
Ni 6.767329786865733 8.848102994070421 9.759635239439458 -0.38902590602468484 -2.549857107422925 1.1276367384696129
Ni 6.7130585497301345 3.4426877753648855 6.991657732789962 0.680264531295551 0.1242678435428505 -0.9366125153368192
Ni 2.6533370882228913 7.202990396043509 13.756025661065925 -1.0761678811663595 -1.1879100814383736 -1.9089600221814027
Ni 3.581053808446561 4.670848200981108 10.035198028304865 0.07153708880803808 1.5893500448566948 1.062346659012551
Ni 6.155131598075027 3.5179594191105497 9.362614819407167 0.9489239857143206 -0.24183539224738995 1.6589582920731363
Ni 8.44611384429317 8.788632898510505 6.113766200884533 -0.7747176054698143 0.045249872976734974 0.07685027349083538
Ni 6.65675621736783 5.124816618050979 3.834350017117916 0.7814636659443961 0.014921397196522688 1.8970434732494748
Ni 4.426455270285166 9.145546641375823 8.662582010707084 0.7580843677885073 -1.0938228752439614 0.2936917147970491
Ni 6.213986774896584 7.861428610568802 7.117261406965485 1.2366844226285991 -0.3397640836750794 2.115570015567595
Ni 1.9521433874803873 9.076759595234686 11.024606936802074 1.337045634757181 -0.5540480486667618 -0.9136461363486329
Ni 5.030566345971373 1.988889440572713 7.916962294508155 -0.3345920525558366 -0.5131947620958258 -1.467368169134544
Ni 9.26793410421071 1.4119559097319199 3.5303835727106043 0.00022137198218671555 -0.8794365803464597 -0.5084459345569308
Ni 3.9360016747392423 0.9915564656061788 5.940489553975031 -1.6101831795519623 -0.46201386834663655 2.0553164700931763
Ni 1.5820554764932262 5.830091143148056 4.115161975940784 -0.6361747400651883 -0.8500856379881683 -0.03517731923208135
Ni 8.20450668182101 5.595946858091455 10.460309054339529 1.7232520690552 2.4373782860952025 -2.088256415354307
Ni 9.356268112671241 7.5344595468715205 0.2090239228995208 -0.5565517889252221 -1.1017894383892057 -0.58774724069142
Ni 4.760467948621849 2.4364664295438683 0.5289959567103077 0.6981961760733072 -0.17364922218945578 -0.3574823268904489
Ni 5.046284041601888 3.5580409405109514 11.879398021436431 0.029578742098381315 -0.24262523513853695 0.04636136087335887
Ni 4.604716485755619 4.286263114889571 7.809454001751474 0.242205373992299 0.44962217955050304 -0.7395580268495456
Ni 3.283964205263247 9.415523918367791 13.173455375123496 0.7085548935998119 0.8696000538720121 -0.27656302553656237
P 3.13955147125436 2.916466406537664 6.7642179253716055 -0.13979216443069473 0.19261316488646826 -0.2998615910531868
Ni 7.332971173602089 4.107405614581919 11.699822184238966 0.065908429767351 -2.1348468615193363 -1.209858817795323
P 3.7944306106576273 8.574091477476786 2.5572290161973905 -0.1300934490856921 0.1614678496319155 -0.33914881868858365
Ni 4.0385533497867145 6.852319010067608 7.398865306587757 1.7574282007162765 -0.1006283497470396 0.14278338584853473
P 0.3628048507178227 5.278350646678879 8.620486164591021 -0.1580372266838117 0.49881483922507 -0.281458920176283
P 1.470121632210467 5.228337255958898 12.69887134150256 0.5873489768117368 -0.36837480543323653 1.3182616692814588
P 6.344880613612124 6.312774401909244 13.391240958349593 0.11602771502124534 -0.7037896110006847 -0.7509043051003003
Ni 2.8536515257190893 1.3342059571316516 1.947263168765945 1.279818791924228 2.117667264416256 -1.8478361582868887
Ni 8.439899438255496 7.7609639324515225 8.402864559695152 0.38301286706138554 -0.5107470718862818 0.33675255054226516
Ni 7.505017983034869 6.5600183194830395 1.7554961017329571 1.2985487642335636 1.844102145165753 -0.43345688264455023
Ni 0.15159796629712244 0.6932249129103881 8.100234166001188 -1.3479239722325818 -1.6811965346460465 0.028868860515550283
Ni 9.30922682918667 3.794924409038432 4.16358496319655 0.24958161185171204 0.5083821711985309 0.543666962542754
Ni 7.012076761683761 0.4104414873445348 3.6284826770753122 -0.034600363682688796 0.5990719216756198 0.6070572538739416
Ni 7.367937689133401 7.434516617986789 11.84894836354689 1.484953486316475 0.3095942449599184 -0.23114345975118256
Ni 2.6405262811737162 3.0591741385901883 11.813984643100753 0.3314977299012291 0.8504903296257547 0.110936416541267
Ni 0.17941838073264088 2.5844568725759434 12.381432586554807 -0.9844856848690143 1.1164084738539612 -0.5655141403248326
Ni 8.116657154790701 4.267023611939354 2.046208252243427 0.31604154324715894 -1.2293714339069537 -0.37245154660577146
Ni 1.6200220501116915 8.774517718379958 1.3059616214446876 -0.39015282054027645 0.6533386534389845 2.155725247630242
Ni 7.313032899358281 3.306175815448872 13.682662128799294 -1.086164330257439 -1.1197570786112199 1.806294073179044
Ni 2.321346188162333 0.7488573565259018 8.810808172588862 0.9115761411934817 -0.7585132277958098 -0.2958738100500323
Ni 3.9595456088579817 5.566905923129797 12.600308252998909 -0.08072621150647387 0.006977716869413789 -0.10700185737355121
Ni 5.4929013846631785 8.441623074113021 5.185420586496631 -1.0624621015444928 -0.06931976944174513 -1.3601156292027674
Ni 1.3898561029532697 8.96674504277166 5.668336769022349 0.5315989756346263 1.3332185477016072 1.8529122872582153
Ni 8.519102835146434 5.353044639488507 13.294913937985433 0.39737273532748335 0.15502157978593947 0.2440462838557797
Ni 4.005841536296057 7.726174438981253 10.99586134917384 0.8968172377167523 -0.005713505445009515 0.5151729688681193
Ni 1.5716950274469113 7.432429621056596 9.12343379086636 -1.1121918646694522 0.32554639741380065 -1.4550906373187715
Ni 6.736220488875043 5.586918732978255 8.528918242583748 -0.29163508937833643 0.927186594037229 -0.8117301781384214
Ni 4.589595074962301 1.2422756057467688 3.9194948333944977 0.8286768332950889 0.2672780006902107 -2.054696062900358
Ni 3.2135839605727226 7.3941555880689505 4.750886396644123 0.3458195458405399 0.7496709469138315 0.27626914844522743
Ni 1.8644895164122837 6.576034157532154 11.06687887328412 0.07218629235626277 -0.9451753173051657 1.9374031080134437
Ni 3.2897407146236026 5.1264936691555985 5.910612888546239 0.49383564084292364 -0.25706532182326697 -1.8739608803983985
Ni 5.547890026993531 0.3291520252184615 1.6819555474052834 0.2964106563901089 0.8103816345303269 -0.6186714410741022
P 5.242005222461546 7.0621740049589725 9.341778391127331 0.63514655591099 0.6219884212624772 -0.7031645758221762
Ni 1.065840512590234 5.660280401854768 1.517597085592124 -0.9347698057011257 -0.3102930707991559 -0.4098999212602166
P 8.03468662357714 2.2904698139361748 10.45711893046052 0.17762209079427474 -0.052250215553968075 0.06378109901170305
Ni 5.847411354278543 8.926533084063118 12.826698040086763 -1.2164763231118405 0.5489487797669836 0.14852825875211195
P 3.297101105582765 3.4288614207023573 3.227466216938738 0.31542859225350833 -0.496223681459126 -0.3351183573729519
P 0.09162755049099333 8.029403912597589 11.155105736812969 -0.9797383999920158 -0.37882454001165083 -0.06700063439026525
P 7.353207590264494 1.2703009930950737 0.6532197905047521 -2.4023979133652755 -1.1045418043233621 -0.13457616744739404
Ni 5.155441434611445 3.459653942373284 5.148725776632502 -0.36836786345470107 -0.343024499593906 0.36412477190763093
