# total energy = -340871.9342028059 ev
CRYSTAL
PRIMVEC
9.26550646658948 0.00000000000000 0.00000000000000
0.00000000000000 9.26550646658948 0.00000000000000
0.00000000000000 0.00000000000000 13.56100528560019
PRIMCOORD
 96 1
Ni 8.865125546892141 7.105290812736391 9.915888663965406 -1.0547979001310155 -0.441738148816736 0.38137841678175605
Ni 3.9432050413684223 4.82190862707922 0.8483303284633544 -0.24014000682283804 0.30776079129560546 0.22812627019141357
Ni 6.329119323270433 7.30358191988765 2.5458480447523124 0.19628984240710712 0.6408351216553351 0.9942859587888876
Ni 0.5663967134112236 5.854095329932237 7.812454662006043 0.2969176779335144 0.11735054759772694 -0.24581751682358957
Ni 8.503604009635572 2.1725111334553118 9.617003804553983 0.2462453483896275 -0.3943257209710434 -0.7270190138422705
Ni 6.815910510014643 2.9712997245780253 2.429792941597175 0.8214432916611273 0.5183194849169009 -0.48359647961341884
Ni 5.440779610675969 6.092302239597753 8.890283250463801 0.6880320910561118 -0.23822864873273814 -0.3604789476249276
Ni 6.111759803497461 8.889984901150672 4.569217877467026 -1.770937805166937 2.305802338926713 -0.11619843627115473
Ni 4.579383991329293 3.676099016558531 8.311906236994329 -1.388837422617492 0.576634161497394 -0.5538616436875687
Ni 2.8093016068530305 5.529357853952734 8.677375806621214 -0.5945781475703243 -1.0158516007748053 -1.2466209650160207
Ni 7.343247553723197 9.28783648985998 9.146233605304527 0.6774134350000011 -0.3642525557347469 -0.715698960843761
Ni 7.684310852365216 0.4279533666128179 6.327619237748832 -0.03339143097625217 2.487090822828981 0.3532675174781529
Ni 0.8751261736052376 6.787307891082073 5.202490238001546 -0.18123294807398463 -0.508988180213646 -0.4066999262656802
Ni 1.2798073672433432 8.694556835544656 3.418580011447224 0.8587512840829661 1.6335257109326449 1.4941282108372074
Ni 3.309360999075517 0.8684346247250618 8.491169699752998 0.10554275632952147 1.5613962399562464 -0.16862914326704506
Ni 3.8625302752375874 7.748140927462875 7.965557893376885 1.2347054445253574 -0.057728722170036065 0.2521540005645786
Ni 5.825789207211471 2.5489501363683225 4.664389455253807 -2.760802237849361 -2.1328678834160946 -1.4341968245888976
Ni 1.1085808049259158 3.352871818157911 0.000909872749976806 0.11399011576592626 0.7172357092032614 2.07969695582007
Ni 8.067458082070315 8.018693720735 4.71189370768895 1.6632618045444971 0.9607317769825261 0.6178828837345358
Ni 1.7588525904541459 6.519553280808857 2.6395278759734473 -0.0917341325812033 -0.6382141390927202 -0.38837567403519563
Ni 2.4161383644928898 8.735380657707566 13.279736401264076 -0.33609177702981474 0.3315270404772678 0.4877387839165665
Ni 4.228721627830086 3.2523781333692305 2.5713837809940236 -0.005398288197435864 0.30505393388740365 2.206243825205084
Ni 6.318287946032929 7.663824817230808 10.574315948419601 -0.454650743113346 -0.27050190694414705 0.5648361404212014
Ni 7.711894265569706 9.274030884997806 2.070101341897841 0.6998967037041818 -0.9339084861420949 1.0874570809269335
P 9.393741230514104 4.742197473636752 4.622078519278562 1.1803705785282188 -0.6520731564629996 0.20245303379502552
P 8.32365860558975 2.80344580666988 0.29448096411545654 -0.34677522488558987 1.0853459481212018 0.5440986507635339
P 2.200298387805418 3.867607772864749 1.865519882303005 -0.7530774014922192 -0.08444299823642876 0.4496136949100708
P 2.5361544717276105 1.507757361081728 12.316525835884862 -0.7890329936512218 0.6873111537296872 -1.4597355922899504
P 5.226959514431421 2.3252159480415413 1.0435869821969208 0.17822732847844144 0.31468451499863226 -1.960156856770192
P 3.5365234248512945 8.592321235511621 2.1104989507562815 -1.1290405607956748 0.5143676993580045 0.3499397386565006
P 4.252376466228158 4.1142092315269965 5.339414968265112 -0.7125606723250955 -1.8642616508327634 -1.7817395237681313
P 4.249189131951254 7.90190200980366 12.406082516660582 0.4439230722831968 -0.4321003686166558 -1.326659920647483
Ni 7.548283949693021 6.356860250087444 0.5743678287554705 0.5220028473057591 -0.09372005266298053 1.2505241567251688
Ni 9.15721137754661 2.1886423804788313 11.887930369663353 0.007804583646083333 0.906235959927491 -0.6727607667193382
Ni 2.4977026192591403 1.7642729118262073 3.4795507512022885 -0.11758888886077815 -0.1480160950023838 0.019054702638605894
Ni 4.601510021135247 5.759299931714185 6.477752874248314 -0.6811744447043301 1.591871268616652 1.5819254702578498
Ni 2.2029853847249017 4.293839608347773 6.429937300790776 0.8001188191517381 1.967949099121101 0.9868297596211585
Ni 4.191011015891128 6.109258116710356 3.099761341095881 0.2555830808507856 -0.7208578793368812 0.06355972702951636
Ni 7.708521621160423 5.686649094315324 5.960170555908148 0.4522917559628662 0.9814741517362 1.3260809082155613
Ni 6.607177176903875 5.148508469889124 10.935120335463864 -1.3739635908294532 0.8617355635222707 0.9626603614638067
Ni 8.399821069997179 6.250316189476617 3.5156093233110943 0.2997906286059353 0.6795425655278619 -1.5105439331910695
Ni 3.303931412196837 2.2557339139063473 6.234631539872129 0.2063760229985155 -0.16121382463958042 -0.45150268440266755
Ni 6.416733953858832 7.901142238260909 7.154393365063296 -1.2317000820401303 -0.8839756058673937 -0.4874086542706573
Ni 5.943238769112755 0.8576514281219763 11.267785378906504 -0.014267308552291559 -0.5388947379650912 0.39089047003724936
Ni 2.0803934666501247 3.8153781120539625 11.677151212691129 0.7297199577132014 1.0802106837771652 -1.673097559687996
Ni 4.227489315449771 5.704475929050104 12.255107572160103 1.2701825543860445 -0.8007155721954726 -0.3899193643732317
Ni 6.9619534253418776 1.100149193902709 0.2613475124462401 -0.34683076071387364 1.5917118602206524 -0.9220467017075022
Ni 5.243044433921846 1.1336717968499197 6.893683319472436 0.8037353328584029 -0.6059200549457049 -0.16059881676340082
Ni 1.6994884895467997 8.027820244754626 8.966116789386257 0.6951959557944027 -0.3684681364779912 -1.5730536216895166
Ni 6.086196270735892 3.82575547946714 6.524958777370329 -0.10742480384358273 1.830561430366841 0.8472828784320504
Ni 6.0463175302481105 2.042089862287557 9.046072552203466 -0.04478553174580674 -0.6322435233315821 -0.29241130542272864
Ni 0.41122542096304066 4.432757349085067 9.92589633766449 0.5995997691546319 0.33004325684288965 0.06185791384706121
Ni 1.1958433462627953 8.111330255910847 11.264611942889529 0.914862011033605 2.3001587674876904 1.8339514298849964
Ni 0.12326644695663372 0.8039624500187115 0.22596254266862886 0.5610617609804337 -1.6169881182889376 0.019224138336934635
Ni 3.5502734366737547 0.23081025573164177 10.752249810978455 -0.47464826928119547 -0.9030112823426062 1.471125322184131
Ni 5.348282058099407 0.7351271482455171 2.526049510209029 -0.687952643968428 -0.25262631221530685 0.09949552169417702
P 5.5180817323975235 6.982504319022616 5.02635944303073 0.4475110467447712 -0.5584294655639093 -0.8529408480487762
P 0.46674804282618737 9.362145852943625 5.672758246792257 0.5830326088245701 -0.9545369610257237 -0.6905042067456882
P 0.16420423485095675 7.970077607505588 1.8549145834270027 -0.6221272608331867 -1.163559677618467 -1.589233830993805
P 0.32743837115891383 0.18914327246641063 9.679262449729075 -1.577381045420277 -0.25025138422522714 0.9357985040759562
P 7.862060331342354 1.4034092255395814 3.7438817567798175 -0.3362128759887113 0.4314190262789151 0.500216604668603
P 1.9850236070217002 2.9827982182920905 8.188772286782346 0.047054273175325415 0.27122284427057164 -0.3421711504546752
P 7.673905688432181 6.46215346730472 8.239490743463588 -1.3608332240950822 -1.7905146988576002 0.048536514147806735
P 7.83162314209924 6.929950365480168 12.042592985798159 -0.3384373944438559 0.38011163425419053 -0.19017215954514347
Ni 1.7116448342308075 1.8572059432138588 10.056366716017324 -0.10314520263162236 0.6081422594080043 0.6362894112661817
Ni 3.2465315986926995 7.587328794585101 4.661826616123016 0.42883995269782926 0.5261592926762938 0.2239538839812788
Ni 3.276894663882862 6.910696642726076 10.393032605218009 0.6542706783349507 1.2053300766870338 1.0680658208845153
Ni 0.7985986482370254 0.9376600043269122 7.696154949476165 -0.27879654285277145 1.525459416850321 0.2549467328183674
Ni 4.016912146521839 3.0345368072520746 12.87923951041507 -0.17695746062708234 -0.5332090004342237 0.05892325669876949
Ni 4.174333103977093 2.63478578968589 10.39232750016431 -0.62235017547727 0.16827201703794245 0.9301526186440885
Ni 6.385777896245058 8.246578856027053 13.220976411388284 0.018514513864419727 -0.7846189237439262 -0.9282831695355174
Ni 9.306460158163986 3.8440363240262463 6.800722491564929 -1.5899357421568359 -1.0480140444399628 1.2556964449547277
Ni 4.570785601186945 0.5650893504272956 13.521027798083027 0.04671411622708729 -0.024194594968332525 0.11475553317704107
Ni 2.2950196619705188 6.475875682607323 13.270257787992932 -1.0933757604042138 -1.1873349256611938 -0.10012672752027271
Ni 2.5253972185430578 1.5574390075723148 0.8544437097305102 0.18602908391104736 0.3437564926639241 2.198322256365162
Ni 6.209585022379895 3.7834584417518227 12.969948820214183 0.6995655456170081 -0.4172689600307781 0.6102886163270457
Ni 8.921024348324016 7.983772026288335 7.474907623125899 0.3681369783908176 1.2169283230475947 -0.7413968798304973
Ni 7.4048446417257 4.193197675453191 9.117131575565198 -0.14331611842355318 0.2240083913682981 -2.5355905702015815
Ni 0.9424502712488879 2.183518555318575 5.290948029692264 -0.20587517210269704 -0.28919331270606324 -0.49067292684422587
Ni 0.3638369873606336 2.074074391136029 2.1354648583409306 -0.47940481012957437 0.2950785678422466 1.2673641111006433
Ni -0.05829856764617172 4.649042070090247 2.1828338343794376 0.9556461349295026 -1.5212615767188897 -0.8222346772141711
Ni 4.531082905324923 7.168046089066257 0.9033044323346617 -0.22551942869618577 -0.02865597317379581 -0.5627964842833533
Ni 6.423238339505305 5.13436004128205 4.0683968606004655 -1.4836450519176965 -0.41130991423386587 -0.827771033651368
Ni 2.3937806970214632 4.26950838796652 4.133543564188672 -0.6891230101274455 0.2201118845273693 -1.390761636223398
Ni 7.802585044355581 3.3692810303799976 5.012201748917038 2.3626746266337246 -0.7820015407257371 -0.657664534507848
Ni 8.319526189637719 4.825892794925351 12.47281640153261 1.7038353550914849 -0.8672942885569709 0.15313259029334272
Ni 8.31127988874689 9.243649288794407 11.751885862528583 -0.7161437616906634 -0.8773987239808243 -0.7098016215227195
Ni 2.5855859495394866 9.17189720553758 6.572300883439641 -0.5907410332124213 -0.6333465265877738 -2.2651346860040213
P 2.3694587421468287 6.887727451817802 6.635955840462204 0.6351630109712223 -0.4966306870895576 1.5116137692164806
P 1.3200474624892624 6.107173377721101 11.226505693817943 0.11408447525194546 -2.9672985884758254 -0.10837919733705206
P 7.359730889998234 2.4429434751413917 7.312447156620621 1.4200876388810253 -1.1738019241717657 0.662169364356737
P 4.185183012227835 0.8521467906396828 4.509509099713457 -0.1504370457390506 -0.2303790707813323 1.338300847320521
P 5.975992335010596 5.295700308037103 1.8045222725787455 -0.30955490708155076 -0.5315532099983555 -0.16249551956548142
P 4.216157600854846 4.864807922724767 10.230938126224176 0.7707012852215694 -0.7024140708093968 0.22717393358047328
P 5.084437491619372 9.171322744127208 9.193195825602464 1.2276274546326535 -0.10656039896075842 -0.4312812151494702
P 6.7897447193228455 2.7791609138217215 10.941575613925258 0.623903636007319 1.4847007468757205 0.7047769146146184
