# total energy = -340869.33091773925 ev
CRYSTAL
PRIMVEC
9.23451164534474 0.00000000000000 0.00000000000000

0.00000000000000 9.23451164534474 0.00000000000000

0.00000000000000 0.00000000000000 13.51564123170106

PRIMCOORD
 96 1
Ni 1.0214200992564195 3.7650766215102647 12.989639933568872 -0.7123529271896635 -0.5722280620098984 0.24497110966289426
Ni 5.918989526166873 8.673413489006322 4.728393173455693 -1.497848340001272 0.5451972831443513 0.7078175012131552
Ni 8.812014274383095 5.7286200684720106 10.595559543685734 1.5477508812586698 0.5052132865522461 -2.0962255496027122
Ni 2.0372533189637054 -0.4512361007881421 0.8734832226000188 -0.18572260841422208 1.8419213354643502 0.14870643620118906
Ni 6.33810707198007 4.288673432148087 6.69624359665168 0.9324141609847555 1.9223449281287408 0.42171079785221566
Ni 6.451054383989086 2.5394445315934426 5.20598180014361 -0.16268346720657142 0.2678228174500871 -1.0338493229038066
Ni 3.35589541023404 5.11394326941583 12.583116414745938 0.09448906961852115 0.22726597907364732 2.8559114575503846
Ni 8.978106200946268 2.39807339272123 4.389109827771705 -0.6270563227036879 0.5733459776644254 0.5913768670242073
Ni 5.6086914656544895 0.929970730372004 6.92402206104661 -0.30203931543079593 0.42749757973732183 0.18047292997950853
Ni 0.3709401750763608 7.256257627438204 1.3789194426240792 -0.5354654005685682 -0.9206148543569822 0.6340183558438177
Ni 2.7622271251849324 9.25279598453062 11.77993552934849 0.3377689076219215 0.2651624970091046 0.9438288305796003
Ni 0.4361976985637383 5.865844911612717 3.990560309759807 -0.1105144985125 -0.9694457598167562 -0.04311380047033865
Ni 3.631711804239869 3.5736174914405296 9.272270646152384 -0.2907948528652282 4.1491280109377575 1.7230988313067872
Ni 7.0640135638780945 4.536998684967518 1.7256633502712826 0.7964678526627121 0.7491688104664324 -1.0748491623549359
Ni 3.071435513322444 8.504006372760275 4.557311840247237 0.22159515394111515 -0.007863719018792908 0.8414439031527702
Ni 0.7611767856996139 3.949748385516176 8.989929146213633 2.6571554129909725 -0.7666068034372217 -0.39186388969411223
Ni 6.375839286587938 4.791104742080763 4.252953417629072 1.0469457510764486 1.1707945048040094 -0.23836054632491208
Ni 2.338104474056644 2.6732803089580632 4.249209746605571 0.5443768441255851 0.3181603893623747 0.4707201378713829
Ni 4.494695387092176 3.7296438003036094 5.381806901987421 -1.6357024068689894 0.09183363427354507 -2.4658630237984562
Ni 4.2793096373335064 2.3569705813605784 11.631330997499688 -1.4337203991731116 -0.5535402557924081 0.1779959291939257
Ni 8.540048671735926 5.1593031906478055 7.606737818499588 -0.3790330564780311 2.7602412231395688 -0.6706753449452192
Ni 3.31493111654816 4.889249131912488 7.028106088772555 -0.8372578900958807 -0.4368286273302606 -0.44276041943366323
Ni 7.696282107630307 7.95663069461994 3.3462028668046666 1.3593977772001362 -0.6144566316618062 -0.01736883029575073
Ni 4.098026939103681 5.248499338689264 3.3446477750425605 1.678130494126213 -1.3298763707022516 -1.499589748172411
P 0.9206872758087905 3.175628508285875 2.7908448767928093 0.27983141187518906 -0.010700160026323508 -1.848521357279371
P 4.8541856911718915 9.121915250894466 10.937384226976203 -0.42075794702064306 -0.16845327981081312 0.574136848996837
P -0.25054707632277184 5.273774197079312 0.8813888880248343 -0.685424992450568 -0.9525564402605854 0.20856865977446015
P 2.1562861741510337 1.922717670950638 12.902071829931565 0.2747930781203332 -1.1584156715236824 0.2332147404579145
P 2.816636867835339 5.611203252823687 4.971444596670974 -0.48585725062313745 0.5688154367839237 0.23108869525384718
P 8.727426147655715 8.298381501817198 6.498022957150746 0.9274352197129253 -1.713882712025158 -0.35801763056862856
P 7.082768857042211 1.0749617978115888 3.7680529046155304 -0.15069184206233402 0.5132004185227806 -2.0677423545613554
P 3.443595567387962 9.14097528294308 2.5073001199858727 1.074457326233156 0.6448802382589861 0.15649533611798855
Ni 5.608322085188432 8.449264187690416 8.938799502101826 -1.5151978870233132 1.3504063723348032 0.66326696829629
Ni 7.812544609322198 3.676979380355329 9.209085347079595 -1.222464165264159 -1.5506729400014712 0.5540912431998715
Ni 6.64314146085112 1.1702065509847548 11.253150041837419 -1.9446273936760248 -2.312915038712094 0.8414547017860476
Ni 4.2981572756141375 7.24080828944531 1.122845511077908 0.613038411158041 -0.8473774950283858 2.7168296889231534
Ni 0.8741185570016392 6.241708004850471 12.72303034767955 -0.13262752836145544 -0.024822201250002413 -0.6760147548802615
Ni 1.161913959521743 0.827968161572299 3.156145535603623 0.7241964567918108 -1.4102002045639843 -0.3764737803912871
Ni 1.9588338460195007 5.156329677896035 1.2855271324881963 0.36996400429722737 -0.7171472632545132 0.17965377651232287
Ni 1.063280140572491 7.798240350774085 10.668706110476954 -0.09659377466634977 -1.0020108382369712 0.6971289111510575
Ni 0.1966055234130943 0.36990683322256235 12.521538844151667 0.22467096465296144 -0.854196060612116 -0.12356413260760654
Ni 5.9033093253826925 9.12370674615485 2.2604099102770796 -0.5478390916425727 0.04129731608689017 -0.20119087925315027
Ni 7.683436901923125 8.51238207482815 9.590360787596271 2.595691906368852 0.9317364181914405 1.2109821327664887
Ni 1.8328935761168794 2.133633917070001 10.659556556332687 0.11947864968432327 0.5278402799231426 0.6714579887475146
Ni 6.39488084961325 3.379175614107372 11.177029962294426 -0.24190018404705435 1.4910428870436643 -0.04125797820852249
Ni 2.498360189256094 6.745118173018201 2.9259873375561116 -0.8068129433424621 1.663124507635684 0.05573843121288465
Ni 4.481471566407285 0.26294625511718817 0.4078302022216161 -0.7851902228663639 1.269885077750284 -0.6732135379860406
Ni 2.0336333903963326 4.610366880038374 10.95834656842502 -0.7715525774782711 5.219339417410366e-05 -1.390120917315606
Ni 6.788935930804382 7.089657802734201 0.9704797626334667 1.6958932174262729 -0.5845894117887287 1.8303228319934737
Ni 5.555362160867304 7.661588047355769 12.779755182400978 -0.1390131201728251 1.615442885289005 -2.447019408729392
Ni 5.590157800770008 3.1666156249140496 2.798238026820969 -1.799013994577863 -0.8822658222651386 0.37522910935090864
Ni 1.0787664166119906 0.40117858347906893 5.499190473393799 -0.44745962468154554 -0.22262693763973918 -1.0588041930769314
Ni 3.4969987482683598 1.530250925763557 6.000769437901044 -0.6200264124400999 0.13556089995816653 1.354660776735783
Ni 5.003747841878949 1.8089577219162933 9.350958843385646 1.0662341669924154 -1.3305155469481473 0.08003072810134604
Ni 8.46788096317976 9.202846511007868 1.626039591672994 -1.5532687257531057 -1.2176376904097934 -0.9218489838743994
Ni 5.800316816933952 6.9615104845468805 7.333911559366502 1.8227020822234223 -2.8871773575432016 -0.7061192875751258
P 0.6703304304260387 7.835963330870302 3.498158602931783 0.20607288993579992 2.7202294586333218 -0.007189318659587619
P 4.392884896134822 4.125601190894943 1.1772783400074434 -0.21032318057172164 0.09918441821166143 0.017654222746653465
P 4.456482977878432 8.35554312893974 6.6925802658795455 -1.2315558431527824 0.6582188643494213 -0.8272748107412399
P 8.278693522976285 4.933602491374454 5.371845634268991 -0.17597581344010338 -1.207975741839997 0.6925605750540846
P 2.7079004931393893 7.118497182621713 13.394784739802244 -0.5095669355352515 -0.9829857032847199 -2.4412372548299763
P 4.766236202203379 4.867520325996601 11.07208066082674 0.047488018278634345 -0.16754156662982114 -1.0913263340743526
P 6.9476587170696895 1.65835207139262 8.42690743498223 2.569553043189955 -0.23598176168009039 0.8161331923021234
P 4.672921461965369 3.136889731907997 7.366024573634457 -0.5371828974803071 -0.8840990188191353 1.387427943864475
Ni 2.7710183802771233 1.8752153430155238 8.450695536996392 -2.193568800840577 -1.9006543305291848 -1.7032067203685506
Ni 8.301318076522362 2.918779801212146 6.982842206461754 0.706087663006242 -0.9423923552433899 -0.7497174838810508
Ni 5.796733826413185 4.663354507894455 9.051032986360184 -0.7780171021566923 1.5211196518243868 0.033346693781245794
Ni 3.285990157032482 8.908468748582603 9.362163076372365 0.021166606775286124 -0.38958589229321294 1.5440088977177342
Ni 4.465597440878423 1.2837633407627673 4.024255195873657 0.4867265406019682 0.151183694097088 -1.6475171401157305
Ni 0.6602675830794419 7.5279554292474815 8.225930293753333 -1.2874786224623311 0.9544292318032658 1.0859588991148523
Ni 2.5212340746167623 9.028609745168106 7.288552561585693 0.0018457949594871438 -0.3441244175263041 -0.5261358956375262
Ni 0.15966101264909538 0.784031278585814 7.59334408280031 -0.5376582944548288 0.34201945536815936 2.584493209439555
Ni 4.918023870218439 6.62581751699298 5.257313680060583 -1.7715337868797232 -1.2026324752502124 -0.6582733717364405
Ni 7.302088508764403 1.9966768747671868 1.7028494892363488 0.6328742149370455 0.18707140913263265 0.5863958688698483
Ni 5.700768781331205 2.5385672529865535 0.04542179246003988 -0.46347785448667284 0.5490068866984287 0.2275518857451823
Ni 7.675153544971765 0.7301386685878893 5.734700070943332 1.602758604953117 -0.6886794948321237 1.3027818284783046
Ni 3.8116739673035354 7.014553519472871 10.97090273391751 -0.0021964934306865397 -0.2050950994035629 0.1588610081366877
Ni 6.704135410309019 6.142049155107907 11.2512985222513 -2.1761524051363423 2.123540949588214 -2.437213478382564
Ni 2.909619165653897 1.9630540178442182 1.5110080503842431 0.41245919734696057 0.6773306454782078 0.2843133589059426
Ni 1.2369628357131643 4.375616359346591 5.744904206318196 -0.9097627421338268 -0.9273429171094352 0.8488160272471251
Ni 8.057767066226738 2.4806483959085917 12.848752683107197 0.07664484234824866 -1.474548746043383 0.4834872077290641
Ni 0.4498740103195516 1.5908570257320938 1.1013937405115648 1.6532239606925203 3.605632540975861 -1.4367442736010998
Ni 1.651657050445311 7.22885883136832 6.253376733773257 0.05330745317388884 -1.8064861345851921 -2.478362184706732
Ni 3.781661804436288 6.469052447197782 8.41518976314769 -1.0170520488408097 1.707244123662718 1.8225493586956416
Ni 7.797723218121604 4.754886987383734 12.512159350667279 2.462322871855682 0.07988443233146887 2.994248634702108
Ni 7.377756097236473 6.92990075116393 5.413176538067433 0.8402054027599788 -0.9157505842861454 1.078122433789569
Ni 5.763184845583428 5.21212459729416 13.153787071978247 -2.1974488526212737 -0.7418108274394642 1.3628705662400853
Ni 8.67340425449467 1.5360594335923257 10.480393178526871 1.0292347069499308 0.05913331582704655 -1.7544498348142432
P 5.852990471393883 6.844601567039388 3.1718100377179956 -0.2728565232192527 -0.5735969173329669 -0.37220857735703
P 7.215718121288291 6.583911303118652 8.88224919965061 -0.01874874136241287 -1.4026581305506682 0.5384771908116984
P 8.892123662959516 3.6311484990291296 11.117507070542606 1.5862680634972617 -1.3175875260325696 -0.6424194354233195
P 6.668166987426579 0.42496853239556204 -0.0004090888661597102 0.6111460792313346 0.1461628438437289 0.6001124471249922
P 8.36072368997621 7.500519695130992 11.894196912365508 0.20501668075714366 0.6515705057949682 0.2158022014084219
P 1.4539923285457943 2.2718468529574136 6.64411385492802 -0.017627483273776095 1.057883738145191 -0.5350745928880527
P 1.1777511470039983 0.33627658869027266 9.608796566657245 -0.21020979492230896 1.005841524836971 -0.7047396336187798
P 1.5406028133248446 5.982643014980392 9.357256780331943 1.3856235436658846 -0.5339160538035773 -0.36487964779578447
