# total energy = -381174.49081082473 ev
CRYSTAL
PRIMVEC
9.18496616492744 0.00000000000000 0.00000000000000
0.00000000000000 9.18496616492744 0.00000000000000
0.00000000000000 0.00000000000000 13.44312641297525
PRIMCOORD
 96 1
Ni 2.4255291809658415 2.068224803935168 5.624630926146654 0.7347485212760442 0.2551765894409863 -0.20812822980293189
Ni 4.9372960112450945 3.5581181999441545 8.702582964815178 -1.990209453181198 0.0038144886500837533 -0.3331314088499101
Ni 4.658569021569434 2.4572173149664027 2.2518451407638103 0.569930010004341 -0.030911859087508053 -0.9537615163122798
Ni 3.1162753923798108 0.4856798965917292 3.748736562655414 0.32306708263537265 -0.7117530888221355 -0.14940629048169107
Ni 6.813178434280045 4.312911181904765 9.688918845676293 -0.5109998113270361 -1.1829231697467435 0.37731555956629215
Ni 0.8655691874467449 5.06279939182007 5.898723181788493 -1.7473430485661328 0.4831295672793292 1.191266399505116
Ni 5.527126997075247 6.0465919554914 11.335916499080236 1.7520219420990406 1.490152256908595 1.5969612815450498
Ni 3.5233622871736845 7.827896779742648 2.1567752277823007 0.5057755868136193 -0.045234703468083386 0.5360462127727026
Ni 7.950892664496711 0.8813443671991982 12.273991811106814 -0.06575673468083514 1.5522210012148816 -2.376341068377224
Ni 8.053663253288676 5.070909717130938 11.334088690771218 0.054557523530906045 0.9511670161122264 1.8239727214057295
Ni 1.944595156501095 1.0782415729257566 12.180131558197154 0.3674726053339413 0.5450579293530097 -0.2321086518779293
Ni 0.8844543968144416 1.1100582964555954 2.6332931204129983 -0.598146581647873 0.38733077771044905 0.18807208248300514
Ni 4.059249965471867 0.025797815063007466 12.455917521638906 0.18650808042999492 0.027969745740048603 0.590206757975506
Ni 7.9876049751054765 3.805414234677808 6.536814736453182 1.7822989958160274 0.8825131623892544 0.8547030821555216
Ni 7.667701781161842 1.4872664956251722 5.919344349801437 -0.2119730574703188 0.7163286240079598 1.4547569081284366
Ni 1.1780362326115814 5.184031763029753 3.349140007941962 -1.8403521912050176 -0.8323522252641472 -0.2204348150844268
Ni 5.880380803933675 0.5701806687632542 2.7389698325666374 0.5891358935088304 -3.004092617375723 1.9821752700228124
Ni 2.165567077598341 5.748365282197425 1.3927081852708603 0.5270820616008793 0.47087491828169226 0.659733758332051
Ni 0.8250377678184331 5.977851667126126 10.660157397303575 0.31533886075317946 1.1307855685112398 0.228219087015536
Ni 3.1542735982813523 6.381604419125158 11.343606152931038 1.1158911678979102 1.3544442898496027 0.7308476435597413
Ni 3.0481780516609236 2.0992975451884717 9.95433957456163 0.49431438025155505 -0.4835237173939544 -0.21406644966423777
Ni 4.697072400621711 7.192774724707635 0.22663261587537478 0.9755580433620812 -0.3970318070482969 -0.6256278177872774
Ni 7.594763963162289 8.664867655878046 7.646423888052944 0.2733879702426904 1.1221793148994674 0.32654115722690213
Ni 0.7543851694534721 8.421346642325329 11.280262032312233 -0.41257206877574115 -0.6564134357095662 1.0043844806754705
P 7.902056198270338 2.4494652033442366 10.277889200156922 -0.477278764925507 -0.7010063918285927 1.4003227975492722
Ni 5.972524386627481 3.191886035595062 6.079411677349605 -0.46878306874967013 0.7723480767963731 1.7062861306248227
P 7.904582064024006 7.389259525443868 11.422731882778757 0.29485719586005993 -0.3334571676204451 -0.018106479792723656
Ni 2.6002180564895143 7.132264166216129 9.160536203404735 0.9390540348987764 -0.689002168278865 0.24895657667320348
P 2.465355195176402 3.326960151134845 11.693732478738108 -0.4199089687567865 -0.5206396484096453 0.28077037874969063
P 1.5022379908196402 5.817234160091978 7.904733615969226 -1.1638692384390859 -1.0677822282058256 0.4448990630432209
P 8.010760275341829 0.662356398839379 4.147554232220098 0.8127046262365487 -1.043513842576764 -3.273083229881666
Ni 7.018811461527744 8.591195040568337 0.21433210890333093 -0.28414726564172355 -1.6355432555833058 0.8755809540457952
Ni 2.6337431837654703 2.6647516302541354 3.2037520936574753 -2.13604602403376 0.25073423739891654 2.320556614417752
Ni 2.7663189884507156 5.0270882425463945 4.864408710560615 1.4409981637814473 -0.5013800288490848 -1.0124811416406756
Ni 0.8318043325483501 7.568485774357765 6.458320013795561 0.1183918443780477 0.5550438369211279 2.3698531466600348
Ni 2.628076059510877 4.641484984108263 9.959744008777841 0.5572716978103822 -0.4090350021567601 -2.119096283553299
Ni 3.003217641245635 6.6805291498637835 6.652102597423687 0.11265648455616727 -0.37151129417968926 -0.1374498894507633
Ni 2.383057896438713 7.507497597614657 13.329989232460814 -1.0184797824262717 1.188776800314043 -0.21837201901812714
Ni 6.051368138007428 1.5784456568493952 0.19749973952088798 0.049257194363915166 -0.028984817268124272 0.5959665432774188
Ni 8.635209399446797 5.080921330481839 8.568917823117623 1.6545097693834796 0.555445957455553 -0.6798068749328421
Ni 0.4616492690596516 3.7313282958811347 10.118157123881515 0.5198266655900466 -0.9435192697589815 -1.0894103479985624
Ni 6.884885466785083 6.103557116961395 13.33625429802655 -0.3600202628209542 -0.43061247121721974 0.6393551946756989
Ni 0.3209144587417397 0.3989986134023105 0.31360414400230585 1.5482651018909273 -0.9769608372468788 0.3100902107597305
Ni 6.952477634353236 2.4121558699209675 2.8559789562361875 2.557111474992493 0.789365437289976 2.022935739769626
Ni 8.83296172554305 4.589020456162986 0.579986538867312 0.12710197055753594 -0.9118520205626877 0.4917576752679725
Ni 7.921087448603428 4.6604794945758465 4.330259746397593 1.766648433762964 -1.1303680213578469 -0.9123896382337124
Ni 8.50467265729724 8.50488391152391 2.1308166758076963 -0.5687462741088849 0.6805473526432924 1.0857781505626138
Ni 6.0183298139494505 8.509751943703705 11.356403566584076 1.203356755010747 -1.8374586717073065 3.4528629904488923
Ni 6.928596721773104 8.386682579218629 5.4368709249719105 -0.21847486314457853 0.146928775475476 -0.6251035698526912
Ni 6.53626088298065 3.4815615051920745 12.528402520796073 1.1679498362663627 0.3372104640152902 -0.9145889598778766
Ni 0.3724604900493189 2.973926783469464 4.672011219862137 0.06509467561680403 -0.8426266106069616 -0.25990073438953304
Ni 5.255380581846088 8.655250996081355 9.453972916733118 -1.531809013217433 -0.06601178811443471 -3.5636479690139593
Ni 3.9992262101983416 1.8459394326460152 7.483076609011558 -0.20256616233412209 -0.7569679947958771 -0.30061955226513387
Ni 7.648780750425274 0.21812366302374586 9.94140714190285 0.9042125017395589 -0.6489790909187081 0.0874794710699074
Ni 4.911155596936226 5.556794438472874 5.785020646014654 1.3213279669116085 0.2389688693328723 0.3612052842679908
Ni 1.8206164803446971 5.075281761126378 12.75846847710316 -0.8658210464455541 -0.5654624611512906 -1.1114650138057567
P 4.186801593548909 3.547638153308027 5.108710446255375 -1.172886868556664 -1.5013275567991242 0.09157960928121002
Ni 6.96542843694477 6.818487344845937 9.119440826840878 0.8988011009160003 0.5740771994034951 1.1288821808409397
P 5.4464370674535285 0.24139377533981002 6.941291263802719 0.7892299401533762 2.64812209914411 -0.17217212342329702
Ni 5.103047914483971 7.498018712313619 7.261560019408158 0.6245916632132791 -2.013726819576848 0.5685207883616402
P 3.440385300924099 4.2138053946972125 2.1534943577924457 1.3994046566103768 2.2784440015184177 -0.47883891032377535
P 6.860315681726677 6.323876905445875 4.681354167660794 -1.926248119837889 1.5502584781718722 -0.5920651513404835
P 1.3376985031425241 7.725484404639386 2.1571913067591777 -0.18652607815212394 -0.1723634134984967 -0.11259246408745126
Ni 4.9204599678761 5.8475996589342545 9.259787113081043 -2.7258930846770024 0.6780893780211033 -1.0982055776926891
Ni 8.963810756549426 7.168682557900832 4.556507512181773 -0.695854415314008 -0.49404390019898786 -1.3490668275877733
Ni 2.339906924399688 3.0339413537766133 0.8349024217073034 -1.6196875194979716 0.7010292746467283 -1.122142548124261
Ni 8.397814758467522 6.230226988266246 2.315538290104938 -0.25916051378939886 -0.8932624304859585 -0.6424963114078419
Ni 5.697351978939711 1.5502202551729536 10.952344036708054 -0.053106392906676285 1.3228654866020573 1.4190805377727496
Ni 5.707776915777576 4.390790511815129 3.77388867458212 -1.1644775614470462 -0.2554342139777472 -0.5221650839152362
Ni 5.109137547191905 1.455615101490119 4.9689152579978275 -0.4582047790131915 -1.4663361283256038 -0.46212776821668156
Ni 0.1506196711328116 7.690645827171523 9.14711972301789 -0.03010221870201912 -0.061199711437772024 -1.243862171323961
Ni 0.9592595184784327 0.0999737665301758 4.909403105351499 -0.5154473055754284 1.434623370603355 0.1876887310016574
Ni 4.63502795274525 4.042873170421723 11.089974328390548 -0.32548237694508464 -1.5081471508241189 -0.8732656756490573
Ni 1.4141174233989497 2.3701162788135566 7.851565519599473 0.7326178480862866 0.9177457603393033 0.38736780159597156
Ni -0.08403233888629935 6.7687783068137515 13.252865825283276 0.8781404872428554 1.2917209426784528 -0.025390929269278852
Ni 7.733796799210548 6.3727225566386245 6.868630831787752 -0.337080109085013 -0.042341183970372245 -1.3040897486564509
Ni 8.141894040305889 2.2552582742694938 0.7899548702449425 0.9412093906788823 0.5957978789100383 0.5215937847927984
Ni 0.29139673229605767 2.9281764659457554 12.2291452942746 -0.3178688262638848 -0.2453850572718613 0.9576994179141056
Ni 8.225817078092302 2.002653328969949 8.145701208869145 1.3550438711068145 0.32301720323404376 0.21165141246484195
Ni 2.855523381903889 0.8602483364245638 1.176349872784769 0.18473607613123666 -1.1408465522916673 -0.17389810497546826
Ni 3.4114526568366306 8.906974184608709 6.093957908600819 -0.5612869896173623 0.741462185850794 -0.23115425838445997
Ni 6.131470229781019 1.6641413931465647 8.795999583848833 -1.0291267206171566 -0.5724658890523173 -2.042157049893083
Ni 2.9884665852442143 4.136008729484241 7.1381930620124665 0.017535694890918187 0.1310900086710065 0.33123444893751347
Ni 2.374920016228714 0.06931710425374898 8.43662399690015 -0.10266594900235866 0.94080109949687 -0.16866539582161919
Ni 2.341064230163187 7.2856071798797135 4.259400486289151 -0.29335952826861095 0.4369798081961442 -0.054969928477976306
Ni 4.080182503844992 2.3393374564843157 12.747203115841803 -0.2513443601790897 0.8986154672677557 -0.057411705150249515
Ni 4.790446768810031 4.812959121399995 13.239638555203793 -1.3349401583784042 0.268094583054235 1.624021113876319
Ni 6.390146437855743 4.074304125363728 1.503291506463079 0.2173507768424644 1.3903397181946315 -1.3329809777695045
P 0.5371469371884665 0.5668841843305582 7.25014678018813 -0.5208569066267739 -1.3083001871933726 -0.5438132583126313
Ni 0.7217794573118513 1.2201401184836311 10.005073654841485 -0.3284134345489505 0.43201655065359795 -0.1894111130094028
P 9.216930059966082 3.263850247158655 2.491266903822484 -0.1143960929550933 0.5705568449550625 -0.068603717211327
Ni 5.948064821165599 6.515034425683463 2.609068690090367 0.11340853223084339 0.13329678651433818 -0.7067453511948989
P 4.963849749040927 9.222900288111115 1.0531895771325595 -1.6114669313603927 -1.6108735207507674 -0.8212782268381728
P 3.407098982773945 8.680197364761217 10.56147136305945 -1.2403657281349285 0.05346377624609501 -0.6740938837084649
P 6.094822213936892 5.051612102772915 7.659839449943151 0.9646365113535709 -0.008272524421437366 -1.0019290771564422
Ni 4.866626879940655 7.736781913283065 4.422076344288379 -0.5748392743805003 -0.14978527108766462 -0.055056831764827764
