# total energy = -340894.15157064394 ev
CRYSTAL
PRIMVEC
9.02826889753094 0.00000000000000 0.00000000000000
0.00000000000000 9.02826889753094 0.00000000000000
0.00000000000000 0.00000000000000 13.21378412294812
PRIMCOORD
 96 1
Ni 6.282239776492331 1.9563627091353522 11.219348716285804 0.13357729386923445 -0.23916864404850424 0.4630040001740478
Ni 4.534700930898028 0.39098995700524447 6.089043846707854 0.397511832008509 -1.1168347627581023 -0.4125473861853927
Ni 2.6868580159591056 1.5063396091756822 4.746536625000137 -0.29011942406475844 -0.09355138829560017 0.12133884282151361
Ni 3.3608183018795277 4.6004538145197085 4.988587227191862 0.47573815991126456 -0.1724570016535675 -0.6902049303377145
Ni 4.983902458372517 4.701868360959683 2.783444244101555 0.3603627337620374 -0.04227922038418525 -0.26457782815022823
Ni 7.1218146301947245 6.270466913627759 2.799816107229326 -0.059049240753672495 -0.665754510604834 -1.1002678595383568
Ni 5.225860069392843 4.378882035054752 11.82595360082499 -0.23820036659796395 0.42847357049734597 -0.45696936394419363
Ni 5.498892982544958 7.828249599952465 12.451665914019527 0.04882190659870947 0.08057348797869349 -0.879651267460427
Ni 2.001666563318188 6.364685929620599 0.3464399632895804 -0.2977635708735775 0.5013568889206332 -0.10839076730127783
Ni 2.8476153749825355 1.603727547611363 0.4268240597627361 -0.013112626122558063 0.09223652613891857 -0.3256219878467424
Ni 0.48051337025585816 9.059145748134895 4.613632378878155 0.5552546673803533 0.5390394910730717 -0.06761821336960613
Ni 8.426074492823096 2.312961280780159 1.306574710817386 0.5338119241255451 0.26247672264682537 0.33815920108180475
Ni 6.683582449637762 0.9723806916915357 4.700103334356903 0.3406526569276198 -0.2034583351310883 0.3737751505132014
Ni 0.8575320808784924 7.278987766398189 2.3683722821845343 0.16709933688607995 -0.25363469887516316 0.5631831781988107
Ni 7.521207197221484 3.7963871430614535 3.691852426831605 0.07956124466409524 0.40545294123245657 -0.22270947005121644
Ni 7.526172745208842 3.768083519533516 12.699212926419804 0.08332225436842423 0.15671645098985915 -0.6911822066493194
Ni 7.998820687452726 8.632424610639534 7.06386487952845 -1.90443616616912 1.1450850158530474 -0.8010770692999495
Ni 6.745705969094137 0.740975321557798 0.00872040509270644 0.49047726589365215 -0.05982751368059374 1.386275832537903
Ni 2.0464919192404234 6.336770521662583 9.49990494120397 -0.8455646101893632 0.5197641877832274 -0.8441348197213719
Ni -0.050821932237149904 4.9686988532621355 1.4351489990943922 -0.06646353093987263 -1.0818885857002207 -0.03626206765582787
Ni 6.1338962874372935 2.1485565010532883 7.01151175285738 2.217482888454013 -0.35398974035615816 -0.6600417764907729
Ni 3.4645079721246193 4.525555294332222 0.6045482448455128 0.3737119013754338 -0.7995891719005133 0.4347172374142126
Ni 5.720862005848903 5.578883446486753 4.989194829700133 0.9393890496406918 1.0024769792401123 -0.2966996483854374
Ni 5.265430972717547 2.9104882407715484 9.164803581036795 0.25603019569053326 0.2310187612478602 0.16820054037005872
P 0.2147075864926149 5.396124195744795 12.421353500623976 0.2581004479560007 0.3497453632575073 0.24908127517652587
P 3.9778192382504263 6.165883444744944 12.458047997423641 0.695702463117176 0.4389150775456441 0.7058133262989328
P 2.4596796814029696 8.39906191177187 1.2622991764813867 0.4888016779634421 -0.0250739122494923 -0.17320313579097268
P 6.322885043836118 7.764636416099882 5.920422865326264 -0.7725967024720694 0.4149079159977693 -0.7123110182081346
P 4.602737966593892 1.0504661908599984 12.462039395178572 0.8917351952081546 -0.0044276967540504385 0.283448439802486
P 3.9924179493332574 5.9689227267591445 8.27264808828282 -0.13037292799932385 1.0005746200110768 0.028283163215409357
P 4.541634641542193 1.161432645973835 3.7185174195237143 1.4172002900309013 -1.5253740562253666 -0.4474935632432745
P 0.08384734048761078 5.554714770191923 3.558353217778047 0.5798051030262079 0.0952262048948618 1.1827994996846856
Ni 1.462615702079733 1.0707888245318922 2.3618981104359267 -1.1059595106064952 1.5294250863662884 0.9014804475203764
Ni 1.7290489505431967 6.4126531231784725 4.946395417356739 -0.05671313642132813 0.974120025363974 -1.1624569314725917
Ni 6.2935702541725735 5.644248114538512 9.165979061669438 -0.40735092958611774 -0.8338614628198219 1.4650937712780703
Ni 8.37277159224608 2.217758183458915 9.982062359257098 1.3019058536312547 1.0318829432060552 0.6994369904589437
Ni 2.2517767013068477 5.231358285255208 7.149740872075623 0.3472544785148536 -0.12041993055167001 -0.0008464071606953166
Ni 0.6580967143411753 0.1789926568868199 8.991504150624207 -0.4261171544500274 -0.6209165283545371 0.6678954682072368
Ni 1.6149948274081307 1.199333319520974 11.379499375627871 -0.7367218429523312 -0.15177530493449992 -0.32484294358887283
Ni 4.166176015814496 6.8315918927372845 1.781402980041173 -0.31978249834682987 -0.283132451223964 0.03080952918168887
Ni 5.585058782529211 7.55177691628547 8.055797190713479 -0.559868769113597 1.6350894558753388 -0.09298523137948503
Ni 5.0294320192820505 2.9383043377698184 4.853317574574084 1.0332497416465947 0.2757058197425897 -0.25818092348494887
Ni 0.8022853939711536 7.529576402647448 7.055922711229399 1.6100649088065435 -1.666695255706078 -0.20396150001975197
Ni 5.168611815233145 4.5750482653625735 7.199913671766788 -0.0693213121036419 -0.3972601210090191 -0.36803567692626293
Ni 8.29302489156912 7.03326536717654 9.210813445860742 0.6881261934318149 1.1202576723967221 0.45390640874815374
Ni 4.724303609593471 0.21816992768016324 10.364363510111373 -0.7566340084952259 -0.4652981955248632 -0.3997736314594922
Ni 8.121451666202319 7.242296880906152 4.739507214703852 -0.1388359711650125 -0.4105385832854801 0.38890017908009794
Ni 7.418221731963691 6.1517542036536454 7.01366499503008 -0.03669195610439487 -0.1229396116497302 -0.7421964929136572
Ni 2.3609013895308277 5.407237994967407 2.5588624397293533 -0.6087577815048161 -1.2965319909138509 1.3210572297487249
Ni 2.542550163177431 4.8003035786072425 11.575526570592045 -1.0547436498543126 1.6620235612620216 0.20937084396078132
Ni 1.1746951732346134 3.257661299509444 3.8204357433776788 -0.5746089035372491 0.8875946906772199 -0.36088723880693974
Ni 3.5928719017323423 2.7943215026745882 2.6938016576992445 -0.32997178017500595 0.12659186369033684 0.015500152518128143
Ni 0.90222742972615 3.3483954036420664 8.081576510210025 0.6208188264344082 -0.5870610132576728 0.06903797653526819
Ni 3.8156444409833323 2.565689616798516 6.878277072087513 -1.419407067874233 0.6349930610522613 0.7258856715687756
Ni 3.9457056851758256 6.868878643987806 6.160504402034276 0.6754966775932624 0.09637060291195015 0.09371413912570957
Ni 0.9946895445583724 7.287004869330504 11.559286520192666 -0.3653375612688095 -0.046255174312797756 -0.4812966278356486
P 0.3096976166638558 5.522456764812237 8.1271647548685 0.105555868955644 0.03873855422077844 -0.731150776622457
P 8.505098931974622 1.5670456903883938 7.792631272825696 -0.6648502536230099 1.0136124270316413 0.26978328361056764
P 1.6680810495275156 3.213476950691031 10.479865767604934 -0.3092533166807319 -1.4129607980282568 -1.7075081759573818
P 3.9186299062411254 6.483985477084129 3.946482116315667 -0.2042918867759772 -0.6166361558116283 -0.9221706288798763
P 6.81914190969262 3.8727843559142148 10.428464220493623 0.6778011573567231 1.02137150215177 -0.6933941266989736
P 6.48375977035743 7.763589136888003 10.257226846736149 -1.1417168707117629 -0.5455071010752862 -0.27787968746545694
P 2.4453518183921763 8.414545393223358 5.727170960273567 -1.0287742223737442 0.8307028625861823 0.2226369649420682
P 6.673931230004153 3.948883635887734 1.5252276508926832 0.5759278794589888 0.4689771870383471 0.6782652414773351
Ni 5.062385201379968 2.856110976175451 0.6162858974607189 -0.3085534624002299 -0.5870550997204018 -1.5927400443748505
Ni 1.444748757594314 1.0927455749050798 6.84344510719656 0.3225245798683413 0.5057866425572127 0.00877851752357843
Ni 6.955071528779262 0.6171282349647562 9.106239908073901 -1.3195554483922176 -0.5925066097532763 -0.49330496515043426
Ni 2.83281804198021 1.6299546692536784 9.102962646402244 -0.49249763875779046 0.026721732265560436 0.3605923332743403
Ni 6.188092986652034 1.8706392943354269 2.339315701016332 0.8561413572639448 -0.3927357507761043 1.5473904125954576
Ni 4.316478639257271 6.6170350783381044 10.311072346284147 0.5223594593142293 0.8693429435558834 0.7252135852024155
Ni 8.447895819160264 7.191919139507143 0.35550073412614747 -0.7690447234547529 -0.16293183577195167 -0.06010339304979971
Ni 7.555288912952893 3.989601129384065 8.049639008382249 0.4664220247166612 -1.2411296028841463 0.17573824350800057
Ni 3.097906078352554 8.347934824040225 12.325474185949545 0.13114965826434832 0.16464290492578743 -0.11752332573016534
Ni 0.08372094472065987 4.7191755527628905 10.203432808321839 -0.595149446692762 -0.11829619934044788 0.5715870859917898
Ni 8.558618511009268 2.248580694056803 5.677791745433471 0.03419490071415401 0.8742817756183975 0.2977957096630936
Ni 3.6416516395063283 2.6926090233553723 11.28833733154143 0.8292486466381589 -0.9359769386353493 0.5214986539758308
Ni 0.9800908334755417 3.2274256264009713 12.72643315765959 0.2982695639757186 0.7454252842636001 -0.047664910176130816
Ni 2.945057483032624 8.36820328809771 7.952345866771781 0.852746215539467 -0.10737312467004088 0.8871511753818979
Ni 5.753363774493424 8.10049705369567 3.617761936725698 -0.8434331656686571 -0.30421292604334704 0.07592519057340473
Ni 2.7827472617295115 8.548425595231583 3.390538460824222 1.764657371474864 -1.4774211824951715 1.1103553256813459
Ni 3.348079414224689 4.21761006469445 9.375417750334012 -0.011674351014134733 -0.2800000762425694 -0.8532264976099951
Ni 7.313999393843593 6.1865852657176905 11.569619374140904 -0.013704494070286077 -0.7201670239174436 -0.39833381368917203
Ni 0.7267377412376841 0.15535393998627817 0.2797436255503022 -0.6989201987235254 -0.25452635745149715 -0.763112417130718
Ni 4.682818713226366 0.02112344113821851 1.4497639610615451 -0.37047796781916836 1.8766746797851357 -0.2752358220847066
Ni 5.942803944345645 5.795173688546974 0.5057311314163796 0.5379837961150477 -0.3395990188521248 0.13598127532503676
Ni 8.167920167094916 8.718436930049632 11.16645389347066 0.26432534581978995 1.0896085800522977 0.5898185213981519
Ni 0.1675123099400495 4.788142500172751 5.882063555710475 -0.6619636761038342 -0.553216553904402 -0.4588030747188227
Ni 8.245211178585402 8.79385006157399 2.344693840900093 -1.4940755032224011 1.4823949815606792 0.42802259900285644
P 8.455497621715455 1.8082629833451498 3.4834050421106877 -0.17941903479369745 -2.032406141153906 -0.013096942393274217
P 1.7739736174251797 3.2151291239304607 1.621186414334912 -0.24874188955923612 0.5627879996429211 -0.50683282443354
P 4.73621189649406 1.0086653050755168 8.244529544270774 0.19730285705265374 -0.9860885105797599 -0.24414604265843762
P 8.56864891794373 1.6310832028871687 12.29878301127714 -0.911904728177494 -0.4984392010532061 -0.2866510059001837
P 6.528765691661024 7.872370750887402 1.2842288420473706 -0.16478148738618073 -0.5414871812826157 0.44668675107126293
P 1.9881151314472358 3.2729100459651654 5.909626861174842 -1.3260374565721356 -0.4511578994687392 1.1159153362676266
P 6.924258046450443 3.970524396843545 5.853508043475543 -0.0038916217449223296 -0.061900079938906304 0.47103535511895656
P 2.2959610501252605 8.494815733506258 10.175882142434167 0.8495374787941821 -0.355439071208175 0.04896717392732212
