# total energy = -340890.2073000088 ev
CRYSTAL
PRIMVEC
9.12012422416885 0.00000000000000 0.00000000000000

0.00000000000000 9.12012422416885 0.00000000000000

0.00000000000000 0.00000000000000 13.34822367835324

PRIMCOORD
 96 1
Ni 6.18846938037719 1.970256906437992 11.37285960150815 0.4803571467405146 0.06761589937676098 0.16671264297062255
Ni 4.865267044043731 0.19976537594654772 6.098136374429575 -1.3878447196869195 1.2202738424810597 -0.5423436157456403
Ni 2.875529552363825 1.7303064393430736 4.842201337987868 0.18404059272610884 -0.6366375386342197 0.7620361533474037
Ni 3.5093599424118156 4.319719456028382 4.912987181787077 -0.6876801070333317 0.751359647470164 0.09255277182775674
Ni 5.209132206010542 4.641824001709049 2.8317055316688613 0.3921942764503375 -0.5487227797991066 0.012346180270178739
Ni 7.288967404434297 6.264731858744644 2.5247896407924477 -0.0116201007374316 -0.8124040642769944 1.095869730470661
Ni 5.1996655171148936 4.287643979298134 11.888235082708974 0.4902708063098008 1.4332719987817832 -1.1758374665445557
Ni 5.6795482110563755 7.817560681604741 12.316272606741887 -0.787176142948141 0.5455292125624734 0.6214094088305556
Ni 1.6020136525462583 6.430927881620763 0.7809981858413716 2.1086560620565815 0.24875088842030063 -0.8681625500945371
Ni 2.6342019465181914 1.4692155244060412 0.2247563402161598 0.872141075126311 -0.15016142348016076 1.174932438231783
Ni 0.8189214861938645 9.14201247495044 4.772670423275403 -0.30236764530449217 0.11313136731005677 0.13950111555283717
Ni 8.794143578469958 2.210636019369226 1.2482112032762689 -0.18963865563917665 0.24013075085145744 0.5520670136809911
Ni 7.097143832621017 1.0116315340771422 4.816506300131797 -0.7219840225215243 0.1969830118193898 0.5202694095544201
Ni 0.719031502121249 7.772425187053135 2.5918909544241795 0.20014289760461015 -0.8778707785212365 0.9323457696406653
Ni 7.764572760136802 3.6865548350453077 3.971950880913847 -0.4672288368886727 -0.24589567835969264 -1.4390772926096504
Ni 7.5775007730196995 3.787797333533361 12.930064259948335 0.5128368645357749 -0.4696870686211782 -1.1104072619652037
Ni 8.0940554862766 9.2438842620067 6.961071579901283 0.9809969549894654 -0.11319770177161795 -0.17647203635023154
Ni 6.697043984979282 0.8618435266077304 0.21230463467740301 0.4590365308858675 -1.1308231066173942 0.3533523638824754
Ni 1.8596845209169435 6.807242445409075 9.112030978731212 -0.24089025472530123 -2.021712923106118 0.08661892284182501
Ni 0.04962350765907106 4.719983465905302 1.3018037889771379 -0.2198897412142342 -0.8211596989824373 2.374252304168995
Ni 6.24560695834563 2.2841442202352478 7.243012922731603 0.6260407369549799 -0.5021827272560383 0.23529579135665926
Ni 3.4063025392125543 4.439904452431911 0.2876140600683679 0.28818492604620694 -0.7300688564121879 0.47201803074719995
Ni 5.954729717846758 5.7461524779204645 4.931594971145259 -0.25672387932344815 0.268070414684519 -0.37255413362190676
Ni 5.11648998462133 2.921458497718824 9.447085188730696 0.7989998750559465 -0.4133233451194689 -0.05428190127201619
P 0.13944396262794265 5.5384234095426255 12.636068848993373 -0.04429445104200113 -0.8927703213408883 -1.3183195191025878
P 4.102313935898825 6.190877093159898 12.660789857587348 0.33729736730214166 0.12275269244990474 0.0011739657034431396
P 2.529402599601137 8.306481418605557 1.5533997426335728 0.1737464098889524 0.9665668956070642 -0.29649241747063776
P 6.6314246915263 8.154658711432273 5.873578852920472 0.4615294725110503 -0.7259090686075433 -0.6584111828658854
P 4.63122641741546 0.7873576484299419 12.449100831291886 -0.21802492009135357 1.0706690628353173 1.792444054669829
P 3.9497980992880946 6.105339448504512 8.377879222737038 0.26628761175248333 1.4740013581803453 -0.9136890737714265
P 4.79804260873561 0.9668790847409674 3.7115138788803006 -0.6514056980823297 1.811612914288796 1.4422749736113418
P 0.23391476891462873 5.7558471699205365 3.496460438775972 -1.2492440044611646 -1.2192479723197067 -1.4024809815428554
Ni 1.5033886296969823 1.0694713616072058 2.606654611441787 0.34705470379922165 0.2395728214654584 -0.4418631044303745
Ni 1.7925604069747694 6.291362621341268 4.6822097355893115 1.9175575340424267 0.8159231331738465 0.36838097608082365
Ni 5.8648964947040385 5.444321968285104 9.360828878290166 0.6060689218187433 -0.049425344510663265 -0.20705890799815305
Ni 8.506002375224163 2.081194096926118 10.491650403223135 0.2894095424819274 1.3539637506687587 -0.09225246697851855
Ni 2.289297090395211 5.23488743668618 7.152926160136766 -0.25745612950378244 0.7990651810762431 -0.7599818419215363
Ni 0.7149520705769101 0.10590379395488028 8.854063706324778 -0.4609260345990965 -0.24715937556346465 0.6881169374604343
Ni 1.4362827560031624 1.1383647796397036 11.556785145784213 0.3166488378138547 -0.38588967438854826 -0.8666458563396946
Ni 4.365183275050358 6.506114185335339 1.5812042652117666 0.05787553216054548 2.1229488245301695 -0.23085832441059592
Ni 5.7230876838770195 7.718890058134581 7.74557371745143 -0.4160885665694318 0.05976580720472288 2.3134559988172287
Ni 5.227810220324885 2.8746266600703096 5.0030611762080675 0.8845427912247734 -0.8600869721752542 -0.5189303790280223
Ni 0.6645761526732427 7.416047214715582 6.446938259613356 0.0731669111019772 -0.07669086509483566 1.486625217591943
Ni 4.982250876861158 4.56610873079221 7.117099576332548 0.8543025042829933 0.5493105339817765 -0.19368505779440837
Ni 8.495058226211853 7.2425915729946295 9.335667367698447 -0.7086813918753472 0.46316597967320877 0.0352038015946426
Ni 4.517489348805019 0.18055839442994195 10.420437737612446 -0.046062855796333575 -0.27551478677770613 -0.9840131161079697
Ni 8.207965837246403 7.3505556030010775 4.479063529610377 -0.015957551770520908 0.5418427648498216 0.5291615698377273
Ni 7.4645389149642964 6.371318750000375 6.732683606237871 0.7819130947769889 -1.0071982959751813 0.5559105557967974
Ni 2.8067729361939815 5.134867034837836 2.5207986744526254 -1.814091971956908 -0.7648062598933731 0.9015688934691246
Ni 2.1907723889118813 5.459114809700078 11.563298738471374 0.7900768615347038 -0.0786508170346839 0.1714450154492854
Ni 1.2814595279756695 3.3192600740679743 3.7464995872354057 -0.6196317481048426 0.5338749161529966 -0.07805303554968493
Ni 3.6139677667211547 2.6551873522492975 2.7060183643493936 0.8494590601477627 0.11456707131531882 -0.27636993568914986
Ni 1.0356357009108113 3.6191662375020024 8.344521456547515 0.046519226607461814 -1.198630553179671 -0.013486978742841289
Ni 3.723017091504657 2.618715975665771 7.257189243752218 -0.3067359495755169 -0.0848191506289249 -0.24938158002576408
Ni 3.975015242637294 6.883103638312745 6.286920208854686 -0.2158232844543444 0.07000805375802137 -0.8640683254205054
Ni 0.6396216689003383 7.358572192152595 11.570680566980176 0.28752466675438876 0.08547683881758183 -0.4860248865492533
P 0.16477419551693642 5.7870653549781546 7.939990140568211 0.8045192622122789 -0.11670880024866996 -0.4301265327197366
P 8.649799373121752 1.910994339536328 8.26631456770554 -0.04918520347539917 -0.3049878565361586 0.17056132729275142
P 1.7241503555236486 3.390096078550157 10.644086894753526 -0.5994071935278515 0.0009741909878112255 -1.1127114846183481
P 3.9341570863246664 6.321039505412983 4.030669888414566 0.8179309076324945 -0.1475890347672942 -0.488051687171295
P 7.189330047801383 4.038947313117545 10.61572239655087 -1.1122905950308457 -0.9326332189740969 -0.7742488933635117
P 6.430453635163563 7.570624199390298 9.959376243934885 -0.2962286222862899 0.4237643379471347 1.0110608642543812
P 2.5420978124554177 8.594075414400736 6.052658875221334 -0.3421750071094171 0.4674111281028079 -0.4620917727724235
P 6.987529060138545 4.0049018895650805 1.7020185501835028 -0.1727832746447347 0.06911433829915839 -0.0668150007420204
Ni 5.389738025086205 2.813093182248591 0.357286336705575 -0.9874892475820284 -0.05218568086461981 0.6564280909975856
Ni 1.6397983270112617 1.279599022643577 7.037570269484919 -0.32630075908132194 0.5486957832159131 -0.3482685216016647
Ni 7.1380293493061755 0.5020728680763609 9.155667124868131 -1.2881453095120525 -0.42269244503919456 0.4279107560153405
Ni 2.737806557168069 1.804279766542119 9.481149764543932 -0.20008813310727475 -0.9182640947366186 -0.8694429594688573
Ni 6.247339781939246 2.0757037821716082 2.583802316291664 0.7956430427685717 0.27833502983532066 -0.19585121220779175
Ni 4.227888925690916 6.807269805781607 10.511712852387538 -0.62206195481289 0.35213571786655484 -0.13168213372905063
Ni 8.458951654595403 6.962767922998192 0.5897710701492618 -1.8030783944552238 1.2057054577485815 -0.31858410716335456
Ni 7.7274356144883605 4.246731102240445 8.112783661273918 -0.26280505252052155 -0.7398519039408807 0.2917777856037878
Ni 2.7371043076064456 8.210127306676336 12.635975823726769 1.4914041270378249 -0.1299479246467633 -0.7180918865559698
Ni 0.22901726223161958 5.04027310687476 10.147386691829793 -0.8217040015216817 -0.3756885654858304 0.7237164318315988
Ni 8.564480611446612 2.5072862984720916 6.219351032852678 0.6942060810773076 -0.4275333180712637 -0.6440230324650135
Ni 3.4861401062573627 2.728166585913058 11.594707534124288 1.0842378026586874 -0.3412003019009737 0.6555762845202516
Ni 1.2340440023798325 3.5062773404400147 12.831860586836033 -0.7655593360093138 -0.4454341096110845 -0.46203700827508815
Ni 3.168413220181621 8.537877209222518 8.197704785534945 1.0021437642704096 0.5532108974774472 -0.1231365581518847
Ni 5.916653199408093 8.29858339106834 3.8499482437618573 -0.5952417492962523 -1.7239264694144054 -1.2875117896931116
Ni 3.180360582853394 8.593236362976459 3.7690582143870315 0.21592407169826683 -1.0909041589352697 0.10243994903448164
Ni 3.3859737824221865 4.39905541624346 9.362377475375409 -1.0164642946581397 -0.8650088349569037 0.9143706732194833
Ni 7.183465807955619 6.0429304387618075 11.476882825857748 1.0110495514004718 -0.14900699816074336 0.012634658044875013
Ni 0.5591922057964472 8.856470507095068 0.2830713262158412 0.4652519156679601 1.1374251853149442 0.2271147982077637
Ni 4.563272372173186 0.3820648020818648 1.6203542222660559 -0.16723406269173133 -0.896138723592489 -0.7130772069501977
Ni 6.307888286349856 5.763717837085224 0.39892791168500064 -0.8829371373005505 -0.14089876723131217 -0.27674917340543953
Ni 7.831778955196569 8.622694364067929 11.55817322868394 -0.27964886355073776 1.05294336342078 -0.26063092768733825
Ni 0.13175022587228805 4.678851705867367 5.497158495691707 0.22878987191734146 1.3473148778936732 1.5494601506402927
Ni 7.999671321169595 0.07813210382372347 2.419779619006906 -0.08985157084650977 0.11410452985660349 0.00140716476017177
P 8.79974333471459 1.633997928034737 3.786130174833819 0.7504682460041463 0.8457237614750467 -0.6785778876217475
P 1.8749880892858248 3.230275022473709 1.5848076262740698 -0.2569758474332542 -0.49966947391588146 -0.31271993507309365
P 4.798799579042296 0.9829305032923568 8.32963832590319 0.33349496283691593 0.23615608247442557 0.03051128121497971
P 8.694752465189818 1.377166111088329 12.580167047850905 -1.1322793794479467 0.24304123963003307 0.24543905043824826
P 6.463468484684034 8.017154599216763 1.4273787787692296 -0.7727990482908627 -0.6235583368527583 -0.6770141426790535
P 1.90496593745538 3.3697582016356122 6.1319601789645395 -0.45331788323453537 -1.0285289391321577 -0.5456356562333506
P 6.937833503498476 3.9925714816778766 5.989134474291793 -0.5363231205831731 1.143672965996869 0.15708077630781334
P 2.1913287164866735 8.481998208390495 10.281428804907742 0.6999003032486075 1.4130700699126115 1.4334512046721248
