# total energy = -381171.96653768467 ev
CRYSTAL
PRIMVEC
9.22611504904707 0.00000000000000 0.00000000000000
0.00000000000000 9.22611504904707 0.00000000000000
0.00000000000000 0.00000000000000 13.50335196427606
PRIMCOORD
 96 1
Ni 8.369248973917857 7.869082816874585 0.635644277814592 -0.15438934551857927 0.11641903692239305 0.4294428763891507
Ni 7.102770914752231 7.431488173095305 10.672644584371007 0.7421581834765542 -1.270784963856734 0.8868999786030403
Ni 1.3027182396582475 6.656808184489547 -0.008874600207701672 -2.432893253740655 0.7546925684981389 0.8398624175982632
Ni 2.103249803045147 5.088304018244887 9.899914996517829 -1.0345813159738246 -0.8649651262031619 0.4494098064293809
Ni 3.3371412233360447 6.62494118260016 5.071697010890834 -1.336215425546402 0.6726095858534544 -1.2295431835981276
Ni 3.3415605325152615 5.630642747852256 0.10331772841867805 1.0513287106354925 1.2496515243122286 -0.14606231371012265
Ni 5.295181199300397 8.79329968058839 0.8919153117986517 -0.45072286881384954 -1.4086565142259482 -0.4035366980463502
Ni 2.3601417545819445 0.25055361039666735 6.077196872099047 -0.019527785620282498 -0.21269862278243368 -0.34794816214776847
Ni 6.183785258354954 2.459202553448867 6.020645399000901 0.9914659728415893 -1.9288745017171427 1.0040774909580126
Ni 4.712718094702598 1.2771157699874167 12.929648519780606 0.08914477458747228 1.0436930484671059 -1.5206290853412132
Ni 4.951683704412217 3.308789371336598 9.97384570281199 -0.559372803313785 -0.34518345491843777 -1.0157901514092504
Ni 2.645237940275041 2.4985980653387583 13.289189306384323 -0.5694132182689225 0.9527287041723915 -1.1087797536641097
Ni 2.34172642864934 5.2860473452556676 7.622143075800464 1.17034353330952 -0.8681460950343048 0.09903452289735848
Ni 3.0568518436604264 8.139205017603445 13.263383862179165 1.1860709713471058 1.0956725268581904 1.1078739540203888
Ni 6.726649876528533 5.84864662383498 8.666856694429192 -0.14169632343194305 0.5455328121068992 -0.2620668888029164
Ni 1.512750752111027 1.773628385412797 4.47908887002275 0.3552390393822269 0.8034915922787128 -0.29394985355444214
Ni 3.754189308572284 4.355575175438505 11.55425155766039 -0.41597106715496107 0.8524672508464675 1.0740837449438212
Ni 5.678240276152009 4.701176224591532 2.3254118891470226 -0.02779208251160375 0.72526243616248 0.9084874749658288
Ni 3.8208018602924274 2.8812973236976993 2.429036847201751 -0.031013931883011103 -0.04807011603434947 0.428653547718636
Ni 1.5340815304457878 2.24988967798143 1.8598842589982254 -0.13744526146507294 -0.9752757362349719 0.3165683622849064
Ni 8.123806631340159 5.805117812336969 13.016974622728853 -0.3167018025389772 1.6493590784204757 1.0251787917130022
Ni 7.026507846536343 3.8492644256742334 0.5539765513164802 0.023673432357539874 -0.13890641939163173 -0.6989060576561383
Ni 5.73221305005268 6.346902975032536 0.5760223535789848 0.4099068632387521 0.04656962022942302 -0.2971534480934044
Ni 7.606470673915838 -0.11845409301037714 6.340688263836042 -0.8399120398892761 1.3745235770979813 0.5072614273305264
P 2.199026104902046 4.333829221919893 1.2270336488651932 -0.5396616980381028 -1.3959226115990477 0.5620264388865481
Ni 2.4638894199687886 2.467358439282746 10.420901727725484 -0.5796603499182276 0.7867652806629676 0.8136091403286891
P 9.403441130776274 4.314362118854865 5.516686386000268 -0.9695766289676656 -0.3509378409037117 -0.2036645376046234
Ni 1.9713255818475943 6.278140738471563 2.3129483301278064 -1.6974978429092313 0.2069601776367597 -0.569308060149626
P 6.241245503799975 0.8964730127058194 4.25381204743047 -1.3022295555192605 -1.058243435477455 0.6846891427258079
P 3.740968285495419 2.5655335310907863 5.403041866841927 -1.277994851341612 -1.042901920024378 -0.13225703239591416
P 8.747381305254434 4.864819829835325 9.784029453978212 0.13274862732035203 2.2352109018613957 1.0913240200815075
Ni 5.852346296028855 1.8403331982849076 1.512348493488451 -0.086984790821676 0.2603100540128097 0.5786599336781713
Ni 8.231992058136614 2.8399551015013054 2.655109883535505 1.2335379065798173 0.820908759313896 -1.6064638217188463
Ni 4.392332018382141 5.783777807887012 9.243044195470198 -0.6103809189305359 0.6588809234134524 0.6931858673429094
Ni 0.23521980693975894 2.864136749431845 9.424556940626953 0.9798983226086478 -1.1463093751784517 -0.4990889188220631
Ni 4.734943806211438 8.598139665832683 5.328909108624957 0.7494189788040255 0.26456034464873146 0.5801534875045621
Ni 4.241715687796082 1.4783926991185319 7.335385266760443 -0.34718428739855045 0.30968166246740214 -0.027591793575339578
Ni 3.334170414242708 0.7860991513847083 1.3060830038704825 0.04458010060322 -0.30467289639890105 0.6946310844298681
Ni 5.093535225561413 3.9869918733305085 7.618429564433794 0.03805155545608285 -0.5066135093338824 -0.04280243987750693
Ni 2.6389365035956973 6.740553632129955 11.592884069823512 0.838460395044414 -0.8409852183487968 -1.92215903737018
Ni 8.317702668313919 1.3701057850549136 4.545754933211034 0.23601287202834195 -0.6821617483182638 -0.9136664480636071
Ni 8.897499425619872 8.271608996791226 3.0308950911660424 2.1857724447246096 -2.189827331520274 1.6108388108580902
Ni 6.219213540710266 1.5870117533292314 9.188625800205527 0.21361933482449016 -0.9037931548139532 -1.9117586679724627
Ni 1.815791731861697 2.6378662742328807 7.011966566374832 0.1951107344973414 -0.3743909297203294 -0.5747474859976425
Ni 4.852567548854113 7.3075998982340735 11.61115454574753 -0.09506088296159111 -0.2601704431111519 -0.5267969262602927
Ni 2.1999210380761256 8.25188356250069 3.8167359113252437 -0.9785466936767598 0.48059960176862393 -0.11730478196145605
Ni 7.095740614972349 0.7176699775823354 13.338489975549386 1.0464772960804622 0.807708715683854 0.2762071848590405
Ni 0.5731124368459469 6.6886751863789335 8.690163706639085 -0.12617997296389882 0.2977098348175066 0.9624017084857813
Ni 3.7374254572598877 0.7720219448175899 3.7422110432124134 0.6930691392593871 1.4101647233403585 0.36761555866970885
Ni 6.0807756821838455 5.105612210353888 11.041528657834414 0.5323667070385862 0.8913107060762262 0.09269392539131133
Ni 0.4880485773439314 6.7932070715574975 11.167380250009503 -1.9221510669503798 -0.8354398630505353 -0.5065962829427016
Ni 8.91288858576796 5.778906419063157 2.060152773738342 -1.3013309549643912 0.44619901280156704 -1.3028139672678207
Ni 0.9653099807998862 4.017401149018817 3.0953598032683955 0.20973182684462588 1.1521689192830222 1.2365383839690383
Ni 5.764116956402853 6.46365946284672 4.480142492378213 -2.938668069223326 -0.70367236869653 0.7044056473181288
Ni 9.104302797753807 4.6640964676160115 7.758999578182171 1.25626080209863 -0.3544144865984025 -1.446595969584199
Ni 3.3191226203568975 7.864866482229696 7.547144907978043 -0.7515571081929509 0.11396954694063599 0.7872417060787539
P 8.190852810474547 1.1089052377212594 8.477269253252292 0.4605010312465359 -0.27592822016604096 -0.39371945484561227
Ni 6.337667633720643 2.923045494962748 3.6191143690350596 -0.5842914209323357 -0.7312312521514052 0.2511512703316771
P 5.808356178771009 3.140892526987128 11.98799245312201 0.06359109448808403 -0.34842818710798057 1.3578767125699194
Ni 2.2933908111338503 4.4954061773596266 5.313434145605539 0.4436142827935264 -0.8967935835676686 0.3595137554981809
P 6.561022656517451 7.937835827320362 12.696553487170647 0.9553147197320129 -0.12405675597330892 1.0077374563081032
P 6.805773040455397 6.634536342404723 2.715740222162111 1.0845694749664934 0.46767260929431065 -1.8651957326112587
P 3.111332053896915 3.402655867347781 8.475689742330617 0.7178283484819379 -0.08410644083261645 1.432307320875669
Ni 1.2149778841376708 0.5261090703648605 -0.19724788462471812 0.42060573771349496 0.3529679839598631 1.9726665592014285
Ni 0.4762825126335853 8.873077898694218 7.5168297386647405 -0.03187319455951285 0.06619382221825373 -1.2760384989461895
Ni 8.255915374841647 4.1538369405475555 11.703692481170387 -0.100101273598976 -2.0179771102127697 -0.9314548823952797
Ni 6.846367947320858 8.920712331454759 2.517308626957657 -1.3233012885878952 0.07618744309585589 0.5275669716570979
Ni 8.885662319822512 8.860124432958058 12.033093394649537 -1.6201024955482035 -0.4657748780509656 -0.8885125745057988
Ni 7.751708179342223 7.1644105903813555 5.019087856816236 1.4451841768383369 0.8582396345538704 1.0289449436236537
Ni 4.599790444695042 3.777826615706218 0.42153289983335324 0.8646920750474335 -0.6430077038266216 -0.9740606328809481
Ni 7.598480858155498 7.995886544137973 8.622349914720333 1.1134061966925275 1.3781094946770265 -1.8606610779656987
Ni 3.9601531042233202 7.130578425955072 2.367124078562804 2.3024984713644603 0.9945980907126678 -0.09114894950169464
Ni 7.7967408476172935 5.103674726162582 4.019650475903772 -0.3156350518373597 -2.1504951095795546 0.02719301547502414
Ni 3.4656610080260166 4.972248715185651 3.3860331755978943 0.7254758377248667 -0.3563898651572185 -0.2289325681427928
Ni 7.253276531955929 4.900423408379375 6.447215757731651 -1.1032261708357323 -0.08533131437865303 -0.8456481710421049
Ni 5.167012006987899 4.120752091452204 5.03376568348266 -1.735149334713418 2.6959597874526793 0.10026093910529184
Ni 1.1777228309734131 6.675832434025134 6.39949552209978 -0.11517282322011778 1.8209048811136834 1.6134425670295245
Ni 6.226548302291639 0.3895607202307237 11.113474826749767 -0.8690979174246128 -1.4021295117407078 0.8693378013495608
Ni 7.138798894595328 3.60836133177331 8.939880508387413 0.42562967329064766 -0.03444918281680519 -0.26787475373394515
Ni 7.914936609402163 1.8225729265312682 10.924887496460189 -1.2856523678868697 0.252142687710669 -0.4938438683730398
Ni 1.3758997853984387 4.645718046144194 12.24493422568087 -0.13065446379548465 -0.8455964918685631 0.30452531507744324
Ni 2.0592504596721053 -0.12032607178378672 11.142803724348543 1.4692430175597535 0.6976320760397211 0.5830768317989442
Ni 2.2052721848902093 0.7222793447346046 8.641645412042703 0.753259178485722 0.012003452218779326 0.326996756707082
Ni 4.198131519606892 0.9799241472714524 10.170103625276104 -0.5454083707138929 -1.010270764252918 0.09867636822699134
Ni 0.6763757311849644 6.23523007669173 4.42723625739428 -0.020978659134196127 -0.469490893449972 -3.021033101884804
Ni 4.513812277177034 6.072315334548476 6.767731922276381 1.8810249863340316 -0.9321243976584785 0.7337285646519622
Ni 8.666994163545624 2.442411023790881 6.582924531382887 -0.25073320895765205 0.11027281481533911 0.8139963484647788
Ni 9.168138288799746 2.8883183973623843 0.14881908334574231 0.5740152358173083 -0.18156950547779696 -0.10037252498249165
P 3.3720712954707346 7.974140590619361 9.764706278310252 0.5820597033883395 0.22661728974605488 0.04280192565687467
Ni 5.380236755298736 8.636972384695575 8.76506684547498 -0.8034082885362873 -1.0622096192140544 -0.12311264689248476
P 6.110206989661306 7.484455300439535 6.7246422738617335 0.9719027059976809 -0.09913325325875184 0.5470919290639029
Ni 0.38022389165166753 8.823469077281585 9.803419980287106 -2.0306729605128835 0.46297237560516397 -0.8518540427425005
P 1.7406173452390195 8.563624768881844 1.6346480313128111 -0.6445297968981029 -0.8087844652465361 0.45265633839113656
P 0.30991997124132603 8.607273519877412 5.203584327627601 0.4705630434682283 0.3367795471254587 -0.0061817033306796765
P 0.5119414478688145 1.846477791005907 11.731618086647746 2.5326386866621093 0.6725275676626095 0.3828850832342696
Ni 8.781803941053306 0.8072048125086696 1.8250049304971172 0.6402373401703361 1.5297331045250107 -1.7998634870623518
