# total energy = -340873.19419477874 ev
CRYSTAL
PRIMVEC
9.19560593741932 0.00000000000000 0.00000000000000
0.00000000000000 9.19560593741932 0.00000000000000
0.00000000000000 0.00000000000000 13.45869879550527
PRIMCOORD
 96 1
Ni 4.6462270682320135 6.121671248772352 12.574408222621654 0.9365212411745936 1.857848291107252 -0.30604766525924065
Ni 6.7564347363076065 8.086937774856453 12.007232439288751 1.4778551847087968 0.627130627585049 2.783997445018902
Ni 2.4135523192629624 1.9365118660785567 3.3387397119754203 -0.012237422606456345 1.130723862035369 0.3260698740174385
Ni 3.342869458636274 3.381463417076719 7.168022705006095 0.5616312603306586 -1.3874508266826104 -1.759870491609182
Ni 8.23723075954805 7.7150766632593255 7.794511066689417 0.49099225785685763 -1.1883096308696375 0.6380855839346559
Ni 1.5729543867120035 9.076504524833004 3.493999243475138 -0.6888299043670588 -0.7498550379001796 -0.4558753595490665
Ni 1.5857454746773734 3.7951093624011234 1.4428264464483442 -0.2829319051773837 -0.23442110206118985 -0.9736978502248909
Ni 7.143937573734421 0.45631447678961984 7.379861880748893 0.251784790150618 0.5431247168860388 0.08636824028359964
Ni 2.73052485856297 0.3542340544290343 10.05745683109571 -0.43752693894886585 1.245473481675139 1.022424883116949
Ni 8.769086220181466 7.547312027141272 10.938490601971703 0.4642247599550263 -0.05494241767415054 -0.5627000679148051
Ni 4.478499214538015 2.242780719978355 5.05152064461397 0.41985703247292855 0.591274280008072 0.9144544911825412
Ni 7.144305397974978 1.751560642320476 5.292054708923223 -0.2136260196927095 0.44197083365283235 -0.45465434265777177
Ni 8.391753723006053 6.418441041659766 0.03981973272210101 0.6821933728871478 1.9120769705438294 -0.5902679502307446
Ni 2.426416972076445 7.272280646870778 11.022916380346153 1.1522499090326026 0.11335273929224349 1.1443483947973387
Ni 3.1050435002981227 4.743921186523957 11.525854418747576 -1.442663724409328 -0.7039266507991813 0.47183882485685835
Ni 5.479965078696585 7.9631557223030045 2.4833589231964743 -1.012671917495243 1.6498365322775264 1.5264580333181648
Ni 3.3001098906715214 7.32989111854802 3.2782022789039456 -0.8455705237266341 -0.8169724003739672 0.4107656116946216
Ni 8.683833756826363 4.95213729349727 2.0200695792452925 0.5104573085600047 -0.20575201626127143 -0.18831196640795309
Ni 7.419281604609389 6.8529150346057115 2.3473448755233015 2.2761076400757574 1.4163888498731994 0.3208186529208281
Ni 2.5166902363151498 5.445389600084225 5.9355282744748665 -0.5099636567530379 0.9858959349529794 0.0019980042666352684
Ni 8.52406010233441 2.6395159458431507 0.008555591835356159 0.348767058504638 0.5495211073306859 -0.018828702670728864
Ni 0.1640891523942884 1.5143691807972848 4.3243744208204165 -1.5888713054480637 0.9250903736298326 -1.446652276743431
Ni 3.9406206319654786 0.42340983978999064 12.246836827829997 -0.5098487284417285 -1.671142235733838 0.49510268048080547
Ni 1.2444781442885755 7.606688055173187 9.064258736304259 -0.47330769609290096 0.012458280368010803 -1.4457233371712583
P 2.048817802326627 2.7182855069584355 12.923755732014888 -0.6584932010567306 0.2754798197747127 -1.5412655306446426
P 6.299643007565864 7.0349236644393365 0.45450937932908625 -0.8610151404164785 0.032847385547324075 0.5248346603275994
P 1.6956881401798654 7.531697888129626 5.417032190258483 1.2300332358606685 0.19269389752573263 0.4781627101923572
P 7.925821561886467 5.914089638614001 9.406836440550041 0.9848541239520266 0.34110028598799963 -0.18413752331528932
P 6.988283550736707 2.367555897981308 9.399851458221866 0.3678096769583859 -0.951952231017683 -1.4266709485254978
P 5.79524562649003 0.4203026445178853 4.474034747818254 -1.6617610516292542 -0.5007218264397957 -0.5563173043169128
P 6.1289357775233535 7.5047823493268675 7.2829328368773085 -1.7431457226553333 1.4790474052446851 0.0674912008734386
P 1.9362911715342224 5.9807853690330015 1.9520763488177266 1.522295417300043 -1.8551262641903987 -1.0729953969756487
Ni 1.482947795047702 4.662503290876662 3.6482362235861063 0.8931834976189069 -0.4193255854494908 0.762866362558183
Ni 0.11985001142189486 5.605181645788207 7.651081682326615 0.6219267147866063 1.1503380367218705 0.6969270795528965
Ni 5.658994332181698 2.2713882502876768 7.340549745478762 0.8203513441485291 2.844276444414618 1.8579192535545035
Ni 3.9481886157149395 8.246610277682255 8.769392433861729 1.7521278715492856 -1.6222974463169928 -0.1362430136268557
Ni 0.6172366624727124 0.6884014574144807 12.148360163466268 -0.0844082883437514 -0.3798475819595265 0.1483534237371445
Ni 6.083169246392046 3.6146455943778384 3.3868143402162225 2.0873958671262245 0.028564956121886288 1.7963788709478612
Ni 7.78854955531059 8.805151386968081 0.8781224420119846 -0.20021951647881647 0.5039670728499708 -0.7436270547125967
Ni 8.986507128774717 6.27948623918334 5.31279447872703 -0.1017192688183732 -0.8691513963703675 1.6204310825322157
Ni 8.63357976996026 3.961365919132894 4.368087573128814 -0.7794348084398254 -0.40732341878229206 -1.3153920610431475
Ni 2.3571556675795584 9.03948301502094 7.3298497383209575 -1.106886650406455 -0.5576815316542911 -0.6213330470666654
Ni 3.390778565968825 2.06180199801829 0.915581662670311 0.5814899469277984 -0.832885729170114 0.6696705578297887
Ni 1.6022331962603418 6.092806241494641 13.089916654444114 0.2965070727586571 -0.6585502795469109 0.06206334498964796
Ni 4.775039117275081 1.5133576641357531 2.8597985270279356 0.47743097423265524 -0.7385961771569086 -0.44680990691268857
Ni 1.0177972604393013 1.3413354624332512 1.262519923287897 -0.15013442689696727 -1.0965878395836082 0.1477993510058874
Ni 5.320835116625607 0.28795580452306585 0.8660716003307354 0.19178629810979875 0.870147698845366 -2.2573609555958734
Ni 1.3493540308773944 1.8627539102408612 8.367798249779176 0.08083445494956401 -0.05895102461291137 0.4632811650948344
Ni 4.417504759847648 5.423568427013181 7.593168675211515 0.7913125337140179 0.23157386242038183 -0.24047964955044387
Ni 0.7714432970838351 6.8801064415888895 3.4719132369508916 -0.8923116365369147 0.29480088870082777 0.597184731955236
Ni 1.8899820996480943 1.6304820979351204 5.913994923872058 0.7081666570224578 0.000546102311457124 -0.7184790946920594
Ni 7.499678787989138 0.652480661642284 10.704712549400881 2.28969283495936 1.4838597390316637 0.1799013737467547
Ni 7.020578519057612 5.788514442887837 6.462167067816583 -1.0234975473558372 0.5497537921667822 0.17585471448120682
Ni 7.182926943233465 1.7404063722255843 2.0400828961739994 -0.6373350789218766 -0.48144138094362887 0.05192522811438154
Ni 6.785805501916085 4.889938214419078 0.2044891278558681 -1.8044063692380279 -2.2059044395877945 -0.011978769628430983
Ni 4.344887059155679 6.0822864682147095 9.90245293744318 0.5276057953148333 0.1920909738344111 0.7187215497201687
P 1.9362911715342224 8.289038803830506 12.940270120855297 -0.45971067413475664 0.03861719815156575 -0.5093031403509035
P 5.008248881394241 8.004085364670987 11.121232121604637 -3.6862384248543867 -0.2903099428090097 -2.286746350736526
P 5.220676575921932 3.389583137187015 1.493485039979059 1.069312805917739 -0.4918720893586497 -1.368639350403062
P 0.6446276141063918 0.27679325838276186 9.830569965671724 -1.9395404660714208 1.1073401930041058 1.0101532648384475
P 3.6710238548492145 1.5828028807529175 8.53401250672328 0.13207705517462415 0.4962581342414873 -0.6065196362029167
P 5.228980208152506 4.198272316869653 11.227017453628232 -0.6210034316413886 0.003532438633290691 -0.22055411427111046
P 3.1471593758419005 0.005007927035183754 1.948630755244309 0.38631004975541855 2.93731232652638 1.2895095368494307
P 2.6836824415280343 3.484913984733379 5.038398514832098 -0.28766890564173686 -0.07119564630821933 -0.5176977921725019
Ni 4.024714448962826 7.338636139867263 6.399167051454579 0.05663677465743794 0.4438968470309516 -0.6611131551780808
Ni 5.1938621887853245 2.631515768611036 12.850109962570562 2.1444067372936293 -0.14408924914415186 0.5771735789406318
Ni 0.8821648304157063 5.422133912475008 10.46067955700333 -1.3597443619062775 -0.8605790813203243 0.6580967369492602
Ni 6.246823446621877 4.299166506054442 8.919887721885631 0.020075430593636392 1.0081542321305477 0.4186894945273886
Ni 1.0160408996906416 3.7256549501779457 6.872630413899567 0.5301897539919257 -0.5204015642569102 -1.1168550744730765
Ni 1.1675936824061455 2.612370516890043 10.761414495203947 0.15991001822649234 0.4949049626477025 0.25644285774791964
Ni 3.4234965321663715 7.456588178207884 0.975582991911174 0.5462349803802463 -1.8170042605076966 -2.1505550162832128
Ni 4.675836919596853 0.458144402386391 6.802241728105375 -0.42541935705205447 -2.123587486555433 -0.25976163770850746
Ni 0.7873222695486815 7.654643140535809 1.4098123817371493 0.08531100266367887 2.0665043683891957 -2.6423399452446943
Ni 4.646760413380822 5.847154822438639 4.327603917652507 0.6042190130941981 -0.8096355003929218 3.255102991254162
Ni 7.901398032313481 3.675281420433662 6.422114686262329 -0.8837647754081682 0.19769932116012404 2.2157687339763843
Ni 3.3983833321423416 9.073184911061977 4.848954317975613 0.9671510502453087 0.7292723286528214 0.4633714108157956
Ni 9.114381226004364 8.802254771073693 5.795343099913777 0.34974073527181704 0.18024821556321216 0.2821441191687657
Ni 6.623181209559814 5.886098213907612 11.200477095550843 1.0044749835067475 -0.45230486858898883 -0.9892036591699738
Ni 3.6895805877853163 4.589398223065955 0.5024911319491474 -0.6996678755228273 -0.026196970110341982 0.29197010412025204
Ni 3.3677251816919145 3.826273271182317 9.288534969180892 -0.19870745070966425 0.6099754559620011 1.2201440017714147
Ni 8.81452170949627 3.67970450692636 8.886348588071042 -1.0339974184458967 -0.6714703300426887 0.9049473230230544
Ni 7.556774305729601 3.484316270342474 11.26607487061178 -0.7588284450433834 -0.8455139594570857 -0.259528695762095
Ni 5.283933149691724 1.0953621971667618 10.030539453171746 -0.550695073034129 -0.1858550202270283 -0.5595095860019654
Ni 5.376652445130134 5.712908170241342 2.3215714309874715 0.12108687471170759 -1.3169833167896672 -2.7379764982040973
Ni 3.8342182747783484 3.885152736489481 2.996040625730254 -1.8523939528609001 0.811181761834119 0.9312671918645059
Ni 6.792582663548347 7.784246011696072 4.809452753221595 0.3462064968663134 -0.8912513135932005 0.3164917434107001
Ni 6.392592193154622 8.267180848335405 9.410914691817219 0.1279064687367023 -1.7749716089166787 -0.4934126943728922
Ni 3.724091697155578 2.4061498564217527 11.139495514708894 -1.3453202160611475 0.8445528810953973 -0.2788572208873778
P 8.712468873953727 8.840269406335262 2.8430156264919204 -0.6527614407792758 0.07900202972651556 0.5467792829194905
P 8.929154134065865 2.8497550861395267 2.362849586823381 0.8217317694358236 -0.023520451719443364 0.8754331156140213
P 7.077379777405629 1.1329814213697305 12.816665543497917 -0.5137794309547024 0.20344239429148833 0.4289404828314355
P 2.2633972686615755 5.779511944600203 8.894692680968078 1.7789578472579364 -1.0715301252840321 -1.0788415713437807
P 5.6800154875295314 4.110068063984081 6.178969069845121 -1.0038712884844774 -0.5188087658484936 -0.23201223550938108
P 8.97763336897128 1.8421557527696686 6.58178810864873 0.3349376088207135 -1.3307716288230114 0.4893518940399572
P 8.829381808814773 4.644139665666853 12.492148929024085 1.134750980916891 0.49951855016031393 0.1511386997917655
P 7.168876057244187 5.5828547143863965 3.9924553435053745 -0.5231436457784215 -0.33769820228498615 0.6997344670947047
