# total energy = -381176.91468429874 ev
CRYSTAL
PRIMVEC
9.14611993628344 0.00000000000000 0.00000000000000
0.00000000000000 9.14611993628344 0.00000000000000
0.00000000000000 0.00000000000000 13.38627103071956
PRIMCOORD
 96 1
Ni 6.819502561472702 4.971602182960588 3.330664781033348 -1.2858701403246304 0.11152262806204019 -0.3265560696252376
Ni 3.525518294728576 5.338425618092815 9.010392500990058 2.070998399604808 0.3301864672889733 -0.38255598202962504
Ni 7.87843118979629 3.399210377427954 7.7713859158430125 -0.39682817567792306 -0.07150983511452846 -0.5052878485439233
Ni 4.547231360742516 4.195087448221983 11.921800055501407 -0.6125023361489129 -1.7251022348900613 0.6515334819094457
Ni 3.123335959648181 2.2480339827108784 12.507716966184173 2.4037369438916727 2.24344845927984 -0.20645701274809602
Ni 0.7420649591191602 5.75685146230615 3.1234319939082575 -1.6405530500930712 0.6907443477809523 0.3604473230560437
Ni 5.012622531193266 6.054996682303665 11.013514425981828 2.422096163125151 1.443676996165191 -0.5289358269801665
Ni 1.9434041636281976 0.7960599931941749 0.0342055742152496 -2.983153810340527 -2.61610260881472 1.0019977256108485
Ni 4.170676453922536 8.117291259906576 3.633850427766878 -2.900905762872888 0.32007560410721647 -0.5295588052761461
Ni 2.236711086141858 4.951517303424588 1.6879951039767278 1.1185232062041188 -1.1880419790305476 -1.2602529539771585
Ni 5.944831666815903 2.2197541796483495 7.052637160458428 -0.580893193884064 -0.8916390359499224 0.21391141214361226
Ni 9.000495484530173 3.7206324728440126 9.755941217219993 1.2463250310421568 -0.5709761918806683 0.32418705517242874
Ni 0.5042274252256888 1.6811757568992953 4.825603583896279 0.9815088616288773 -2.610583478768704 0.4030996105089316
Ni 8.00383364121619 5.7101056429489105 8.669940073674839 0.01794347185229813 -0.46764458426985267 0.5482448117214236
Ni 3.1545425211130413 7.48765406636498 5.479777073581421 -0.2907629711860283 0.004144618295992861 -0.2522059368484366
Ni 2.6529601537934595 0.4386030995614097 11.045226767883092 -0.7509837521879842 0.056481994247128534 -0.03791400143695406
Ni 3.7491409289067232 3.035460038618175 7.874031906072785 0.3304224945591793 0.5571475135276921 -0.6240658726167961
Ni 6.364958689350593 2.0578495632793694 9.42183345335383 0.0013999656713201698 -0.11639024056698664 0.19940859054174692
Ni 6.325538912119191 2.9991682344292636 2.3835593597548432 1.3712793591290706 -0.8333521272835712 -0.4769182962622947
Ni 6.352016929540284 7.2943325277709725 9.111833947214869 -0.16901249474839278 0.3947029018048041 0.019738616079507942
Ni 5.109607987750529 1.439114544786459 11.432785371683838 0.5777032261918567 -0.1216013524542809 0.11279352435466379
Ni 3.221638457486493 0.38769122254085114 6.740174604201507 1.554083251234601 0.7182893472787566 -2.1466957904381223
Ni 6.081255192844584 4.557621353070792 9.406706685473777 -0.5602438930648287 -0.8268747470893436 0.4614104304346827
Ni 2.8930000733846857 6.610358235266089 11.021974586988568 -0.8624732130192436 0.445343092559175 -0.8524713646115255
P 0.0952595837118878 0.37496988422271676 12.140223120455412 -0.7272668681870185 -0.6704927966207679 -0.09661048683689813
Ni 3.968757562521679 8.914201842261429 12.863671152299741 1.1441938714973456 -0.8279769790145869 0.040595404923859116
P 2.5498010662312787 8.365645002584424 9.357030449266203 0.4141103597971384 -1.4550374154833328 -0.09588389308351873
Ni 5.243059024776841 6.3543034595421055 5.265931641691063 -0.27383482797212194 0.005879084488596326 -1.3923179249669246
P 4.278829323008695 2.787225195500421 10.035794197202936 -0.47454953891980217 1.0778159582927436 -0.28164763914832136
P 5.914997023352136 7.79791789537215 12.506337731287074 -1.19474484497202 -0.411824134866123 -0.6905671987731397
P 6.645717135214258 0.24240236238910792 8.132989660287082 -0.2661261464739546 -0.5405322735685143 0.08274298482618654
Ni 2.3273308431740496 3.166286139202397 5.574926903853221 0.1815617921683131 -0.19165671451046992 1.0155662083239025
Ni 8.632537930517042 1.6000771107946887 0.6528537045680907 0.0643966211085149 0.9162267525916157 -1.4896961432077829
Ni 4.841946785737298 3.708568740554402 4.153706742861018 -1.197824512338608 0.42093303914592667 -0.06390142663965125
Ni 8.636278693600023 3.8678575666012978 1.874734180001492 -0.23356338204658486 0.1505925974803084 1.4622894690600559
Ni 1.5520691268764435 3.3238006179678794 3.381412027893775 -1.3893385306236266 0.7351478135969919 0.20720468954739799
Ni 0.2969498221125627 6.00466558390357 0.4811279845352868 1.2813133741918836 -0.25520795689955406 0.6819468040939803
Ni 3.3982317425871744 0.17514636891552898 1.6361100797873942 0.11483189494093127 0.6693555976925312 1.1047922297712716
Ni 8.506760488176843 8.001135535814042 8.065094353024993 0.5530064947761251 0.304110853247844 0.8567977599010211
Ni 0.7940460175685705 8.221712512029761 6.067608267181712 -0.7040616337151488 -1.2606622736004354 -1.253785343974944
Ni 6.237772744529272 7.832563397959749 3.560346719716322 2.5320699586428326 -1.1404526592873585 0.2112906866913135
Ni 6.4350636992064425 3.497531167506281 13.098613939210907 -0.6917609619709247 -0.949336647771707 0.47206842436916124
Ni 3.897134296744621 6.4356399047669015 13.11704611486159 0.14858225191849894 -0.6455911482830817 0.5731459458384773
Ni 1.398423456874043 0.23918109892254172 7.847862112895937 -1.013621683003022 0.28934835022668876 1.4936443292222537
Ni 6.573133526836434 4.45349277678784 5.760232782872843 -0.30574941729253147 -0.11897574190597575 1.0975517461587743
Ni 7.967157699986973 6.283402737245623 4.592588799082649 1.3625162682244598 0.9305868779680296 0.8520851849167002
Ni 7.692234478687957 0.04484068255972198 1.9744076812288962 -0.07529578451952193 -0.9915317930825182 1.560611539271422
Ni 7.2962166284924725 8.916872509303555 10.798985778926927 -0.7898536897803042 0.30971791502197626 0.2745843045436368
Ni 7.684615760721888 6.585800903046525 1.8791782797130325 0.29746866534097804 0.9177275055068581 1.8566385870698672
Ni 3.4762390001293184 5.146018691499535 6.322335940892638 0.7563365318594653 -0.1609572285440841 0.9671646770920633
Ni 4.636854190693913 4.436590747014375 1.1918345565974655 0.23353998500781714 0.39610852390307916 0.2025949586895285
Ni 4.774786826523796 8.314115762463373 10.51867732216762 -0.3276253914300164 0.47310586449474 0.2419145822247576
Ni 5.362525644312013 7.646970330771898 1.4858759125477115 -0.08891543218548557 0.0035262679857036043 -1.5703318518829794
Ni 7.0331193403628784 6.9710354777534205 6.6235002951045585 -0.11723381951420454 -0.09200049886871252 -0.03312069381336876
Ni 8.001135535814042 7.651122669255207 13.006730188393709 1.4346004877852194 2.9579536569258154 1.033816155673026
Ni 1.0734801052551795 5.172798530880868 5.568809064180347 -0.24085888726673357 1.147777732193862 -0.20518817333800143
P 0.4629491564088048 7.708953586061277 1.9638466564564827 0.0846132052657059 0.4778783461827189 0.27325992930525844
Ni 2.7462414317477712 7.171372090393017 1.7192391645336182 -0.5575059253083754 0.20499199816679534 0.2844838230455359
P 4.674810588724151 6.043774393054725 2.884768565378128 0.6108694285311802 -0.5736550242644121 -0.39947589771341524
Ni 2.467476840045696 7.082737041402407 7.483581299125736 -1.6515566002924265 -0.13709790542798325 1.889911490190384
P 8.374269793751296 2.0804679180573884 3.2524352727750268 -1.2868353324513775 0.2536714656503696 -1.213004562513156
P 5.506952025347069 5.4026862572640075 7.5167259234201405 -0.24055266888022442 0.75449459355472 -0.8030766162284814
P 2.272115716690063 4.360229791073542 12.861462364317982 0.16621513450891376 1.15607545342628 0.2847303918387032
Ni 0.9898205455485327 0.8990068907721868 2.494598744315302 0.05689414208388265 -0.44344998930152013 -0.6685241029301713
Ni 5.199093625901816 1.0002928529568755 2.962074315515713 0.5624393580542507 -0.6135850276901303 0.284993929912735
Ni 6.717248939791243 5.838169615290931 0.05043719339218039 -1.4982905697450133 -1.331830409104829 -0.9353295348593375
Ni 5.406673965587184 8.998254685128387 5.64888608868014 0.412372036949793 0.6296827045829414 -0.3036465120169157
Ni 1.486098163263888 7.685100505082274 12.424240328877671 -0.03617979235466672 0.14107694468038928 1.9002061872481728
Ni 1.730006891618196 4.26054622911413 7.98076072427381 -1.5637742532701198 -0.9163632781694799 -0.646663555411654
Ni 8.217697365346563 0.8584923229759112 6.509382326549647 -0.7408170960676274 0.6754930780488366 1.6539304998412419
Ni 2.4601873823998885 3.9983909913452864 10.737008011309554 -0.35451604517327334 1.0742025299098725 -0.31346401232796983
Ni 0.4041624700619728 8.046747236290377 10.441331329102004 -0.12522249414663594 0.8821902318321968 -0.7008531540801801
Ni 4.696980783621813 7.564554643386242 7.437452842868988 0.575262477960848 0.10627500650985569 0.4649333559862767
Ni 6.37232131595646 0.7690880852926879 0.033791254978919535 0.04242165949932048 -0.5509257009876964 -0.08317775837075997
Ni 8.674262529990282 3.939005234137977 13.025136754908372 0.12780362461025088 -1.1670100980609128 0.06429763363680539
Ni 0.39836382997735337 5.339605467573754 11.599752365476851 2.2722353016045447 0.8342682113399373 -1.2038879449238686
Ni 2.910743546198821 5.503961244104687 3.9984787940973563 0.46225529493348133 -0.13874469700278685 -0.21812390756306305
Ni 3.300917025709649 2.4271424508135637 2.326855244933671 1.3187720332589739 0.5482196149104429 -0.4477493880078224
Ni 0.8847526627408312 2.307181940797998 11.720322921696901 -0.09177064224609356 0.36680540406358764 -0.19973177820912055
Ni 8.614565804702725 1.0745684935360464 9.062906778235893 -0.49091666742391576 0.35654413134689567 1.1605399169555368
Ni 4.03214932029218 0.9156820967694709 8.848044297800724 0.7293561466158794 -1.066721391041479 1.0042433271119156
Ni 7.638190055564904 6.487077683687879 11.13008172547469 -1.1841254175849607 -0.5504605884258198 -1.5111273164983652
Ni 1.290663870948197 6.149832800659216 9.419584422444037 -0.6492354299038883 -0.44491860342724665 -0.18613912712635042
Ni 1.616677318607913 8.11174871118216 3.861738812316424 -0.41572038459673566 -0.19685419955100936 -0.8487298952912221
Ni 1.8769027250552197 2.1662859620857544 9.479929607640111 -0.24728613094931606 -0.4749087220314337 -1.2022437244522262
Ni 2.6711975170879882 1.0829006088626842 4.2406900025783125 1.7734811404140811 -0.443003645792721 0.3638074977775283
Ni 1.5635200691255657 2.863577005321246 0.8894857798446018 -1.1294753343402484 0.5386741373138529 -0.15918368158342908
Ni 7.631970693959949 2.0391274556244547 11.592403458050995 0.28217137286227534 -0.16265569929242954 -0.3351607805751131
P 5.001162442824136 2.1524478825147306 0.9152677775331408 -1.107154816466177 -0.12077937077361779 -0.3223952533793287
Ni 7.86296510086397 8.770004114226554 4.674431939355848 0.8579226175340838 0.47049953722014454 -0.3037637543210704
P 0.41451770713422226 6.073105999918091 7.389596684542863 0.47260475648860545 0.7564275489113746 -1.2392056463885561
Ni 8.657589153217 3.4562821662734198 5.497794929995775 -0.36118805787681024 1.1096595851659017 0.03305924444781403
P 4.229303083169241 2.1380610357432692 5.571606862290577 0.7036433152308075 -0.8403892366360106 0.4636840569602078
P 7.52017766911089 4.263601033196564 11.131219502803598 -0.897668529973454 0.23148130270657552 0.7179170515410023
P 0.5437505536131746 2.210489160080969 7.583683753381481 0.7398971553565193 1.5970625830096044 -0.5287468508978119
Ni 6.539576412529701 2.092632257667079 4.838146572874272 0.9104222300946965 -0.26194476140275536 -1.3534868110323401
