# total energy = -340889.28531668964 ev
CRYSTAL
PRIMVEC
9.07446131179863 0.00000000000000 0.00000000000000

0.00000000000000 9.07446131179863 0.00000000000000

0.00000000000000 0.00000000000000 13.28139139042318

PRIMCOORD
 96 1
Ni 6.585518182084763 1.7277502415730484 11.441201718795527 -2.1874922556291936 0.8944361390790854 -0.7313060712533985
Ni 4.826406601651982 0.2917330470873155 6.028264577328598 -0.9083854021703258 0.14007190045464266 -0.24068019559702422
Ni 2.7429646936191747 1.6331671296126922 4.912281860380336 1.606451480423672 -1.662304068616918 0.67450397466269
Ni 3.393667102651242 4.245532173674787 4.996273260906352 -1.2383353279684608 -0.009407666467145089 -0.9605669692698877
Ni 5.07729731252984 4.408954150389174 2.6340983792961974 -0.2641214573391 -0.20675474649417294 -0.12064618762986318
Ni 7.638273681255516 6.302603696659451 2.6700377839703786 -1.293202669430302 -0.9841203311097955 0.3573414304372104
Ni 5.239321822176982 4.796351985244739 11.632785379253344 -0.1480657172933966 -1.1078287026047502 -0.18470290890045607
Ni 5.76818143697594 7.989963510204528 12.077300596974885 -0.26867899480279533 0.8191123295351055 1.1485117821464093
Ni 1.729937186788672 6.635572911584266 0.4356721550135522 -0.28796921049097507 -2.068330365854341 -1.0525427855482516
Ni 2.5591614764305524 1.4944095391890329 0.42525830302413414 1.0336672887999874 -0.5010103042144919 -0.3018544531134995
Ni 0.632310290513287 9.362394138238319 4.82305812536748 -0.21055123742212767 -1.2512301816532578 -0.738990841492166
Ni 8.731292565993582 2.299767995150041 1.2553210729063617 -1.2315039068689242 1.556562823123345 -0.11722327799124328
Ni 6.902017249431331 0.6640609237703233 4.894883395393135 0.07404160039744667 -0.13150781293471545 -0.9230563739189392
Ni 0.9885264608463369 7.11201843690006 2.7756381996082813 0.08088973366753166 1.401831777994631 -0.293409664780256
Ni 7.739517447938975 3.7616455899489867 3.82456246114403 -0.12654969759849174 0.526755531499396 0.14654131022907022
Ni 7.552066297237155 4.070721747808501 12.852960155418494 0.37084460712996775 -0.6131222291210989 -0.5516813482067983
Ni 8.13171567291514 8.90187429281223 6.909218742058381 -0.5990546952844393 -0.7691411398233012 -0.1013793689804512
Ni 6.859920822645945 0.9433174937748131 0.39890697434509 -0.8724202969296264 -1.1953421122363863 0.7725583930349662
Ni 1.7936036085016007 6.742533588997363 9.117860995070275 1.2474077225833742 -0.27290074619362675 0.22691193816833824
Ni 9.357040205967703 4.783620515794447 1.4825483105942538 -1.646138771710965 0.08858041744357002 -0.3716599039424115
Ni 6.52548154496208 1.939466502260668 6.919711541862637 0.43393022273654297 0.5981710071279053 1.076700613741378
Ni 3.4502645188746657 4.434444312674182 0.4308082436626215 -0.2917271348715105 0.5473837492727089 0.6124719971316097
Ni 5.711692914290224 5.537535849650183 4.673987409476781 1.9562917173878307 0.6891291807750325 0.308903646650797
Ni 5.0536401914629066 2.6680550141379564 9.54350314781483 0.5285442479687026 0.8337557904798931 -0.18861921323572675
P 0.10633000234054209 5.571047835879637 12.455448833248353 0.8493649577720598 -0.1362648680037266 -0.5208075414460773
P 4.081928707730889 6.317984908860622 12.51865427231832 -0.3121198395952496 0.427052007559471 1.6480552720073873
P 2.24026675125442 8.395682682779364 1.2958321912719588 0.09860000646310114 2.5992284587672008 1.0246218907682674
P 6.436805907422351 7.737947566103693 5.709976026179038 0.04098852659721973 -0.726956021814819 0.02248763957955482
P 4.490460963363166 1.277239527154567 12.667804843470003 1.4191183329892205 -0.08343564001783695 -0.6784884132317347
P 3.986982617311508 6.242077038617086 8.19649099382039 0.22906883661034097 0.02530813974748545 0.05092558320527358
P 4.701832394514712 1.0060129481098508 3.8576198168535547 0.6396488146567176 0.14912398335458188 -0.08824900224608027
P 0.20663274736897938 5.368487706820915 3.7757672668973417 0.43747577399595616 -0.2331826016683984 -0.10167530295431522
Ni 1.0970025733258624 1.0089167757820483 2.4189664913091553 2.1070568358902615 -0.8604561825892147 0.9031089842627349
Ni 1.796198904483627 6.230724887311089 5.01194576332089 0.8207868890240508 -0.5259170947585008 -1.2366718242231087
Ni 5.734769269822718 5.196599257549777 9.252879907365982 -0.9587527988792843 1.2026201339550384 0.09426281254032798
Ni 8.677136179907102 2.316573897802883 10.069220276604781 -0.36126159142722297 0.2639934164016679 0.7804599072702301
Ni 2.4332896213022694 5.151208801248742 7.134351594037701 -1.4935170596157696 0.36984599066212437 -0.2507874592343552
Ni 0.44103062451490405 8.929487879082533 9.155885710991555 -0.3665647488076913 1.6400941081787819 -2.000968234359599
Ni 1.5025674800556126 1.3108967047676305 11.423789642116114 -0.48938403282947335 -0.1143403000164934 0.6716114836062433
Ni 3.81155512806488 6.904113450032199 1.5712148736725073 1.4392685826848504 -1.0246416882626097 -0.8333259020313261
Ni 5.514223558119323 7.855479991135885 7.927888749034422 1.8407957065003393 -0.34876782983558646 0.499764604732849
Ni 5.146789538510116 2.7604239574982614 5.224221918281556 0.3218391237655425 -0.3205474015373125 -1.144852331016951
Ni 0.9647150739343179 7.453499496689003 6.783922207787652 -0.18059042939397932 0.5091352473144716 1.3309888870401398
Ni 4.821070818304318 4.702041107128651 6.7476379735773975 1.2164182161803954 0.15223218996626042 1.8101597267820375
Ni 8.4495214627142 7.010992457292017 9.532200906046949 -1.0385343870843018 -0.41854294164719535 -0.48571404017705383
Ni 4.689237041986555 0.29670312963751094 10.278721461246203 -0.5346624450512986 -0.3029433153023041 0.2865391629126678
Ni 8.546028360507387 7.153298162152642 4.89825728016977 -1.0911185889389208 0.4295228376974667 -0.09544089200882917
Ni 7.395014592478652 6.12704009049069 6.951666350502874 -0.9058477233501366 1.2344935856248676 0.17062354798925453
Ni 2.196482474634568 4.9163435893368215 2.7329918604574717 1.547493513832225 0.59123854167413 0.45391566471953443
Ni 2.4451045701435223 5.163495622086726 11.591639956030601 -0.9280746530691372 1.1267957306255563 -0.5466373580249876
Ni 1.3289185852582057 3.030253069475733 3.9768600555354574 -1.7187912050703686 1.0548374951196993 -0.6153282356334822
Ni 3.5533231778532475 2.489487761220765 2.7070534197755682 0.024965668806402164 0.5795544204679826 -0.0019728074556546672
Ni 0.9646424782425129 3.363440071475962 8.457218420937819 0.16060550163162018 0.5847799305329799 -1.4524933089052405
Ni 3.394447506338145 2.69928931053703 7.317090376895234 0.7628175115981185 0.05668228318339271 -0.2258027642645595
Ni 4.051438517172815 7.027380934716981 5.702498669923129 1.2267635639704615 -0.9072533454484116 0.4306646646113938
Ni 1.1192985251714533 7.502084163429457 11.579221555501219 -0.9563878981915336 -0.5345349183344987 0.05984345452019371
P 0.2875506277932036 5.722854501905233 8.00150713264766 -0.7604299852025485 -1.0577248439698237 -0.7057978996799651
P 8.74771734126445 1.5966877944807119 7.915842401425541 -2.905531434570357 0.690997601442339 1.637097744554619
P 1.8816712571224634 3.3007355426794485 10.446186110547977 -2.1865558598578536 -0.23908585452671083 0.8492202046640795
P 3.9084976000088965 6.006504018710069 3.6628619097715673 -0.6942958125776365 0.4206047092722304 -0.2260367346522365
P 6.929449346472122 3.7912827811283516 10.594632503489152 0.12093235141171431 0.18206572838792515 -1.3393951088259641
P 6.619910391077351 7.925525759266173 10.00908291295972 -1.3063163239941245 -0.04467034632418113 0.2407375311975209
P 2.4876093476953125 8.34724320742252 5.515535725248697 -0.9574932154405703 2.0922704216097068 0.22476352436676775
P 7.097081873311194 4.108970602928227 1.7777804700265674 -0.7081882542890127 -0.01719039573635749 -0.8643246644056857
Ni 5.3351844332053995 3.0725582088750594 0.5194775290793178 0.3399445751170016 -0.9851816824947742 -0.1003594123563691
Ni 1.372131170805094 1.1284909546462534 6.923868552664617 2.043904114491177 -1.0791411048620707 0.4426742874777602
Ni 6.844367195676737 0.8433132985289236 9.095508781563536 0.25733683031709875 -0.1946268528823874 -0.267220665089714
Ni 2.6135628729768765 1.5601177147339755 9.386504074932885 0.8588829245648241 -0.444593358877344 -1.534040730761429
Ni 6.386451720694153 1.9841219271821795 2.6649905684976405 -0.03937207403971929 0.36038355969764385 -0.050913756130731666
Ni 3.91722723194844 6.917461982862831 10.430979128007138 0.23653840551450878 0.38032863536100303 -0.6951000536464869
Ni 8.344067145906054 6.956064741980106 13.855147310570224 -0.6691208559739058 1.3741222278945044 -0.6129481654370799
Ni 7.4703507716492235 4.157165067825229 8.253136504689634 1.4774931733836876 -1.4049662098585545 0.008092290089831224
Ni 3.3403001947131385 8.433423368056456 12.494801142883514 -0.6357011428628794 0.04798886917445284 -0.014151351799717564
Ni 0.22749584174757037 4.990264152517198 10.17561833740639 -0.16765520938954998 -1.4340186471398206 1.1674731537402605
Ni 8.705049223406098 2.295847827792574 5.66055560153668 -0.8307956794103046 0.18081848624438537 0.40240566976570047
Ni 3.610719146686525 3.055108019457448 11.562115288173533 0.953685668769022 -1.5529571080499578 0.9710699256837406
Ni 1.2258599262796235 3.505473542492319 12.866122661788875 -1.0239919704937526 0.009708228426699411 -1.755833859645963
Ni 3.281915109579019 8.406889642701751 7.874483728358121 -1.9786945105630633 0.09961944886655101 0.07138719349373514
Ni 5.788598975296079 8.01977311615193 3.3542549015703425 0.18715625553695509 -0.32303288696332755 0.48460023828758475
Ni 3.3651551446948536 8.3086948950741 3.322738389419377 -1.4038248971652596 0.634216587897553 1.7922195973638488
Ni 3.210771331610182 4.377973938911417 9.249467002405003 1.43714073770857 0.39187186011391223 0.09012873576729638
Ni 7.15098417447636 6.248701395494286 11.52373213102397 1.278830716979346 -0.70835511888418 -0.26458451301844754
Ni 0.5385792704854916 0.2577863941531799 0.11098973830827141 -0.5862097210009711 -1.920887369746608 0.3185134018264192
Ni 4.700743459137638 0.5232379859148135 1.6144855357728396 -0.22825945333516817 -0.633365038530535 -0.8050139424605104
Ni 5.851022195786848 5.63236397207038 0.6066223049681104 0.37297168077529963 1.3228438893355023 -0.17786377449143562
Ni 8.226171742414838 9.012065478510648 11.099298696547969 -0.23419021699730633 -0.6421080748304877 1.065739229633868
Ni -0.1199598434769188 4.67003548150415 5.886445263603066 1.0902472420775613 0.8686145500302911 0.33589251653481506
Ni 8.125045943730564 8.800485334745163 2.586032771752149 -0.8217356260905654 -0.6104503387158905 -0.6176358007207362
P 8.371317753717332 1.6382306791160866 3.5452414624630633 0.6764027343472995 -0.19711696629409275 0.09773225914616718
P 1.8011354115263627 3.1088288313931 1.5642293532285776 -0.0366472189093885 0.20177529100171057 1.182696141337602
P 4.653710525309514 1.0250420938242197 8.148864590211762 0.6884318975976917 0.6612697353606031 -0.08098383604323472
P 8.403368751649213 1.701007803604405 12.410013004639938 1.9217484321953227 0.9572697865758546 -0.0681324340018633
P 6.271342176875951 7.956315407052941 1.1719975527449515 0.951532112761129 -0.62221802077478 0.2636406610479395
P 1.5417510047073266 3.2363613129714217 6.287835918054032 1.6678383681715858 -0.04461403916494897 -1.58875200626138
P 6.882225848953011 4.092763614732775 5.9559601757370295 -0.9380045105883393 -0.9077086878182754 0.8085826336483752
P 2.1770631270767478 8.626092334106756 10.149998410322281 2.946654686973228 0.4056984815843594 0.9094781210138724
