# total energy = -340862.26282962493 ev
CRYSTAL
PRIMVEC
9.25545560268621 0.00000000000000 0.00000000000000

0.00000000000000 9.25545560268621 0.00000000000000

0.00000000000000 0.00000000000000 13.54629483032349

PRIMCOORD
 96 1
Ni 9.106164930975226 0.26912365408788347 13.133186746447818 0.7709000314959369 2.137026642779474 0.06490055732812694
Ni 7.897309897653065 2.6653490320494795 6.1048141750133516 -1.0491970090044704 -0.7779556527911375 -0.2855472313130437
Ni 0.052414569628717 5.869143439020864 8.13581002636959 2.471972222019988 1.3593039319347493 1.802664961066889
Ni 4.470690401276343 0.42557417044393947 1.3174964946699812 -0.38717753996203647 -1.0652427496134234 -0.24622940755002753
Ni 0.1879394268098394 2.575543348041173 4.4712929314246415 1.4888096268377715 -0.7349367260274504 -0.9305848210855007
Ni 2.914598446698938 6.078881314452404 7.065665577986529 -2.22588165404067 -1.099626626409932 -1.963413930254909
Ni 4.9717252253622615 3.4542840526480627 3.8571046114702336 0.7755298169584643 -0.6134708707097694 -0.17020008729859074
Ni 8.500737825128027 4.853162841342225 1.4361782740650255 3.793984873703447 0.6842561689534474 -1.4495848770091937
Ni 9.134412580938468 3.4032679823343672 11.43628321854938 0.31698436677640246 -0.6422533421591003 0.27242072123341465
Ni 5.226722277831896 4.454539631556205 1.3937244255668597 -2.2354968085329308 1.2316869694140078 -0.278675701004191
Ni 1.4060795330163793 6.048245756988992 12.697511171950836 2.2572131171641 0.15225790099787326 2.384277035394849
Ni 3.225313340839189 0.9239684130965314 3.9608416069872803 -0.5880722281310066 0.31272327750720336 0.22237856907435896
Ni 1.0086039997033085 -0.0369672145210324 9.309189824585554 0.5628286230728695 0.8801680591958454 0.7375381682060395
Ni 2.925269986806284 3.1867551135302534 5.281659884610017 -0.4793672720234195 0.3749447453412704 -0.12458820299674672
Ni 3.5457649740886588 8.7364927857649 5.77016652422993 0.12073694757145659 -0.6148662083953992 0.8965413583475462
Ni 6.936204895201186 4.089254572218286 10.296267486056715 1.6602219892769083 1.8348993956205626 -1.0766052258140941
Ni 1.5770925829412974 6.464435821175482 2.0239515242307387 -1.4221776886408346 0.3013510311145197 -0.9803760335760149
Ni 1.1814866516244833 2.5635575332631912 0.29958706008035385 -1.2138399139302578 1.764155749248097 -0.9440892833298385
Ni 6.95106915661697 2.54171465845544 12.001054810887883 1.3914198386326875 -0.11993939137082568 -2.636457775432304
Ni 2.3935810943460982 3.5695422390806546 11.89130269488882 -0.7696113945915004 0.17989417465790308 -0.5702974206460888
Ni 2.627207300234759 8.250294456728485 11.324377358072454 1.6711075258411607 -1.2891398122148379 -1.067453384111497
Ni 2.3902028531152384 0.6346243655372528 12.679968381734476 -1.1181308558617065 1.6533160061856946 -0.32169488487819436
Ni 1.9074660644085246 2.9553317060332223 2.8284801361327534 -0.17802883931439017 0.6852136477707101 -0.3734771596568084
Ni 7.707045500439959 7.147321833491351 0.14423979401119782 2.5663422495621413 0.49839780629230934 1.4544789718767015
P 8.268009398415787 8.69041912864923 9.345466582131731 -1.093774024283897 0.06823090725294055 1.469054041477399
P 4.766994551316736 5.101681075012951 4.991362525141755 -1.1979255566928466 0.7840864482792239 2.0345920930616317
P 3.9168161821576075 2.312188619320947 2.5446578932812307 0.09048200534165708 -0.9145483364479282 -2.687860812494629
P 1.079075037324585 8.999505062634329 3.430056972522314 -0.9582496339906206 0.5797035444513371 0.46143922679008914
P 6.9969947264458074 5.7024526867803615 2.3722676315887727 -1.5778464150924696 1.0623633711830993 1.1062778131778626
P 1.58027645960819 7.762578233002037 6.974607630858948 0.6416455333717723 1.8356439870960708 0.4569050863651615
P 6.527632070831126 8.276385585577234 5.40306184235506 0.6997979733427884 0.3271749341561591 0.255591822601534
P 3.3540844921952204 4.9803605652756655 8.758207935287759 -1.586256750643352 -0.6527105329366824 2.4098037189110437
Ni 5.772377652531444 7.319556603532636 12.761246089112333 -1.7642107708557488 -1.2174325163775226 1.1216635516053135
Ni 8.148789877060432 3.2104120576016983 8.350423675720082 -3.523788670925177 2.5139778770278123 -0.857947300124432
Ni 9.356247336613116 6.68515066674346 6.050154231898041 -0.8240596462380517 -0.8851012348314047 -1.768935687135244
Ni 4.7070562219714 0.056297233180348925 12.489697505702573 0.8235189432432335 1.6738164401318913 -1.1245971803123407
Ni 6.070736513676633 2.167553617363015 0.2715865307770116 -1.2282766581808782 -1.536206113843864 4.325904208791969
Ni 8.223833109662653 4.449976692030688 4.206923804789615 -1.5495046307249831 1.7965470210946093 -0.37784032172151055
Ni 1.3009560702763663 0.9504334623445322 5.742247442934346 1.349932260911862 -0.2594482202331467 -0.03271085996945979
Ni 1.9482733673862245 6.643204942748238 9.700758526245105 -0.6522155955781349 -0.4204188185136694 -1.7156997106292389
Ni 0.9171952708150433 3.486992832127126 8.989443457039622 2.9780190602171226 0.1790199995830659 1.4758756923849226
Ni 7.3566432134286766 7.800072082936866 7.642697872129195 -1.3277690945512617 -1.888081893180813 0.11913412186071096
Ni 8.385035376834939 5.476721384370942 12.45317640413312 -0.6194134614464494 -1.4933093144803378 -0.27480541941550735
Ni 7.982728495788966 0.5688948977312349 4.092579131807669 0.21478455877718491 -0.4430427265607725 -0.6705377909260902
Ni 1.976521017349468 0.7572647032184304 1.3448269290004078 -0.33182708821618984 -1.3706669223560521 2.426396333162402
Ni 5.805391862039599 1.1548772172718211 5.593183705554589 1.8123868163403432 -1.3086177184337915 -1.44345459574174
Ni 7.583984965082395 9.089273724820925 11.671595768416843 -1.5231482522186415 -0.8569692524818789 -1.092140859555848
Ni 3.2687862149798694 2.6072803047004003 8.29786379544116 -0.1526898463289693 1.4212901438295586 -1.708680341888612
Ni 4.616584145172348 4.09649233836221 12.431190995311796 1.102377963902824 3.734289000504711 1.712740885111231
Ni 3.038806658529452 8.204896447858985 2.595009421895267 -1.2804631103764463 0.15627139303264057 -0.5806916193962193
Ni 8.826372513416624 8.840736980239347 1.7663148158733208 0.7486448196421622 -2.449711867959891 0.5351360422536074
Ni 6.9629253950189725 3.4520164660684447 2.319369001641223 0.6642874391410043 -1.6749721510028894 -0.25130347963882527
Ni 6.368623346595045 6.32154084483783 4.402816444447886 2.1723314887283554 -0.045477929827141036 -0.732128567154694
Ni 5.645253972241421 2.6365830765823235 7.487010005300324 0.31121018329678657 0.7647543236095151 -0.6043354840674043
Ni 6.837976746754299 4.7182090457609505 6.319332493172944 0.46816420421874855 0.7310494751579023 -0.16630538022987487
Ni 5.990417671481015 0.9624377880333679 2.8150421403982735 0.5503094075599361 1.2393943653605946 1.0092536358423134
P 2.701001046354333 5.103347056989813 0.8094423331882159 0.7521566894501627 -1.2554709592074829 -0.3717118402262695
P 6.353536954249013 5.47176971571749 11.651127328740005 -1.6172814811596403 1.3037714460850838 1.785455796277454
P 4.206789600685923 8.57240281649939 9.84727608783689 -1.9812450448990586 -1.2433631202003554 -0.1081547400310718
P 7.4094363311843585 5.541305952340639 8.455895143584149 -3.0724171127837345 -1.2226793665987588 -0.5125347599143237
P 6.692036725581158 9.087885406506874 0.3063287338133901 -0.0033002680178265743 0.7885172303570679 0.24713057920805823
P 8.136295012233965 3.1426528684205373 0.27752668207006853 0.4942475315693617 -0.895473322094348 -0.8659652853329022
P 1.2902475083473124 8.137572265082893 13.58381821136931 0.6931604134216127 -1.1547281953697661 0.37512292279034753
P 6.9042180412454295 2.511976880168448 4.186658059586628 1.4951142288995605 -0.683089659449172 0.7046858975627089
Ni 2.023344366354727 7.351071429261615 4.543576187218528 -0.8782610719811198 -0.4354068072820695 0.6902771783365468
Ni 4.965931310264952 6.793930034377143 6.259837500142562 1.9638415047106308 -0.08014565641265552 -2.8484046076503784
Ni 3.5930881176869756 7.697392060429585 13.709933972563332 -2.0249144607625515 -1.0244413993263455 -0.3792613704387533
Ni 0.4288718892125842 4.257777904633338 6.7636915359515495 0.9791149074754041 -1.49626916843961 -3.033882961264278
Ni 5.338176472083986 0.32078020191712814 8.012606031452908 -0.6357600211252729 -0.6001021627123472 -1.868347133756047
Ni 4.393925653964698 3.6157917498494387 10.143966190368587 0.11128994322594382 -0.06153729728284886 -0.12403978669244442
Ni 0.43429466054727106 7.682342689905262 11.321072234939466 -0.3149213135997867 1.2786196294098044 1.0291208070798856
Ni 7.642072203342328 0.950257608691419 7.757962537380585 -0.38102823253118895 -0.780579720677546 0.3940642397795407
Ni 8.651092698539852 8.969276745209704 6.088030332142007 0.29467721863876994 -0.8350346571923168 -0.17970725545807759
Ni 6.7475231808661 7.868145957602547 2.2637622254357295 -0.6245443549151114 0.3810734839468276 0.30277413671429143
Ni 4.41768440804584 7.254888736464096 8.170745668424393 -0.1904747783872268 1.355396112239911 4.067208550454131
Ni 8.139673253464824 6.6014535833169825 10.22425541510684 -0.8383968887963302 -0.9947065912660741 -0.8389651025949745
Ni 3.573707194022811 2.290503087255455 0.32145399907221467 -0.1340012687805305 2.0001819910128775 0.6064371037914394
Ni 4.860252520199318 8.054985836307656 3.8841971805961855 0.7986219228912376 0.6297312984326896 0.757447762645773
Ni 3.616689529025859 5.92883187106967 11.044158264018666 1.1736322313631207 -0.26147553507582066 0.3300543125864832
Ni 5.828715609715672 0.4789577862558647 10.163066673733315 1.4630625997806546 0.9244403987506595 2.035437986001695
Ni 6.01798041774266 7.392378526832373 10.631795330651245 -1.0942746180693992 0.1450176744956922 -2.1897591972864996
Ni 8.732457407198723 7.069640796092433 3.6211682439069905 0.3737039309556338 -0.08922653566800116 -0.0921791905384219
Ni 8.089758582346944 1.70963996011155 9.988604115570748 1.3777924776572401 -2.070549742103163 1.6951985053520933
Ni 3.083149545480271 1.2473762388093885 10.122184401566656 0.023084135512973145 0.06451360630235341 1.593392847467501
Ni 8.945758632969664 1.693137483085186 1.8827456685085155 -0.6652060943005318 2.898018414022764 0.8343941953948404
Ni 5.267076063493672 4.964672568326878 7.961713058696391 0.5680302218784669 0.3339464485520378 0.5231441599990538
Ni 2.8950786912033677 0.25295992673014805 7.9057804904598665 -0.5405474430771658 -0.7723465341344764 -0.09622739246586653
Ni 3.2409735714216956 5.5504410868470995 3.4289333602334744 0.4053069025728955 -0.864631139902511 -0.161244934987832
P 0.33633492030776607 1.9181190936050165 7.471567277920353 1.505114277535066 -0.07489392109541294 -0.41913352404334264
P 4.7449850783112995 2.198235452103563 12.007380914672245 -0.8210954214034052 -2.8556114098114627 -1.4974655027405566
P 1.0724296203279897 1.6448332612116054 11.085176591380101 0.45872002808671314 -0.4613235271478313 0.09064989837808904
P 3.9818172456215195 1.563107589791081 6.3584006960759085 -2.6973697804263286 0.5154593897602864 0.8442860005872556
P 6.130674843021969 2.4146650218088337 9.497253274498114 -0.5313945729333042 -0.5545797528005159 -1.096691455041008
P 0.7152541910352187 5.262281737582478 10.912745605683766 0.5232889131070343 0.2982561942392799 -1.8134111438397993
P 4.688545311117374 7.088929165202327 1.8834222423002305 0.530212636810061 -1.1590931572066812 0.00028924910564466315
P 1.0341490566818643 4.662935465950829 4.444918585639826 1.4447177787248795 0.4667531828038349 0.3447975323339288
