# total energy = -340863.62813958555 ev
CRYSTAL
PRIMVEC
9.26257810911585 0.00000000000000 0.00000000000000

0.00000000000000 9.26257810911585 0.00000000000000

0.00000000000000 0.00000000000000 13.55671933843838

PRIMCOORD
 96 1
Ni 3.173553789097724 2.871352914302827 8.63725686989076 1.3695914299036862 -0.5590226190632179 1.4452677376910785
Ni 7.466888438753882 7.252385653904368 5.565019939395654 2.4700798900932814 -0.44473065578615667 0.054800492779647554
Ni 4.2023112941541205 5.600340002405766 1.2418032863625634 1.2501390054716082 2.557236944826764 4.4271174845082015
Ni 1.5721651775137073 3.4538949794533407 5.3553512940837935 -1.5795549131431443 1.6064445384451365 -0.531648083705007
Ni 2.61659496480369 0.1350085603735664 10.462113515717839 -0.3625057482469693 0.6088963639652094 1.0601697059658903
Ni 5.67090232276951 3.6458341239240033 13.69540445009279 -1.738788217017586 -0.37459173287722586 -1.4057154293197531
Ni 1.079284868876852 8.934127130959043 5.506888925170027 0.3534302683082623 -0.19925792389649555 -0.030798987658727607
Ni 4.140641048816525 3.594047049474844 11.119411070361616 0.15214888622383474 0.9711162055406436 1.1259035578285899
Ni 5.494616935376128 8.2641092777388 10.56822190599861 -1.9427692574213635 -2.3093175511688226 0.53479717085695
Ni 2.19361933348177 1.7008964886735025 6.629615285580873 1.7395227811907656 -0.006481493959285612 -0.10625032391950734
Ni 7.872672725025249 5.580962688911285 2.4484384159967116 2.6086474380882554 -0.7701474696006284 -0.9896469173549794
Ni 0.06511499815241358 1.0155027557205454 11.336684292336463 0.31050030171395554 -0.09541646652879697 -0.5214726858339019
Ni 2.750152079180801 7.605049054472654 7.046714737323013 -0.5257021505342172 -0.15357816247119357 -0.06737113035580657
Ni 6.852677618900869 -0.13951758341807555 4.509438934268193 0.02354333453757881 1.6534695010444231 -1.0311285815385338
Ni 0.7798053395430824 1.4154330925996987 3.8291627757443463 2.740810368108467 -0.41113019412289203 -0.8224192824211513
Ni 5.313718784062932 1.2973815340494332 12.58912194467561 2.2526105853950815 0.8806005187475738 2.5466529986633306
Ni 1.3029298183626237 4.355727376089629 9.928575120281739 -0.1535848473394129 -0.17952907800900048 0.4558591615991504
Ni 8.949364072019474 1.8774412282551471 5.721518607340226 -0.3010468696105396 0.5756046917916151 1.4336818326256922
Ni 2.6301831669530222 7.541239153581891 4.529313648209448 -0.0646897268689015 0.3766326745666546 -1.3878948561985645
Ni 7.891040417501135 7.397789605738191 10.034480660100975 0.06672604057263992 -0.6750022544553472 0.518763514432855
Ni 6.199925211356395 0.4406050963190734 2.0219707927113983 0.4107262738162539 0.43462853435514825 -1.3122632856061787
Ni 3.834438740259861 0.37305959765951274 8.11564867511474 0.366724157203691 0.17539345857407213 0.3730040766751318
Ni 2.250185898257484 6.719722572103652 13.295291640424034 -1.8301120015342482 -0.2674572065805523 1.5968566376463853
Ni 7.708437951807928 4.538265003735771 13.595763191877909 2.379867593473243 -0.8355162248144256 -0.21515351208082947
P 0.1894697411352765 3.888476621200014 3.6116320540968667 0.20071548227862854 0.09873833181317833 -0.0798065279056819
P 5.280364240136725 7.771136343320423 1.8252225176640935 0.21094641597801733 -0.12332476290329084 -0.3827195041906828
P 8.94565904075858 0.6696992205318062 1.5858923183353233 -0.05106699387914431 0.4895796937800471 -0.9863965287384817
P 0.7363184613761432 0.5436688771612036 7.3230007709635805 -3.4353913160266893 -0.7431498579658621 2.677475612605563
P 6.6551346146481025 8.39033043021934 8.266020147611608 0.11436266861399658 -0.22224564304092048 0.830622387057234
P 3.5344794093778056 3.7194253073435295 6.669905648027474 0.2348669313493568 -0.07894289435380597 -0.967613591704024
P 5.530074084542893 2.0930833102173856 8.568497047235441 0.10296753940317752 0.2409211079632367 -0.19615177416734605
P 4.3920459450245515 2.6370282122075257 1.584644649058217 -0.3207618315409637 -0.8015036153144067 0.6081630853436106
Ni 5.89929897484738 4.281413711574228 2.3985631376781744 -0.7293162945168795 -0.43800824946065847 -0.0258760964358135
Ni 2.028254525729876 -0.0805566421900085 -0.2731191581703171 -2.202518039614065 0.36119911362040374 0.5660671846148252
Ni 8.378733682372738 0.3262428226468441 8.889493545616858 0.9198021286476997 -0.6996596479927112 1.2105080213435475
Ni 1.4348474564067881 5.650978517164048 2.3345077784663766 0.5613839202065429 -0.1556173043884094 -1.2718157191140933
Ni 7.555698038077534 2.237514691345223 0.6474894106383715 0.21446677042645002 0.49586578389907504 0.763716369263304
Ni 6.844415399189073 2.6495049049785897 10.717684719578743 -2.536322820381916 -0.48053866662370137 -1.657291703003991
Ni 8.391645716316958 4.505243912623044 6.515210404049143 1.892613205392263 0.7592544768372085 -0.21688437872900715
Ni 6.474866318649258 3.3686792604527565 6.914428448668389 -0.6555282048911355 -0.038747553081842946 0.7891960015916473
Ni 5.001921878302317 1.653703652987853 6.191692631894687 0.3982880480529012 0.033268789355458836 0.547825721906134
Ni 3.2797585101912774 5.339348337810173 8.308004635602254 -0.4466350718977211 0.7285873867706549 0.041835190868231176
Ni 1.7581392216543297 4.5555211868333885 12.30433656932255 0.6391183960745446 -1.427229392132129 -0.5242232519958456
Ni 7.252126301716106 4.420704361827574 4.2535157524375045 2.230517095930152 1.0864710628645806 0.9251366534867357
Ni 8.565448732765539 7.614728448641743 7.515303008497811 1.011168336366523 -0.5214523741189278 -0.03357140819754218
Ni 8.094029817707417 2.521505337492821 8.46831300194084 -0.33656820244560104 1.6680965069289788 -0.1570391244366005
Ni 1.0139929554817306 7.169494842019996 9.156059429744467 0.38868960573118866 -0.6313325814815385 0.4867872186365745
Ni 0.7544703357810828 2.2425350087037357 13.218519687667031 -0.13982353188926244 -0.19996292038332011 -0.399991146786937
Ni 3.6063014403702542 5.723736068549872 5.573953696023487 -0.04820509895031698 -1.0407853879020075 0.6330320806711484
Ni -0.13743628210726783 7.967456687257093 13.37924857505373 0.7777337665883186 -1.1854312808805778 -0.9217782785374642
Ni 5.139971343083263 3.9392633372087316 4.880337572444788 -1.9653368583092343 0.9888169652545162 1.2361028390935163
Ni 4.551241875727055 8.903227170243179 3.546465185506801 -0.5663104109738827 0.20935078935612333 0.7333141028223628
Ni 0.317184021213956 3.534321945549218 1.4429096044304959 -0.7928454254187766 0.8334791397797386 1.5914174689086849
Ni 2.557898007052962 3.8962201365352844 0.8216444050567387 -0.9329898309825674 -1.1784944445514283 3.2392986772320533
Ni 6.829215508441251 5.567309648714887 8.031597262187892 2.131207464994536 -0.008366112576508173 -1.431404092335109
Ni 5.216998942997269 8.26692510149708 6.457024740612418 0.8568651228038469 0.3600855688412508 0.3161590426616297
P 1.277976432820496 6.037468853144304 6.250366433200035 0.24221617262557643 -0.24729615825164508 0.600187780447618
P 6.935021938674259 2.501359230011705 4.959671554318701 0.04058923427627203 -1.4414342228776014 2.7688598180465154
P 2.323712243629944 2.443097613434132 10.985619612757253 -1.0388164371010948 -0.10543194178327003 -0.8237156326350717
P 3.760893869731096 4.903645924107079 13.119067386046458 -0.2821736868551205 -1.1309550042095684 -6.566975168978567
P 5.749606449329071 6.289234989900268 5.89513915099921 -1.3586207898247957 -2.8798674541453497 0.8181648780201715
P 3.5482991759809437 5.978521805783466 3.2991904728968566 -0.32207823635954214 0.903984959109785 0.24526730074707437
P 3.6180556520454434 0.09595104707902703 5.559841231950738 -1.6741987631719746 -0.3520426439321163 -0.1196506564858133
P 3.9031670701494625 -0.19822565626258654 12.680508393241215 1.072281658738076 0.48489822914397784 -1.0089975539674496
Ni 9.082346906551146 5.546765250373225 11.739685173873083 -0.09667656418814319 0.9771554697561882 -0.20293151609334084
Ni 0.6721575087734101 8.055404866812587 2.094703335136212 2.4524056127419698 0.47371418750270033 0.06071840092597929
Ni 2.6923535915108396 6.522744585118174 11.076965305978987 -0.4436443647005134 0.07162656319805083 -2.4340409941918533
Ni 6.887162197361648 4.929701556449323 11.401743715019963 -1.4378732449992204 0.9463148302262475 -0.642416607209842
Ni 8.006183526511599 1.8228475926258598 3.261692777763154 -1.5719501042126929 0.8581275344560383 -1.4370759459089057
Ni 5.228132561936259 6.828141049375592 8.787017938487395 -2.007998915954136 0.9535483718602095 -1.6010328805112621
Ni 0.3587989323363281 6.146767275340705 4.284126720715018 -0.8613375567529037 0.40849661315478686 1.2514471827600706
Ni 3.0115698223713965 7.8264524600455845 1.685249215400928 0.8738179486081015 0.07064028802538157 0.6901491373991147
Ni 6.102482889194858 6.647326261265766 3.7307682605487593 -1.4558755951139122 -0.40679839951675745 -1.0391080001995847
Ni 3.1955524122092878 2.1976115046653844 12.968208701938783 -0.1329196056805775 -0.7605107178418128 0.22921461815958585
Ni 3.3940031491209735 2.0826165969053574 4.5444431433633135 -0.6665628654387424 -1.2345871737799383 -0.7598597145213752
Ni 5.317581279152415 4.3203999030169955 9.229007790240226 0.3249401312883694 -1.3173892939788343 -0.505539302433097
Ni 5.511224738003089 2.0970662188228477 3.5435094968184218 -0.9871411202139901 -1.1298676846826605 -1.696593071706775
Ni 1.0007937816147925 1.7857694922824536 9.092993313879328 1.0450156239332713 0.43885259973882484 0.6196880552640747
Ni 6.9877815838294035 0.38225826402249974 10.900334424420528 2.8725629500641365 0.8630784507034104 0.6011084924896745
Ni 1.3547632057025438 3.994375677214544 7.6079630615593485 -1.110565899030255 0.7369324163012405 -0.11211578156134885
Ni 7.200404065314012 0.6906067119370364 6.833074298499473 -0.6055896681894796 0.03211230715351244 -0.053781050376197695
Ni 7.534236644498799 0.27271716227851 13.217543411929785 -0.6062041618450269 -0.7974929514931168 -0.3712598402905154
Ni 7.781955034602236 7.827888159659181 2.3864032250799174 -2.7693280159321856 0.7246024339809779 -0.7202600978518822
Ni 2.2233985222412134 1.6428108610808219 1.9400340263767064 0.45888226469619037 0.18561899295682224 -0.7518926371554987
Ni 2.792055982741523 4.027359718014661 3.5690093744715314 0.6355615319612216 0.10551138887095377 -1.9914672368476993
Ni 6.41799408879452 6.13382745366203 0.7844570062911361 -0.8282477161774704 2.2899116358383855 -0.8442723737405008
Ni 4.917863981570764 1.239277381300448 10.518834765548696 -2.2130670187745047 1.0888619316942603 -3.0069213450737697
Ni 4.448455045971677 7.057658473409882 12.546974435309483 2.0127207469098365 -1.1826058956166408 0.5274559000005304
P 6.957909769288437 7.422715203545861 12.349168373837193 0.14537840026922058 0.1444682297501254 -0.4525542655956335
P 8.863509235126386 5.139934292770654 8.78501166405962 0.21440994904658559 0.3065058358425818 -0.33780130352175375
P 0.16473587869535705 5.862350550598104 0.48966434150239874 0.4296881596307375 -0.2862619979918812 0.013706808063131234
P 4.982507514495228 5.8874891877032764 10.633484179143645 -0.4162664869081928 -0.35082882612967325 1.2553184927900185
P 0.769884192084221 8.222344312850362 11.138240965487299 -0.7602402377892455 -0.6404078043099294 0.5068107129463529
P 8.948039523343704 8.421721307577272 4.035781254070676 -0.5519045199611978 -0.033970443408173755 0.4914635410663213
P 3.172720157064022 7.785743429066501 9.194329623896065 0.5661474030334571 -0.8787320980802672 -0.6863004530769857
P 8.462569277228638 3.2134384506212577 11.626866045721016 3.0902556836270523 1.1737510163291722 2.391796226590029
