# total energy = -381165.6759528224 ev
CRYSTAL
PRIMVEC
9.24963955702071 0.00000000000000 0.00000000000000

0.00000000000000 9.24963955702071 0.00000000000000

0.00000000000000 0.00000000000000 13.53778245959958

PRIMCOORD
 96 1
Ni 7.521437074961039 8.807673482027216 7.907283948017491 1.5783480373192367 -0.8135417774258634 -0.9651543315302539
Ni 8.414906028495228 -0.19902079906427603 12.840139961187603 -0.9963749801074324 1.6134207126526536 0.8718950205537759
Ni 8.099474813075974 5.987828301899538 12.670809580819425 -0.9167312030318598 -1.4811425972108168 -0.06049111540652163
Ni 7.540731823520201 5.97501755081879 4.86860616540326 2.1732370312617606 -0.5581361026932065 -3.825386013722547
Ni 4.759984870698171 2.761720443816183 10.560891827315906 0.256829551663377 0.7206113105437139 0.3471634614629441
Ni 2.7474297503723157 5.449480768035498 5.739532821855218 -0.6072143482770962 -1.080505846420081 0.9023862471640975
Ni 4.221202603764965 0.5897810807662831 5.55681266295672 -2.4559318807276735 -2.0427998256834043 -4.6173374665721445
Ni 5.706435760832018 5.80126306774886 8.495919923380312 -1.9457980169453584 -1.621703007266104 0.14024853524182299
Ni 0.6143157502548636 4.401385586474691 0.30124411794080636 -0.15686763185574276 -0.21764028305842517 0.27770870910523143
Ni 2.0868297276748855 6.172321616741848 13.294400869835135 -1.5060450168794515 -0.10873915177963209 -0.41216789135878695
Ni 7.406871036776097 7.5643831524107945 2.650832987367568 0.07885470551537387 1.5589295235833087 2.9337994282771147
Ni 2.078949034591277 9.353143238513765 11.13711386114409 0.004959915108436619 -1.9302652114170822 -0.6921386570253176
Ni 3.5396336477100947 7.726825326042634 13.041447271202898 1.728155419894088 0.19893525044975413 -0.3476954227070141
Ni 6.900721498949662 6.817040007955058 6.6236170908792795 -1.78148524166548 2.751823945610151 1.2211732143668774
Ni 5.189889627904673 6.0964745706320045 13.101865918177227 0.6865182255147467 0.4152447305118978 0.8700451118292306
Ni 5.413777158525255 7.12193588367686 4.64957839551757 -0.8579097620182774 0.9628776196809353 -0.23701225982713378
Ni 2.7660030270294578 2.486811900227077 1.3860390952150305 0.46613200428006824 1.49197825437374 -0.9478515785857483
Ni 3.4342617514560287 3.6587782575809356 8.651347170210965 2.6156331253774696 -0.41502952917729813 -0.35371463231790046
Ni 0.7674093129716753 7.490645024168396 8.402766801261745 0.2389580706995949 1.314823075913555 0.20783769514570657
Ni 8.554483092616879 8.678770502199558 10.295375367948743 0.14920651576605917 1.7418650561706968 -0.39085833124773334
Ni 5.595745321710493 7.905972349098176 9.270457008758358 0.6448732962804506 1.8595789006451136 -0.7836084802015408
Ni 4.619325598723489 2.3428320075751468 12.885667613097027 -0.7976662438461876 0.5024434371165928 0.13323867958289312
Ni 6.964072281730921 4.400099886546732 6.361241809177837 -0.2465037442573368 -1.061321045961514 1.2009435175835639
Ni 1.5932412006554233 8.624946848380878 0.25013893325037984 -0.4212878513821841 1.0349829222876177 0.33334815284640656
P 4.45105615203687 7.885502896288288 7.2837870053274285 0.36860183384237805 -0.806216961629676 -0.3094217239377961
Ni 5.149228211477982 4.017608782798652 1.1480874873249347 -0.9723642190151317 0.870801787489597 0.24289340119825908
P 7.591771335768264 0.3697672992811654 1.3562552551572626 -0.039589075146531816 -0.9188217670123016 -0.5312328505444592
Ni 7.471156033174074 3.3571845032568426 3.9913444306731765 -0.37411170791701376 0.8289920505426626 1.576825172916807
P 1.8424542449648769 0.4913501141952449 5.528410719080513 -1.1485259232137963 -0.16280122373135833 -1.5218686141752693
P 5.856381671135271 4.753204884747133 10.475793291508616 -0.4359858197139911 -0.18919025524784835 0.38838338734467953
P 3.836167849080275 1.1338948400626245 3.017300940142955 -1.8293602109698883 1.1460309247060843 2.8598048790675197
Ni 3.234941264063221 5.972806886913881 8.23539919445265 -0.6715531195644822 0.034822249885507764 -0.5022102380598641
Ni 2.26540327306472 2.2384960709752644 12.23556963139388 1.230797881940835 1.6232690662016431 1.6497704549262813
Ni 4.293673531358944 7.453378225537108 1.748431656707979 -0.3737869775877434 -1.7871408972893608 0.17397986605599713
Ni 6.19563995860074 3.0751907356043047 8.5722867992452 -0.5142681976656628 0.0006890556472246198 -0.7878050347813916
Ni 9.033873422590169 7.146493677264864 0.9529931603428087 2.150080390639639 0.44774733112529336 -0.162652613968636
Ni 0.362966964122634 7.495824822439312 12.027751499944836 1.988819000591575 -0.4206754146091658 0.38405673494486764
Ni 3.228965996772128 4.862877863494013 10.47184092043511 1.7705526539133765 -1.6089068839427 2.0895329680738857
Ni 5.428058602329352 0.5534623702113682 7.216464427229149 1.934455852459662 0.7051245277620244 2.364346872129825
Ni 5.607214875024664 2.221078999289309 2.417103840032246 1.8695707217505029 -0.09935565368220307 -0.7978284804556647
Ni 2.832868672923124 0.7352612649888249 7.3491616092902525 -1.4127589664300961 -0.3565083930129538 1.9957224125796276
Ni 8.636323905297354 3.410434679409814 7.695092586885433 0.020309915201945666 1.102659499698985 0.22649747633873898
Ni 0.16072544049062054 4.821883460035619 2.9562866163674704 0.11276292822704449 -0.4931913223907054 -1.320745612045577
Ni 7.885132910697509 3.7957099247285115 10.1365368539711 -0.6611638059103582 0.7229548710752258 0.426154435445866
Ni 4.479850280639302 7.037754912134703 11.022584821518226 -1.5176064964648057 -1.1292981853324358 -0.43872584435297346
Ni 2.5001221318553775 7.703405238146277 6.289640347722191 -0.16956579614870151 0.23183122984682655 0.5148829484315262
Ni 5.480818547574541 9.087216095140837 2.7657828856029436 1.8771181950804574 -0.7635204512024141 1.9123309955361645
Ni 3.3247645158647687 5.769629299737194 3.648622153114032 1.1025972790024816 -0.09628267118383418 -1.0430980951955842
Ni 7.814761651331205 1.0935294121085566 3.2946763626585844 -1.7558870814814018 -0.19139523331896716 -0.8669893557220423
Ni 1.8086560612471487 6.886958034972658 2.3143246178055694 -0.815596088851731 0.7136474776313709 -0.36030565527185693
Ni 2.1911009167963815 2.3789888494340956 9.896945284949874 -0.03870075900430754 -0.3597634096151417 -0.33994637488921453
Ni 7.825694725538746 5.906921702835781 8.374133616391303 0.828960683084095 -1.2055419355875236 -0.7128062126769982
Ni 5.918557749665804 5.403260318107341 3.121798745438804 0.751159615644216 0.12250175278136323 -2.9046744858867006
Ni 2.686419126452739 4.82058851046789 1.6059058074278132 0.6056973974119375 -0.2606972621488994 0.010225534382750132
Ni 1.8841053728469042 2.6494390666543053 4.707736430532235 1.0912990803808431 0.12451029857095977 -0.2500387539937887
Ni 3.188933555849762 8.061625287139208 3.9475224123372485 0.007079532554600711 1.8580344389761292 -0.24701153713169074
P 3.498888984525477 0.45191704992994175 12.639280333737153 0.537902549255151 1.7958587367783332 -0.8858599673743002
Ni 0.18047712125439616 5.9749435537006335 6.706197874741314 0.7479758185995957 0.0873329181897141 -0.5143651282548432
P 4.561774340077703 4.599753360971242 6.964729006154555 -0.2686687103901502 0.21333497081485195 1.7748649081354853
Ni 9.120986529939257 1.6107692680186125 4.9663628332351015 0.8696792438493796 0.02618668569769684 -0.42985528133622103
P 0.35766969542664534 2.6444627604583184 2.6178820706527253 0.79302051754406 -0.45612141412160156 0.972930375931247
P 0.4972652588278358 6.501553294697186 4.074818729736944 -0.03799139164210876 1.9573196444317127 1.7462719269891411
P 6.507852299380211 0.9191135797951092 9.119646257136656 -2.1995363312779217 0.09797677105680545 1.8127616831812587
Ni 0.025381011527489165 8.322844363869462 5.845289503123694 -0.17701171090378545 -0.4342616379340327 0.21623106141572437
Ni 8.452949796867154 1.5683781689550256 9.203539564881982 0.7013534907553662 0.8365204977092238 -0.43080119018925805
Ni 5.499410323511222 0.31363863523192714 11.28028996010005 -1.4243831809325858 -0.3936127540644189 0.13449826302160708
Ni 5.093563879345171 4.824713849805085 5.038992854633116 -0.31554763432987587 -0.8984156925521236 -0.3731866249995831
Ni 3.8528172006653625 2.611709786034543 6.599723421426725 0.2965641512488376 1.056268056918639 -0.9711948812973792
Ni 1.8933920111754754 6.495559528126555 10.569231302532081 -1.0005023720122446 2.0312332038917273 -0.30768828618645716
Ni 1.4818847874704952 0.8643520125038021 2.169740723676691 1.037351165409478 -0.32546206523011045 -0.008302349218108282
Ni 8.605864841536414 6.495134044697158 10.278642769605732 -0.22344891932040228 -0.9609138110863451 1.9750725975397596
Ni 7.256083409253819 1.708121726592528 11.37654356146935 0.315437848224889 0.568478365159479 -0.9406208651652639
Ni 7.85425761314694 3.374268587911096 1.7836024869674998 -1.034654335303605 0.4601228219715108 -2.107935124730157
Ni 6.705609597651975 1.8930127759449262 0.059384537248099833 0.8437692088518371 -0.00981544342852503 1.210525504845044
Ni 0.7673158916100035 4.192454723361381 10.840988493851722 1.1182460412833322 0.06447195443114057 1.114480403593313
Ni 5.509843917171211 2.201913745686919 4.7549567665194745 0.5394529244614064 0.4965450693542869 0.050649703836067615
Ni 4.1300196549173025 0.588322412574634 1.110639395754165 0.04425511316363346 -1.1701170191210106 -2.3586199969483768
Ni 0.15631983706841096 4.223921997857197 5.280357579598155 -0.22834429973949064 -0.7547668733795002 -0.08525212440128543
Ni 3.907140335031596 3.4056711149285253 3.4547876270685105 -0.8842152326820255 0.39542461046217703 -0.04552523812530869
Ni 6.662950259035072 7.498599714370161 11.345284403868348 1.239375596307517 -0.1673757304759182 0.9594408260852444
Ni 6.3837406329531525 4.172743741012591 12.804616719652866 1.3851648588619112 -0.901847343941492 -1.8434408574326704
Ni 7.276830351256793 1.8950476966942147 6.235205292714747 0.28257889271333914 0.8351256742442261 1.3773024253946988
Ni 0.3352883420764028 1.3078713144870209 7.130648119375746 0.566318895614315 -0.6393456815940022 0.8657914787591992
Ni 0.39911825619772107 1.6662301080764934 11.226396009019123 -2.541245968715146 0.23234416492750307 0.47824035750782795
Ni 1.7094259258000264 3.8789844315732585 7.372161763541074 -1.4974138235670147 0.34496851069415424 -0.812979220054174
Ni 0.27113746545508316 1.915082416434937 0.32470490425214876 0.524784009595322 -1.4063381505054167 0.9368434004007028
Ni 4.139306293245873 0.9209847819204776 9.228327674500246 1.1683522139111042 1.5004515819520738 0.9573476910016416
Ni 0.3842328109166757 8.875427093338752 3.519024525339687 -0.3472243966078665 -2.39410533433918 1.0424347505799723
P 0.5789127540371285 5.346939261550897 9.00472410782059 1.5464043945331045 -1.3814917808856981 -1.2199714807492925
Ni 6.095309116021047 8.684459030657797 13.594100297934435 -0.4526044021072786 -0.8616016090475678 0.19922115712128918
P 7.100726459685413 6.462177578198454 1.0470286980953836 -2.9922411173537755 -2.3188604576622516 -2.252337020018721
Ni 6.621872608818753 9.098861391610628 5.2555565204842125 0.7572423315031862 -0.6461706749356356 -0.40216835694391384
P 1.2745171134782287 0.5907032698513015 9.08566585551547 -0.22870785372649644 -1.0415775447859996 -0.20022645845735193
P 8.516226582530257 3.2028265147835406 12.648066566554194 -1.4128538401367474 1.2922487901574649 -1.9349227647937512
P 3.102199683731225 4.330514846560836 12.882933419581164 0.4652956244217019 -0.9501421743921378 0.25015856740110465
Ni 3.2089405266711757 8.173453431952378 9.069204271617702 -1.424857292355527 -0.7008685806991478 0.52576771366483
