# total energy = -340866.2657165742 ev
CRYSTAL
PRIMVEC
9.30264354353199 0.00000000000000 0.00000000000000
0.00000000000000 9.30264354353199 0.00000000000000
0.00000000000000 0.00000000000000 13.61535915157808
PRIMCOORD
 96 1
Ni 2.588358293302685 8.028349000569643 6.282004621725474 0.3284041785775699 0.3968891108228455 0.33764857999397335
Ni 8.186856747361373 2.6272991600243345 6.797372945794448 0.461568810389418 -0.006933493895039672 0.257703212517582
Ni 6.226231551409426 9.196519186356651 1.034476310923927 -0.6551024302076266 1.0471056736930804 1.4279187048896698
Ni 4.869906093211505 4.672271426823199 7.958967092717259 0.8001990375703704 -0.2680609016028222 2.6019180897842222
Ni 1.4655943116409447 8.729163667190633 13.023240763833398 0.8214633462657853 0.1755754926778912 0.9751173562802367
Ni 2.2848595410824712 7.039375641265944 1.819175706997648 0.05268293221601249 -0.6382560480742492 -0.4000520819318594
Ni 2.6854592887256614 3.7061825711351863 7.964114245502039 1.1317296775920638 0.34358500008306636 -0.42843731794277184
Ni 4.777940157136438 6.745672572910492 4.685861659072043 0.1168304134281988 -0.8165427690357164 0.549497453181602
Ni 1.1522254544059982 5.987069883338025 13.490248364123307 -0.03726299811651647 -0.44658030740038573 -0.11955861099263924
Ni 8.901616076957938 5.0918764756399035 7.115277772120049 0.40307878457332513 -0.6363614021546976 -0.89731680306099
Ni 3.804920831857496 0.9699587554864382 4.91940639084948 0.5682798759954277 -0.5920234994692707 -0.05415488877584866
Ni 8.129068724409896 9.165364632450581 4.93412503378474 0.6452278514063919 0.02822557050459655 0.04045399424998839
Ni 8.547278376664668 4.489548898360074 0.42042461173074547 0.34405551196158163 0.08143043666235009 1.6675576037063735
Ni 2.1054859643679835 5.4774059404142275 6.422405702729575 -0.4025180269738487 -0.1625230303693072 -1.1754399739958208
Ni 4.339962386920963 3.566708033448208 2.6524488573922227 0.6363570312793235 4.1213793800695795 -0.822204595307184
Ni 5.719665388853119 1.1980781854310842 11.94534064216652 -0.333598835404632 -0.23378578247003606 2.3410030551975622
Ni 8.195582627195321 4.025160922549099 4.35080182741405 0.07635687879418461 0.14463072346991868 2.1876565491212006
Ni 3.9563585694021044 1.62942317065551 9.958587110724585 0.08062053916654502 -0.3441311023945235 -0.1068499051767192
Ni 3.3412491596149785 8.58832164087296 10.683741214443167 -1.6092614390686413 -0.5124524846131626 2.123287181706195
Ni 3.427586996223585 6.461727977844819 12.780411063332863 -2.174474760323603 0.2429728482859428 -1.0808580875531772
Ni 6.514967008004399 4.461371190452794 6.270240498444012 2.7377142456816466 -0.47425643315941546 0.16375176057008572
Ni 8.913318802790675 4.726570958369847 11.425506118834988 -0.44461881279864074 0.15711600042112298 0.1975064884230276
Ni 6.116051038879273 4.965016322872791 11.443600691185749 -0.27273413870877544 0.5946028301606727 -0.43858520501005116
Ni 2.4526792342641617 4.925740560976278 4.156810076316763 0.1693585652339019 0.9942828734650941 -0.34903959543973434
P 4.695983865732298 8.358378892754057 12.437440263433091 -0.6120575353020105 0.8405041649473203 0.4045707957378194
P 7.425053948340207 8.72833573189722 6.9543448261036795 0.06645170386533071 -0.6652942831389639 -0.05226178551819387
P 5.797230832409046 4.740469108126691 4.13867457233352 0.5037148476298486 0.8014208257926133 0.44054104318484133
P 8.068592237415762 3.129111671626327 12.529588531325583 -0.4632086599856861 -1.8589615787760887 -1.240793045480334
P 3.826716926154874 6.452453242029844 7.350251389976904 0.3448787791938254 1.106891021281829 -0.17352143836233988
P 6.047034724926116 0.6370896964306791 10.025588472042312 0.4147528784771438 -0.9439193334108776 -2.6629504224061944
P 5.005538639031297 2.1690230211546213 6.225514317576592 0.2739862659483217 0.893663522579119 0.6614042040559384
P 0.5356090163319858 9.598281764468116 11.284722699172919 0.1270294654483877 -0.596436798045618 0.40677525958830596
Ni 4.928084827200323 7.595096973377243 2.1721812687064608 -0.7835352037614441 0.07664407101730025 1.6384863973720298
Ni 2.694082839478401 2.8919314666728684 5.639536136680735 -1.1878000382230705 0.05636038106759971 0.18114141680144286
Ni 1.8484446150163594 4.385601157139885 1.8644060911561124 0.22947249980666287 0.20463050106231853 -1.5850115653823413
Ni 6.076831092845238 6.666944298886288 7.156600115640729 -0.19382004071037587 1.217294962358394 -0.21809819653145018
Ni 8.806450031434174 5.986753593450652 9.316050716380495 0.13180657512205687 -0.06737318723833559 0.4618392904419853
Ni 3.0430715196175986 8.294562756655033 3.775824953012464 2.3271468660407604 -1.335751598536106 0.47655577071655353
Ni 8.288320682701324 8.434027991698263 2.4718408198526123 -1.5534512740775568 -1.1784288814208157 -0.9327499470576194
Ni 6.656004389840741 3.490658920822913 2.6031746139972793 0.7133893388739777 0.7101885725484931 -0.8151739137126477
Ni 8.88235030175953 5.856563094222396 2.6216785026728724 1.11101121409779 0.5497044269860856 0.5805460949572905
Ni 6.586057811512962 1.6515448574840055 4.601487610558261 -0.20159711355263343 0.5572084486726145 0.5217794184410434
Ni 0.6448304262919033 7.661089928112881 4.0091650266274845 0.13765660614493067 -1.0530284669354188 0.5358724061989997
Ni 4.319161675504429 8.543175910772586 8.776201555028987 1.8519442669179913 -0.0813738723928018 -2.546151890657195
Ni 1.2805740301725055 1.5738398742718844 9.548859609037608 1.1731478355275344 -1.1423604178330324 0.06674943761140763
Ni 0.04556713986207736 7.348251321571469 6.4839064108001665 0.3492879640051146 0.7885527115806935 0.8712807840085447
Ni 4.412113691816594 4.343246220163376 5.735456626612316 -2.138972967872568 0.6766583020015314 -1.0706708626075303
Ni 1.5767609044081956 0.4885878732523753 4.626730334363612 -1.1360966963115078 1.4179145424891064 1.0915114535019654
Ni 4.2594107947225 2.3434103808211386 0.37158108074125173 1.5000270928201456 0.8064817852552886 2.0318605530630816
Ni 1.8684080884957335 3.896589083332683 10.093937786438865 -0.8024538950428179 1.2098981556736905 1.1509034223070371
Ni 7.530759889228431 6.256539564734589 12.904188319962481 0.25347091960378926 0.13509758716850281 0.41320764547721095
Ni 7.378894230071496 7.055478517590639 5.156136347845622 -0.5123416700669112 -1.6870933597464557 -0.7306548108226448
Ni 6.804186202074175 2.387011872059641 0.44213326117690915 -0.22349057119161508 -2.269628717219633 -0.0970617154417038
Ni 5.407496572661433 6.606384088098438 -0.05437023163911915 0.09781093490290252 1.2793482800457128 0.43184840050684975
Ni 0.8049261343711129 0.5710269718669443 7.02178155114873 -0.16295600414166772 -0.3362948941795563 -0.8233379375806789
Ni 8.881075839566298 1.133731798638526 -0.05703171801491082 0.272587328718266 -0.08281780392817994 -0.4786990423118013
P 2.2953529232282 9.120404955225132 8.450849032120168 -0.0761499049897011 -1.0942944155637413 0.4091471022545921
P 3.9573632549266957 3.7983066521539377 9.892634157357053 1.3764837861481456 0.2586298380969094 -0.5116778112306672
P 5.378528140035725 8.778988627095352 4.144093362315689 0.021638404205382086 -0.18212769197411213 -0.4201593942046958
P 7.254089961572297 4.651191636094279 8.522847773658361 -1.7337725089705496 -0.3899733575396187 -0.7512861139197513
P 9.025155185907652 3.743988515319798 2.4490493426743893 0.23461522034986693 -0.78466648915241 -1.478795437134879
P 7.082632934685836 1.389601014878127 2.413513243563854 1.0116285638323932 -1.3464957244264877 -0.705773731310249
P 0.9873640019356035 2.616340645691295 7.668537624696099 -1.4973881125354018 0.592291922639309 -0.5291245459522049
P 8.831278787592819 7.152867894969748 0.8172167872886102 0.08344952397490789 0.019217196358399163 -0.6987258233245321
Ni 7.62991676891932 8.04860085600515 8.987730650116635 -0.6540732176121639 0.6759219380561391 -0.043102487616429
Ni 9.306643883024325 7.401034522187484 11.79073814521945 -0.5602318088799706 0.46419082139329737 -0.6664170838894975
Ni 0.837143980457374 2.526300356871695 11.679609693291559 0.2190477049289131 -0.20113740030739552 1.8669715935647586
Ni 6.112013691493417 2.284357198320176 8.110247615582557 -0.23518703369293692 -0.4703321584043448 -1.210154751769187
Ni 4.874222519909748 1.3771261696144548 2.7901819401699095 2.6344697984679986 -2.655441515623659 -0.9434897020726266
Ni 8.035391101885525 1.4316675698985044 10.82547722482485 0.3360115586111826 -0.13840299739265197 2.5687295188473955
Ni 8.871494116507698 3.43049872371615 9.251255942159371 -0.38805531458129944 -0.6421674673135135 -0.11811699345010625
Ni 3.6470921780592382 9.213756985218383 1.182036706555114 -0.34981478304286207 -0.7159385876583928 -0.7885007752968355
Ni 2.0141433054239135 5.996074842484359 8.640755992348494 -0.4296711903498729 0.7131504833902944 0.9981631823561068
Ni 5.246160822170853 9.066096121034738 6.345900760560716 0.9095025464939045 -0.32565309819499405 0.6105948347135549
Ni 3.2668652202202555 1.439844593751426 7.467099107279968 0.6455204429461463 -0.5777754741906889 -0.3156095979160629
Ni 0.7259625034601294 7.998338671844357 9.440617767464168 0.8898608610035772 1.2431234933857236 0.32377207912219724
Ni 5.6544817641234015 6.708368971488177 9.502922223954432 0.5196384608386406 -0.7552669529443702 -0.0604260664965411
Ni 4.380735874460616 3.307768944772356 11.960154172067991 -0.5217933023981143 0.5895822370176298 -0.44954093269060647
Ni 7.121704038419933 8.711070025104247 12.79318266293204 0.887015164024666 -0.9837860876988285 -2.086325516880181
Ni 6.70912248563162 6.344682114229962 1.817569140422677 1.5435815803723287 -1.0742526664215177 0.36782844601146325
Ni 5.999991255501515 4.365823736535436 0.12085901728643057 -0.9258624759091667 1.115144519539873 0.6054695976718476
Ni 8.470317604952243 0.947809160726704 8.745131655181009 -1.1340662961450403 -0.20674214808868266 -2.075398328444716
Ni 2.1731254870467014 1.6052642048465935 0.8883382895215359 -2.3721062043602696 0.13085603828332948 1.1968593202118614
Ni 3.409958486324511 0.951344165350265 12.506388668086903 -0.8393636235849739 -1.0069265303710335 -1.1086116035173617
Ni 6.293322218107117 2.790923360876483 10.275919824459791 -0.5564659140796352 2.7064357472833387 0.38736934425786834
Ni 3.7577099148454627 5.927374818418572 10.336644692041949 -1.3199807088550946 -0.650946241947408 0.85861887227016
Ni 9.290754967505793 1.0550872484080376 2.836937027638379 -0.7796476957815799 1.6733664970786668 -0.319820550673617
Ni 1.3249755487731822 2.8957641558963085 3.666548657454444 -2.885224347581889 0.004090882239921987 1.0447644271544134
P 7.302305564108921 6.858690391783241 10.813318669448549 0.14878022686191797 -0.2940161880160033 1.1259902040051253
P 0.3172964334245977 5.644704685546131 5.022746669433042 0.2757194465893445 0.35196062574127124 -0.324901307630634
P 1.2999700423833604 5.945114960042602 10.93765408470294 2.191880357394561 0.14063471493664811 -0.5468821270459421
P 2.2245505016757696 3.4211588693949517 13.316107524516063 0.5798202725348595 0.43208211378421063 -0.5298300566596618
P 3.0916778331915635 2.1499712067623764 3.1638830934209237 -2.5416138935775257 -1.5095157490368711 0.5140144297836438
P 1.6433399256998453 9.085538646464324 2.5072820319969362 -0.21976015761490542 -0.31125106383705103 -2.1974645363505574
P 9.06174248376151 1.7370175482242147 5.075792204602701 0.5986176077470208 1.1135972296574113 -0.7432804700064554
P 4.40821588408693 5.529584469186739 1.8082692874695874 -0.4392014984378113 0.8672462089278548 -1.1931381626065323
