# total energy = -340863.56509951677 ev
CRYSTAL
PRIMVEC
9.31215796286749 0.00000000000000 0.00000000000000

0.00000000000000 9.31215796286749 0.00000000000000

0.00000000000000 0.00000000000000 13.62928446600440

PRIMCOORD
 96 1
Ni 7.1462337229766595 1.120187401031303 0.5980668176872695 -1.3344981857449791 2.5395295002446714 -1.0429505138741264
Ni 4.612553885955386 4.511163111575922 12.579365644158345 -1.728694837337326 -1.0562330899156456 0.2169432569914006
Ni 1.6577317113779733 3.2504738733075373 11.887121249541496 0.2296913006856883 1.0776935737822664 0.7422713120156507
Ni 1.1407020847159062 6.458856793254019 6.6813205187881515 1.510096818351322 1.7456898292334257 2.9772749829622467
Ni 6.034408639670628 8.65042657616501 12.92804356318136 0.28891897599875405 0.7149381714183364 -0.10321822196140289
Ni 0.37171526626193324 3.017511621043481 3.673609943853633 0.2491285834746935 1.4778382154279321 -0.14597258220979376
Ni 3.5375956354715714 9.839412199194427 2.7988826421009594 -1.6887306382395626 -0.10637450820219745 0.28760077140796275
Ni 1.6432885545941243 1.3108352081465457 5.0612760413366225 1.1720628299934719 1.3601536815295543 -0.06298302859043992
Ni 8.34337679625924 5.427125579385695 9.263047365314227 -0.5145957562084105 1.3257374088332137 0.8931672996689909
Ni 2.4205650559423475 8.23800973048925 11.022819839687726 0.08716476804296601 0.5357646769765418 1.1181485964735196
Ni 8.4169614673785 7.5561642225136145 7.919159584189864 -0.05906621003453698 0.41939706211737443 0.5261366669684745
Ni 4.171101732186755 3.3148022595504956 6.012940391024925 -0.04831359950372324 0.20658273969268293 0.0862365998017418
Ni 7.59624374978485 0.42293679036867826 11.206147359538116 0.16049828662979454 -0.31641255343333247 -0.03501251151944293
Ni 3.8773590258103954 5.790057618388746 3.7591477007548084 -0.7080900381482514 1.9632663489334512 0.047989126284768965
Ni 1.7912121816163302 5.497255439952535 2.6786589597397703 -0.3984963074089653 0.6602844886291983 0.06273774534885325
Ni -0.0723489477761175 1.7653802558146556 12.642183598402376 0.42045018597223716 -0.6316174597118089 0.241301631231107
Ni 8.333924956068648 0.9007557140844181 8.790915376381141 -1.882281484448952 -1.393976029395638 1.4025010361475134
Ni 5.302370601027716 7.049014795302008 9.23554390718328 2.431913406325889 -0.4634768260454083 0.4209093849968429
Ni 3.289389380850867 2.9133644479483376 8.470941252632489 -0.0943250332368311 1.633012518741652 1.0198949176062435
Ni 4.4764660115265205 7.979597350894272 7.390261612382075 -0.78818170139452 0.7336529742190203 -1.4837453249409864
Ni 5.585357765118231 1.516876012143608 8.544362029774062 0.5567711040248798 0.18878376383804904 -0.37126009740083155
Ni 5.7064996262407925 -0.1506548829117632 5.008843936712855 -0.3309043192916043 2.565423080181982 -1.609456585798583
Ni 7.991405167014143 5.14588910096595 1.8485946293389326 1.1196038408628073 -0.4806435676326819 -0.95123052236031
Ni 4.967747521807322 2.5215926561667046 0.8022917509087997 -0.6944297670523396 -0.562105885974232 0.6411146005689669
P 9.129872333852472 6.344196193976434 11.817325695440513 -1.96733486257587 0.3053190146233322 -0.7773172478761903
P 6.471409581999749 8.756492053771742 8.607505909541905 0.8209043884385218 -0.001954552623209537 -0.8230679717487438
P 5.79408978272621 4.5561501460200065 7.294501899838325 -0.19102473735342584 -1.2087398736995312 1.847706831797876
P 5.11033528239681 1.2875082527993233 12.643504993597494 -0.010133745999892226 0.0286765419990861 -0.07501604849557403
P 1.6864504061048529 0.3830323316645198 12.573737375969978 1.0800841855016303 0.6325762240806525 -1.6868971845752498
P 1.6054066965691738 7.715867729182222 8.491820972903763 -1.0224145987043036 -1.7006163339335552 1.0473540422584608
P 5.914784660273255 7.36918540558073 3.924770014935869 -0.5702799371445921 -0.6187609154641149 0.32956400321362594
P 8.577009523886566 2.7735982711792913 0.8307236311747234 -1.7278954813644822 -0.19607978327883005 0.3486657570400834
Ni 7.402020074065482 5.85425563442218 3.9876699161687426 0.7265937533793938 0.2902274103975324 1.7663303883019128
Ni 6.670987748467481 7.7815836269408445 6.327436172326163 0.701562778552695 -2.363985117915032 0.7029648011065441
Ni 7.173974641132098 0.6997769990800704 6.773617971053218 -0.44902619783771697 -1.758780858089429 0.03221078040458969
Ni 3.3153237403885973 6.337817365867513 9.961343731300401 -0.8234796053648658 -1.2039157128380105 -0.6445094851831288
Ni 1.7997421181824202 5.80707093073181 11.610650733495687 -0.2475021036148641 -1.5269154325705574 -0.9411317433634115
Ni 2.8928125156324414 -0.05026889036142735 8.972007978353954 1.496122615559417 1.4574323980780708 -1.388169707126506
Ni 8.95866831227216 7.431083318631822 5.1420701850426385 -1.9317880758195116 1.5197932197034794 0.9953434535191246
Ni 1.1907176843845415 4.086174852838784 7.091357176924292 -0.3799483692034489 -1.514691893921172 0.1631454944446545
Ni 5.07417617356916 0.019163489584450622 10.390053128303707 0.10170821307477967 -1.3695798599394606 0.17978361722196778
Ni 3.7568876400511075 4.830914674752598 1.4925154072780056 -0.15030000594055407 -0.1597117861727572 -0.3688448030911196
Ni 0.5328481891564089 6.454703570864853 0.5207712516754457 0.18813584584140502 -1.8360985581349862 1.1768355687917669
Ni 0.7960386369304923 9.234913474098645 7.092106805629062 0.41961817698924503 0.08056037535257093 0.0946613335303273
Ni 3.4224787404606487 1.675974228553705 11.075714758555307 -0.48927167562132506 -0.41404479666652566 0.2625361151298511
Ni 6.702416281120924 2.773188536235069 6.13807064934318 -2.045486114266316 2.8440082783548957 0.33348005043858053
Ni 5.870356355298566 7.812248562652782 1.7767410883590113 -0.15812233019845026 0.7154842737297936 0.2171710567314905
Ni 5.427544626487741 4.517607124789606 9.534938162142566 -1.2006200728058742 -0.4899082807640595 -1.7917804529439012
Ni 5.963701425318749 2.1533526872044058 10.808172739430422 -0.06753979472318691 1.468038712839007 0.5539277210388137
Ni 7.35614838462819 6.640099320967787 0.1133550347507656 0.21468659974673993 -0.3525152126931606 2.081426022696035
Ni 6.893296892181748 6.912135387458167 11.678347327223312 0.11274621605649615 -0.28690965887820913 -3.1152596618705575
Ni 0.7347394956274342 9.066382041813604 3.1439353380833848 0.2587136560599673 1.0920022770954547 -1.1683779249427169
Ni 1.2714727170276998 8.953025144631274 0.7992392255743407 0.965824618124401 0.27757886839558643 2.089463805398847
Ni 1.296522421572222 3.0291052575334176 9.737932959315646 -0.7166996341941334 1.707278319334763 -1.170917146424803
Ni 3.7408986650686007 5.45563009448264 7.8358707134030015 -0.20123741622036953 -0.10069262732607176 -1.0542831652781262
Ni 1.037216074826213 0.8059812278383682 10.09632811502721 0.03846858838884343 -0.011026690127806816 1.3801694625298488
P 3.1759672985637746 6.852155778918663 5.801836566819365 0.6493884105419847 -0.07988006145609469 0.8546228637368893
P 4.635964650723017 7.301821255887393 11.288727575114631 0.33319285821546485 0.5151757970815966 1.8715854381876864
P 2.281357608642696 4.9715003214100895 -0.06310290627342009 -0.44430462399233156 -0.6827384467573403 0.5197783288506145
P 5.847131833687399 4.859139825114846 1.5279109191641502 0.4088167154983669 0.5489485226566675 -0.060332221231154164
P 8.136022978009098 2.627080779988395 11.021797364758735 -0.5557969130370687 0.909277574967292 -1.4282665751473917
P 8.027499090737031 8.771987484389618 1.1447687040373162 0.8852609003377205 -2.6115990645174123 0.49537007520957904
P 8.38281378464067 3.8642288832796234 4.984365998658681 -2.8091127520292907 1.1387827277841034 1.4323340603485462
P 3.604550050220684 7.6179503896708285 2.327159456896314 -0.2204893224714461 -0.05598088624099391 -0.7540821886076496
Ni 0.5591503789281571 5.426762405230589 4.940424719538147 0.2338911976996488 -3.164421211196873 -2.362333184133906
Ni 3.704171514613732 3.383553920759495 3.593878317355249 -1.8408062480233005 -1.3984937147603334 -0.6452581904236951
Ni 2.6155616407610442 7.162390316799986 13.218007395913048 0.9595824938694312 1.1515922208439457 1.4162124721963352
Ni 8.855880714219209 2.166501454050824 6.30853249194498 1.967550578131102 0.13085860938649074 -0.5055200191593875
Ni 7.635596928745873 1.7659110488105805 4.171733096487171 0.8951563050745616 -1.6631129376714584 0.7165805921177659
Ni 7.655953305747481 5.459569137241872 6.835004646639814 0.8976011670706283 -0.4994473306027463 -0.8680586775268211
Ni 0.9133168837721899 3.7189219726057483 1.4255824104918862 1.5905165543609705 0.5653081949616136 -0.3878982201781449
Ni 7.885879794561159 3.3163108291178616 8.637831882709076 -0.19581341699132082 -0.8505296675041223 0.34836648063210973
Ni 6.900923549438984 3.1020194532894063 2.4983569599661504 0.49510936534902467 -0.07710352715222205 -1.5611717826502662
Ni 6.744488610166334 3.599270056734906 -0.0055835698308161685 -1.3464880111170037 -0.18715291310284543 0.3233571030719657
Ni 1.8297179542154376 7.571994890813127 4.298144707721904 1.3958593624612798 -1.7127545119579857 -0.4280783919414563
Ni 5.673422841652635 4.414223548635968 3.983035255220115 0.6016525379186025 -1.169885619836495 0.02828342032572548
Ni 3.9594456970222773 0.012964386121518127 0.43723840235361405 -0.5778130122968436 -0.19461014071183905 0.288723057937864
Ni 9.341304877229192 8.057149001246236 10.177967802663577 -0.3650560254726487 -1.7223257005861885 0.4197526456845803
Ni 1.3230806956841095 5.379689447434099 8.962780561166904 0.30533315569071934 1.275347900637068 0.7631756662684857
Ni 4.926746090911586 6.650864175411455 13.472111040083211 -0.2833427674625572 -0.3396524977978796 -0.1056445720147084
Ni 5.133578428323624 5.782300590921985 5.757323521208485 0.39750617558155416 1.7321935945192037 -0.2671455888774044
Ni 6.499094627208248 4.472247604032592 11.422103749185368 2.369178489190513 0.1719587218609103 0.18900847825434544
Ni 9.05835496176997 8.190759841694119 12.98228874493331 -1.0295820629870203 1.7325211530619515 -2.728516638342778
Ni 8.505482839646243 4.45811174845691 12.802300564878335 2.9238605718968484 0.6284192644894855 -1.093971999227316
Ni 7.833517531121068 8.685673093525983 3.279914260265718 -1.586846561708551 -0.6919455671779051 0.40390205180556893
Ni 2.756259033312414 2.7024999461988357 0.17791156886039383 -0.10303233120284191 -0.6720169465747781 0.5757543299956019
Ni 5.739017681359554 1.0344317396370635 2.5842755841222966 0.5908472197729824 -1.8290359948612498 -1.0039530495650064
Ni 3.4120211872251467 -0.2960176665325777 5.164163279478281 0.2742181794534697 0.5079232292842414 1.3851208929978531
P -0.07718382011794499 6.611036076401446 3.0134757318428878 0.6780338421928194 0.40716760993071816 -0.3816275566780847
P 9.194424211883188 0.2055882331268527 5.13274778384579 -1.9708395332950188 0.4678466729783297 -0.20316600070165008
P 3.964623256772 1.488036259365026 7.217687772385964 -0.3111392208495351 -2.8369143476225918 -1.7858268064636276
P 3.4767965570436217 3.8225849134940835 10.598376342183245 0.008813484526571918 0.7393464250593719 -0.21142695515886167
P 2.106279729407915 3.849552922550193 5.177983452903755 0.614542249397077 -0.5863701578382353 -0.836718472652643
P 1.6302329093259382 1.7131390504262656 2.858810102556654 2.403294714147932 -1.6317835314305575 -2.0988437039518497
P 5.486481273351043 2.1094831116991104 4.275560862568977 -0.9269893904247584 1.228458178064065 1.5781104673871338
P 0.6350165287141132 1.9039265399088567 8.047779108044487 1.9574885659094095 1.3656722973549384 0.6322376097943112
