# total energy = -381164.85166354146 ev
CRYSTAL
PRIMVEC
9.30745953931187 0.00000000000000 0.00000000000000

0.00000000000000 9.30745953931187 0.00000000000000

0.00000000000000 0.00000000000000 13.62240784821901

PRIMCOORD
 96 1
Ni 4.091019257535632 4.562563065964697 4.313208786453784 0.7149248016818978 0.2957252002873101 0.43343194294388576
Ni 0.32579458091166325 8.696945776187123 6.82770081086264 2.0780229105517565 -1.1225613808292345 -2.662635462268937
Ni 3.5644776723462632 4.434604116074585 6.550511643692332 0.6443035398199096 -1.0282582019692743 1.6725506860455905
Ni 2.523913034670623 0.40883945540246486 0.9693272060005641 0.6165297121407511 2.053869196123689 -0.7912999353085275
Ni 7.819494362022119 0.7816525282518558 10.302762652855447 -0.18950238717162846 -0.10559572105464395 1.1145351680906481
Ni 8.051026718544263 7.808911780844853 10.542108621425362 1.7675058966672526 -0.8097396300709537 1.0608186524037988
Ni 6.353094848337427 6.320211594776054 3.8322690979029517 -0.6166179009791831 -0.29831430117072494 -0.27695049078296824
Ni 8.275773937266736 6.916056521606519 2.6417659452975206 -0.804213300936086 0.0057088774593192 0.8208100289525024
Ni 2.3030470264590743 1.8496993008809826 6.138038556195228 -1.4042804966454394 0.4819651146575828 1.1208053173700763
Ni 2.5017892040124328 5.697486725606147 13.276507054996182 0.8864400082474861 0.7117934551417677 1.0510690292162026
Ni 8.15260832889491 4.984218892766542 13.235557957241125 -1.80339078348932 0.36437751134838536 -1.2851715715957093
Ni 0.9471456690949694 4.207697566804068 12.588820773929417 0.24910878598035163 0.02294838126605725 -0.7310296776635604
Ni 1.646405775750066 2.8473193215364763 3.9545030296029706 0.35540513264644596 2.742032927661658 1.1354752606774252
Ni 4.884117168438046 6.605429376303011 12.747549253383227 -0.46258105370401625 0.6428716924693896 -0.04524164544661886
Ni 6.090717571831588 2.3778324616036084 3.4757571091994395 -1.4344125401441297 -0.20980073240934832 -0.38470285316929875
Ni 2.4966328715830524 7.163858316913062 7.316772426567895 -0.23573982087261336 1.366133296151757 -0.47703605278708167
Ni 6.441711167940553 5.96429435271918 6.218751912141697 0.9902246442353204 -1.135293226573606 0.14918568983045274
Ni 9.098329956723282 8.383517085646714 4.342755315870875 -0.9792187800431201 -1.5270977237846926 -0.20549284906261384
Ni 2.035038737101656 7.649372621689599 9.802697997019612 -0.19311864376797708 -0.7094324111087589 0.6931460152439095
Ni 8.097368558193875 8.713261752267815 8.338589049058514 -0.31309145947989947 -0.5321543339174641 0.5031468909415205
Ni 6.394233818261365 6.102081979586595 0.8886343264644637 -0.03512229762442984 -0.06573282342143519 0.262865987665444
Ni 4.663567613841297 5.37950668748818 9.737664917686459 0.6428884046399379 5.660456901923967 -1.114146931513294
Ni 3.7248824252125856 3.537681497140151 9.638180277906823 -1.502247497510232 -2.678264169945129 0.3345876816804625
Ni 1.573677289101729 1.5464902006067465 10.682405539308952 -0.6411122865761217 1.030988456416244 -0.03293017506911748
P 4.752211855822198 6.199279776626342 7.543557978868046 -0.5779927324078175 -1.2560216895046306 2.365023329371559
Ni 0.7744615852284996 1.8221585289341655 2.177705334112539 -0.4371659560650213 -0.5829001970117639 -0.9622968074768007
P 5.507819320830127 1.9653724045494667 9.709303227833015 0.371960723012282 1.0121175876536699 -0.21087442508950133
Ni 0.5834455296058788 9.010700227801589 12.519346175037958 -0.14242008897184505 1.6615651335683643 -0.5465795082038586
P 1.0306428861057493 3.6513255746902145 10.011475477145819 2.0971259499297945 -1.208277846461448 0.17780746733220346
P 8.387212146972463 6.823102925988789 6.9937710141798 0.49068886768382586 -1.2497507688942542 0.7122166587221154
P 2.253577880498502 1.4123510977687843 12.716190561648448 0.4948612538939607 -1.0818988701128658 0.654925281199814
Ni 3.1271573916118416 3.2499600090725735 11.990020728784279 -0.4994774125097334 0.377045336624041 -0.009232060121229261
Ni 6.535092906684188 1.1748898896987785 8.06405623076067 -0.4059360515164622 0.01286322911591333 -1.0362625603309896
Ni 7.957980048333945 1.467181340262431 5.60203780016113 -1.171733214568195 0.07426734325500758 1.5750048318786165
Ni 4.559733598350019 0.544948016619591 13.187648741452328 0.04078258123400073 -0.24070667795958545 0.7313659779570565
Ni 6.937808053894357 6.096488196572051 11.373197719530383 -0.6725208827943902 -0.23481653772739558 0.9535684264648675
Ni 7.479492875297809 5.408611112590478 8.776344918886249 -1.4953109182913988 0.7365441797238864 0.010026788108382732
Ni 0.06342381962730538 6.516440758329534 8.98777874788492 2.117145330474515 2.044290294186002 -1.1008769538772654
Ni 5.408173662005313 8.295766359754658 7.205776321176962 -0.30908568075461607 -1.6523808959659347 1.2632284916657148
Ni 6.3900640765134185 8.601125483117679 12.105784114807573 -1.8479336030967013 0.497813137433433 -1.3732850767051898
Ni 4.174572319301966 6.772703034102335 5.632675163803354 0.9259344667976829 0.9277427236510153 -1.15438392465647
Ni 7.30967828112083 8.298977433198948 5.907806451731539 0.38193506061617455 0.7225761475795685 -0.5758988259932663
Ni 6.198805096204143 2.023934938205896 11.88482875498714 -1.3182277307197299 -0.24169603845604826 -1.545691170516164
Ni 3.690863661621637 7.680422305776988 1.1695036630257052 0.852890454426815 -0.3754484244505663 -1.15439189507627
Ni 8.616222182035468 2.8642030526319564 3.9206378390897925 -1.0849176023345315 0.2605699925424158 0.17017771870108758
Ni 2.6384599357687915 9.236043123916627 4.7313342939587635 2.1980600038427114 -2.0920842737408294 0.06092640317172733
Ni 0.652053604040341 5.164969751572622 7.02555226456493 -0.1390393454250702 0.11129508543226638 -0.549583585137505
Ni 6.082945843350483 8.428937486829705 1.3931498093178605 -0.24335517132602605 0.32138455272662714 0.053881580509803975
Ni 4.313411689065626 2.413610334994472 1.2108101672163016 -0.03233933556265399 -1.4183657710939122 -0.446029062882606
Ni 6.181074386316111 8.16573184644983 9.3985895231584 -2.087070879686638 -0.43045074882837475 1.1266903153959433
Ni 6.396346611513115 3.1625908890101293 0.33089599933141667 -0.2989840735442399 0.9496518650192807 0.2315520080435109
Ni 4.718844614379367 4.422550956334426 2.250694429620123 0.8093516506039159 0.7988322391298307 -1.4434905911859979
Ni 2.7698533381254045 8.21225983528462 12.469733694204802 0.7066664183278475 -0.4146862869052665 -0.4062888068701906
Ni 2.572674813727526 5.265592693619611 2.0752236924515657 -1.4110288711128665 0.8235161150297559 -0.129379453737803
Ni 7.810642968266991 3.8341613043702676 7.1234974505831605 0.12298434884473657 -0.8169088941258834 -1.2145554519400437
Ni 3.895925604011727 6.826276769596042 3.282073535753244 0.034458695898501944 0.6945657784095716 0.42563095884222824
P 4.4193771127271715 7.832515497525193 10.936055211267806 0.04620555202178494 -0.05637426502467065 0.2016066266343302
Ni 8.82041853071449 3.059268783778085 0.42647429846013113 0.3648256546293975 -1.2387623882035506 1.4968049863384223
P 6.76297673917688 4.075150039499363 4.555659723432438 0.27473985628489456 1.5603184335110354 1.3355909045885257
Ni 2.4669420765474506 5.342025549052955 8.565947010103084 -0.037355043609690504 -0.5732683303489547 1.2541784656483046
P 2.5880879662601144 3.164750219558173 2.07917470890693 -0.4076797736804463 -0.21219931454851199 0.2468683266856071
P 5.625847211691091 8.25041111078648 4.51513318432773 -1.450640571967218 0.5166305272502522 -0.6437718356861558
P 1.5040016490902814 7.271117477411582 4.141960843550948 1.2027805707923027 0.32471233154827944 -1.4272677015692323
Ni 9.156911105298228 1.467832862410548 7.595717911300341 -0.6195201622276427 1.66405190454596 0.9659110071906204
Ni 3.826529187778044 8.795251160878669 9.058247383425218 1.3039164563033803 0.5865781600839832 -0.03892573053092005
Ni 7.226590592317438 0.3518135832696651 3.7852990047533694 -1.4231451947604263 -0.6373595044019088 -0.26173753048795567
Ni 4.989524144544064 0.7045886270807652 5.9814489308790915 -0.33877549450956496 0.2643590272712028 -2.0218311938515368
Ni 0.11950033091570657 4.44347412474823 2.459934490471493 1.0984477756104825 0.6295577489693028 -0.9239454613921119
Ni 2.711169807498611 5.79378169909779 10.923277000451385 -0.31957423899076576 -0.6866344393776368 0.9212674003393165
Ni 3.755941416759233 2.3531770020270226 4.580003383123854 1.3209361307898282 -1.0658513297316998 -1.5348555133532404
Ni 9.205775266406977 5.724189826219671 4.611021421849762 -1.0051817797657852 0.01861375844644536 0.13401386718602082
Ni 8.501144755759547 2.9701405539157255 11.644624638673564 -0.4151999933168914 -1.0319168817677842 0.36268752524047215
Ni 1.6623215310826305 0.39518634341571723 8.54992701122682 0.3271538511102366 0.7934869156575174 -0.1631542361954029
Ni 8.423390241111454 9.161034309749882 1.9137988420504775 1.2939976545277714 0.03215215925251237 -1.0267296811398898
Ni 7.9569283054377 8.099769882682649 13.485038818197959 0.6996064261572725 -1.8747455810832228 0.792508610904648
Ni 0.28529968716843496 6.707532204372152 12.280682443231715 0.6767578036938732 -0.5385388972875692 -1.1326807286514236
Ni 3.9947708213402837 1.2299062813776012 10.960984310146602 -0.44080226726602795 -1.0639026906457612 -0.19489116228736758
Ni -0.01544759013184608 6.320137135101983 0.8859007256801513 2.183733045697078 0.01015277216328574 -0.3055396152745706
Ni 1.7631585446925722 3.0340548766459703 8.098194129830132 -0.5655218536343164 0.4012826119048508 0.3643158048725145
Ni 0.7618378782357764 0.9314439853253578 4.6249165277772395 -1.7011331256689735 1.5461570544089887 -0.08080334460131246
Ni 1.5588877363394806 8.113535614926429 2.0039108703564934 -1.7278970240263791 -1.8779144657295077 1.7953977379815143
Ni 7.754183920403054 2.801973380027556 9.425193964703782 0.12893311022900375 1.8570183390067891 -1.2289873110946576
Ni 5.749850491396209 4.106972242705232 8.091056239324551 -1.713975014628648 -1.089007456133189 -0.36327502231282593
Ni 6.050360428485392 4.048270097159921 10.627275596627172 1.032200988667106 -1.2752196025893199 1.4093705095738374
Ni 5.576526985078659 2.895141047208239 5.906104117433103 0.7837781730101857 1.244419586489328 0.7616139782083206
Ni 3.91897087313654 1.998972332473769 7.883846135337527 1.265152448161305 -0.493858266550743 0.11484037958136352
Ni 2.2491103000542734 5.681477895680995 5.202901371035975 -1.1910717669958069 -0.5344523859230215 -0.4701976897090096
Ni 7.023185377675416 4.418148528105009 2.4926557942417635 1.294544528170177 0.054616144682983356 -1.054544903579945
P 3.0997841539316826 9.34757440821494 7.030006814566197 0.7045563139633801 -0.7484476160296917 -1.1944167722086396
Ni 4.3085718102510455 0.25968649003411715 2.793901020612391 0.37421635181567814 -0.19806621758123955 0.48961671766556975
P 0.4780636836398603 9.001262464113157 10.177354877548174 -1.0733944321862803 -0.032740684766130713 0.7593020422456923
Ni 8.924997142946472 4.929528262161778 10.452132482024526 -1.3311565229662559 1.1024437841437529 2.0556347726645434
P 0.31354503378114407 3.112916978945863 6.209052608848092 0.8335902114363063 -0.5089411290257944 -1.014251089056905
P 4.713371828335187 4.49648010522715 12.61523441255999 1.0936863496660971 -0.32231323518848365 0.3787813454785412
P 7.358365600503662 1.711148462354345 1.8864991332984635 0.6564324618729598 0.5527468133568352 -1.2116663033177069
Ni 7.663063894259308 1.1466696732260682 13.197974436754052 1.0008209316939278 -0.9856573365796121 1.4544434906530757
