# total energy = -340863.79683002905 ev
CRYSTAL
PRIMVEC
9.31794128505917 0.00000000000000 0.00000000000000
0.00000000000000 9.31794128505917 0.00000000000000
0.00000000000000 0.00000000000000 13.63774894262436
PRIMCOORD
 96 1
Ni 1.0654040789757124 5.0342413644034325 5.298306227273707 -0.4520323316538925 -0.4435685171572555 -0.11266548341723176
Ni 8.500086865862533 2.2184713487699863 12.475689908396266 0.8333037905441391 -0.41581320142085804 1.1814758957772558
Ni 8.76201419302131 7.39897643620477 5.444107780421492 1.0720021798244441 -1.582795788677945 -1.0024972909550864
Ni 0.318479775895597 6.131699161110421 7.408939178936829 -1.2521444659374112 -1.858944352384908 -0.8094537233994189
Ni 3.302846756030838 5.3247281813431275 4.460525474925463 0.4285031381837007 0.05888674703387923 -1.6463305760067968
Ni 3.5130688274655286 2.396975148356634 2.22692178964513 -0.8371419333433067 -0.5330192530209208 -1.2337749622912881
Ni 0.2927147366808432 6.507566273274445 12.648234884584904 -1.33290821555004 0.5770756199101867 0.871523239036654
Ni 0.9319059353896654 3.2305022605466425 7.302550653480833 0.7756948817814189 0.08405244766622944 -2.560105267513494
Ni 2.8879467881760243 3.154048552992827 9.175163319724463 -0.48921896800651876 -1.664860002269552 0.8256480737710941
Ni 8.617874960583775 7.429241109225464 9.13629632338705 0.14979349861778074 -0.16297040231937093 -0.4259415481041116
Ni 6.229090282542778 6.730824144449268 5.501713156514021 0.8403406427862624 -0.7681558930918964 -0.2249710123918835
Ni 8.966543002382217 4.303183651600299 11.237928143850054 -0.8603636228754086 1.553009301444132 0.9482156467933862
Ni 1.7548012766693868 8.818956131700329 5.551763545880816 -0.005077928743539642 -0.6723313924914034 -0.00013292603343848072
Ni 8.054502917632982 3.2237933428819563 1.2173452235808047 -1.1629786083040166 0.9144976857156508 -1.0133972256970418
Ni 1.4238932307999594 1.2821021195450646 3.7096037750701396 1.0891005300676275 -0.7333063895128791 -1.1396635877271597
Ni 3.9078140885026813 5.056529879756111 1.2704807832792366 -3.2621568127771496 -0.3510106031231761 1.6065538103294912
Ni 3.81036705942312 4.171167060665203 11.154042446394357 0.021095387217718507 0.1921843048791658 0.7398135945037776
Ni 3.4429979096343653 7.526678820363825 10.90306649552906 -1.4457184520752522 0.7275800285520632 -3.3519986134316464
Ni 3.3315739687533745 3.992952117255785 6.3629918929828255 -0.8327851990365076 0.3858727051076838 1.2901957642831778
Ni 5.503614016519014 8.459991764874834 10.161554984492579 0.7733973439964937 -0.16436136912962662 -0.23156254956647218
Ni 8.776876309236828 0.4940223337685821 4.970563486030242 -0.15972207058540236 0.05864917710177641 0.6708095565302383
Ni 5.3403170969723215 5.083160555708433 7.4917877895368585 -1.2247755870061552 -1.1875066753523678 -0.17711044126517883
Ni 2.3419340696826074 0.9494888904358628 10.251004424639362 0.7240056809372435 -0.9302750031545657 1.487806639494554
Ni 3.3912647000866767 2.814381642394504 4.397914500819783 0.6898686300442183 -0.8138935043383272 1.3912149217107332
P 4.936235258851814 5.82961150737554 2.8429252916753818 0.20463924281306692 0.8895464150869519 3.599134334846027
P 0.2565639202035076 8.5545409142409 7.158400239513857 0.2173417779813999 0.7129923605458752 0.49204409616013967
P 0.4699978859701662 8.636203350926047 0.47468481039424526 0.9199342833501899 -1.0477373937398085 1.8260368030236098
P 3.3678953035546875 8.799677311355559 8.745329487506883 1.6611851245211262 1.9768597713471696 0.7456492273489481
P 9.646305448874106 1.8760649634585833 10.395769822725601 -1.7726604442849987 -0.7006320392083094 -0.1563827217995242
P 4.01157868171649 0.28299798759648986 2.511555075922387 -0.10902043046547676 -1.0510710860987318 0.9467048665758148
P 7.018962840206323 2.5645862746793684 5.262111616472727 -0.3143369018512264 -0.35893294329404635 -1.7854388269965895
P 1.232605215885605 5.889842679298497 3.2853336855436477 0.6107840679062255 -0.41129654449742714 -1.0867587693083285
Ni 5.008169764923166 4.308308519260822 13.306964874198004 -0.2640011297111518 -0.7795561645090381 -0.6276775012274545
Ni 1.7325407151403112 3.698663580306101 3.1328222829370573 -1.232945010190825 0.977715456024716 -0.4687807547568249
Ni 4.544564918410974 0.9022171111351904 0.537151356411311 3.2896239078491667 -2.9188685179988956 2.5296919453289592
Ni 8.794198361929398 1.5491077246583598 7.732085379785864 -1.9200242504153644 -2.0075170912217106 -0.040730130729510504
Ni 7.008489474296452 7.0363408005461 11.912764194828998 -0.2562032309332878 -0.4229901787852715 0.22427630031770407
Ni 4.83172523034193 1.205061381695589 9.218995846927864 -0.2622648637463354 -0.16159100547334104 -0.0009996449091079559
Ni 3.349762589977634 9.115415748949836 12.468844016995925 0.0927134657753371 0.41039665839097705 0.49875673229362494
Ni 9.148354671095204 8.851401202962046 3.036035895888643 0.22787301653002692 -1.373625490763744 -0.957824373527744
Ni 1.6382245143042697 3.1827850836565643 11.400366881012138 0.8999686388615404 -0.03607232024252497 1.3538403377170167
Ni 6.449310504886089 3.958522324518265 11.812254358476684 1.4337741352291824 -0.5580384007730776 -1.923256641309733
Ni 1.7555001222594586 7.5218707627041335 8.432710696626685 -0.33089197799643016 0.2047197183420152 0.4333221568388988
Ni 2.10620879318091 0.4737381075682285 1.306776027845187 1.211027384182127 -0.61473996723018 -0.27029030515397323
Ni 5.549504876933706 4.1336437114489675 4.19891309417928 -0.41938806325630995 -0.5322885455024832 0.5354078078577553
Ni 0.9995448705673798 0.19787300396106783 12.268491508881285 -0.07704053512477055 0.37202011549530767 -1.090757606055076
Ni 5.142553112923305 6.0445298211755105 10.734039973937902 1.0493934412859929 -0.7554019358603378 -0.3725132530816423
Ni 6.046887260299351 0.41147096549286316 12.226923241389713 -0.9944247983595971 0.06377030037842565 0.15427056055252786
Ni 7.5497686786597855 2.0383834991791767 3.243997434787982 0.17956018835725207 -0.043609509159834574 -0.28170497474881806
Ni 9.29566200354106 2.6481122996047066 4.930210278071277 -0.038651908044243115 1.9531670557159204 0.635340417089351
Ni 7.972812527124232 8.832588279677323 13.266338650561849 -0.6696278775173112 0.6202549835111383 0.19128724698619315
Ni 3.0727588339557173 5.417460332175007 8.978480216854758 1.0867932220906897 0.4292467012179446 0.850915075867999
Ni 0.5437130506050218 4.784762806689129 1.101163541922608 0.3966230016456524 0.15864195014734614 0.06421535833564425
Ni 7.521982577998545 8.882625623926439 6.660880882412558 -2.137781775777944 0.27707441795534216 1.843947878976076
Ni 7.5260452003621605 3.5173178086531625 6.988650645685504 0.9462040156799961 0.3967983508812521 1.4333547883035767
Ni 3.9334291088641 0.5988146958968545 6.268359813940071 -0.73848716238287 0.3608638417681721 0.5039079374772611
P 6.6098027241312955 1.5242660934166203 0.5279703889460126 1.0590607891724277 1.3941778609937987 -0.4845297900609656
P 4.992142906057529 7.623044968264077 12.711417980280322 1.6911569882928679 1.1161585626266841 -0.3111677600946254
P 1.9509253030670362 1.7542701540209327 5.719235834879657 0.2196863669541765 0.4986094080824833 1.20693753038347
P 0.8512218825306174 8.224844200727595 10.345555437593667 0.6224165099388314 -0.47049876588919615 2.258261613033272
P 2.4913658927222837 6.397670474750411 6.230896099547523 0.781999483843208 0.7021132517395263 0.4536485271010768
P 1.3042695016621306 2.6969569473801003 0.3146827148562089 -1.1398466502722433 -0.7523549215038978 0.27521268215625505
P 4.346027545242279 2.790723389685285 7.795787484806175 0.8604867787168342 1.4667318211021256 -1.5238357652039691
P 1.2277226146963056 4.508355398904072 8.86415466908379 -0.6839746331572866 2.1326436832204303 1.3421850128662756
Ni 5.436906875461395 1.2457435129789478 4.000578852128765 -0.7608588452098509 0.1544816481220694 0.34549790083506304
Ni 5.591258571455174 3.190183528970121 1.8906559275851549 1.2497314856205446 0.058563816476821726 -0.3951248198335711
Ni 4.1731238283174035 7.468059652268633 1.359494143777816 -0.3095595350672411 1.8091958202068712 0.07632294023245564
Ni 7.0256810758122095 9.154541784052636 1.693085756713118 0.3083770847233657 -0.03557789710460969 1.019467857371154
Ni 1.7004404077030297 5.8903924378293535 11.05272753992228 0.40297902577066724 -0.6909927163463326 -1.2064024838156062
Ni 1.7303696348404896 6.924702547017487 1.0218352495082985 -0.2370431130650692 0.32141334908203356 0.8745206311020809
Ni 4.041340185912332 7.03116002523837 7.85442994775437 1.012268254298921 0.7475001645147579 -1.5090305818703365
Ni 7.97367909565592 4.832069994166365 4.888096911019453 0.5688028383784333 0.038374228902824235 2.2994882237832273
Ni 2.3134863951960996 7.840758664424333 3.2797559659407574 -0.7726841199795531 0.4949306736793154 -0.7975695703673232
Ni 3.264987960931368 6.550820156329267 12.883690872585893 -1.3062607881658406 -2.164014741332544 0.8995868300420895
Ni 4.122070828477384 7.545389246295338 4.649817586834574 -2.5132289146769295 -0.6172506494671757 1.5061704867137222
Ni 5.989032163382637 1.7525556528399575 7.160622568490284 1.5767398122918521 -1.6073166566374446 -0.924465338451324
Ni 0.09613319937022735 1.4875720409672692 1.7127512716177284 -0.7349516384257858 0.12218576420284118 -0.5193430410854087
Ni 3.426486517826277 2.0945520487385183 13.040892926793044 -2.982398163121425 3.730983076059929 -2.092418002931164
Ni 8.386696839388142 6.954277692389311 1.2425437319705408 0.18724752969918074 -0.27283646861459465 0.2905729666624093
Ni 6.077496697144481 6.077170569202448 1.1640894624408806 1.3998674551794086 0.2729321136521945 -2.590626318920487
Ni 5.890970150183812 3.6223496418702994 9.38328978618306 -0.003598001763903481 0.08108590883873777 0.08516419267316945
Ni 7.310959163620573 5.009996081398554 2.8729421074601302 0.07213024230734674 -0.08832896355439626 -2.3374227940454713
Ni 6.47758113848978 6.979370908043476 8.426410836580722 -0.40396118717827856 0.010740526345955697 0.18582699520257032
Ni 7.163279113526675 1.8473004789712428 10.636666556593827 -0.017805403612537078 -0.2119738288012672 -1.830785116341873
Ni 8.743983976797466 3.460692679974974 9.128195305306942 -1.4657979964339467 -0.12328362525271026 0.2385135269630086
Ni 1.7732321643648712 1.0907581969835043 8.070778565528688 0.5632266298422365 -1.1442879738730485 -2.050710081669417
Ni 5.805794849665905 8.176297727070633 3.374634038631217 0.8310018818838398 -0.5045525130397955 -0.7051281273064501
Ni 8.07375378415415 8.876056475379768 11.043494391986256 0.5035970911050618 1.2504130850686015 -2.0189212192935937
P 5.575911922297205 8.750487899755731 5.573543301643923 0.8316868237660064 1.851756062166585 0.22066801414115542
P 7.867221617435037 7.068142933864951 3.4960915385973927 -0.8110524353451063 0.061953044664028796 -0.5749518886989647
P 2.6107287195064854 4.372341411193768 13.267292807740827 0.2602367775727131 0.8714137100419831 -1.0355472794315197
P 7.271302005869319 5.366705506453418 10.173051460346315 -0.5782817244031461 0.5349869182702528 -0.7790730542250325
P 7.691429338737867 5.25578473439728 13.006348523378751 0.9246417161281882 -0.10661927722315186 1.7848222764585133
P 7.294811171519322 5.574197421116231 6.978913397130509 1.7532231614959934 1.489348787170693 -0.3196457156586495
P 6.984430550115593 0.4101729762835705 8.754234643912634 -0.18061151243990184 -0.6700927329688717 0.8722783720351236
P 4.173785402142671 2.0615479010047446 11.032051960191486 0.2515798732286635 -0.05180438626580111 0.888910838385482
