# total energy = -340885.5746908876 ev
CRYSTAL
PRIMVEC
9.11727173772517 0.00000000000000 0.00000000000000

0.00000000000000 9.11727173772517 0.00000000000000

0.00000000000000 0.00000000000000 13.34404877611265

PRIMCOORD
 96 1
Ni 5.019021718343274 2.878860661589465 9.874129475347932 0.888408959048399 1.5819822916377142 0.5272808078752467
Ni 4.750855399602301 0.5339211190612824 6.248817704343423 -1.1838356542586839 -0.8812054993214243 1.1440210933649073
Ni 2.7841230891542335 1.717684910906082 5.005259196392454 -0.1594104528822545 -1.4380452518007103 1.0572173082057859
Ni 3.6468631783495575 2.7040460899531333 3.0355446263020447 -0.2392727737265363 1.522003597091237 -2.173297709296367
Ni 5.199352239486228 2.949437463458498 0.9741367408677463 -0.605628234736899 0.3383360929793012 -1.3784859041798387
Ni 5.3103185559244155 4.6604941176847205 2.789026357988385 -0.9876286013733699 0.9550516958786133 0.423642981877922
Ni 5.065556274180962 4.669966963201053 11.961591788724505 0.6687866125629385 -0.23857317655635046 -0.37324396060007975
Ni 5.434559620266143 8.35991836860565 12.727913992271258 0.8936858911766221 -1.6672303022739416 -0.30507475982301
Ni 2.370126006184455 5.86114765574608 11.666355377950287 -0.605034567016958 -1.0820269110502978 -0.6775427614890138
Ni 0.41478937389891196 7.4182409391981965 11.516181145382713 1.9481840006790319 0.9420403712206098 -0.6611985158030355
Ni 7.992756711446647 8.938281629600867 7.3193039513204035 -1.3296519133962714 1.3067850361004267 -0.9405846126106898
Ni 8.71750689025729 2.5626736716891845 1.8400377882348817 0.420649703577553 0.6946585952336939 -0.9179442495033546
Ni 1.4410668811028957 1.2362929539644787 2.85183706764297 0.34032689815708483 0.6167125175755185 0.4213888957364226
Ni 1.8893631410047638 6.886539875847431 0.46647427663956076 0.2693767922007683 -0.25243245103694595 1.039700382367945
Ni 7.763056162901443 4.346951136638855 3.5698003492424895 0.8945706077744205 -0.879343506412021 0.5882002690684387
Ni 7.752361602948934 4.044394468246675 12.690964424394418 -0.4898879690490853 -0.2843475545779877 0.6464069593161577
Ni 6.728428146353466 0.9050743178632585 9.601496605097381 0.006996743032807304 -0.8036085774725515 -1.1139116755740364
Ni 6.875444155930803 1.2284338655765306 0.5033974044278582 1.0367564692482725 -1.269688902579078 -0.29911828512925903
Ni 2.0656547106908025 6.813464941474572 9.324754580396196 -1.290973522989467 -1.483320578698742 -0.20744174525886855
Ni 0.11458404993277808 4.993210721561045 1.47721321732431 -0.14443840495345447 -0.5202465267362847 0.8809715289337472
Ni 6.257457231207019 2.4123116233202277 7.114232801117661 0.6619086544961826 -0.030832411999824314 0.34267405823302277
Ni 3.652670880557357 4.767576476288492 0.7499740232817533 -0.6838455637785901 -0.2431379131088974 -0.5318612281570776
Ni 6.222383086162429 5.778116660445565 4.914266087531387 -0.19677680934585465 1.1431456327384892 -0.4572071909866126
Ni 6.592890782113052 1.8993647882919786 11.627003408924693 -0.9165368276328668 2.026054745014582 0.5660278467364575
P 0.3516905584519148 5.675483530534739 12.730836989646171 -0.6731407757665763 0.7949087357057084 0.12099045834315936
P 4.1357677673464615 6.473399816437358 12.5418177083713 0.3983404985573914 1.211862478488913 1.503200862562437
P 2.261903988591712 8.799708213813833 1.5223026855639825 2.010150929300132 -0.365100505557339 -0.18549737977729344
P 6.476417633440155 7.833833544752536 5.821421878572104 -0.19875398767688351 0.8374126705061902 0.7100471618746222
P 4.781152094165122 1.211958955231957 12.623990768384914 -0.6889129509991685 2.2479728295127543 2.9411442986779606
P 4.151467709578535 6.023626558485783 8.281103199837137 0.3873775717879845 0.4409495914771696 0.5028293597011018
P 4.7112135013299135 1.3486815648209018 4.112009068471573 1.1105353029026357 -2.479971438175381 -0.17750973358612657
P 0.5072877443526116 6.034466994788881 3.499850815680986 -2.710516345110616 -1.4273229802871998 0.851168843750018
Ni 0.5788510350424987 0.39367741906001086 5.443158119406136 -0.8186251054860417 -0.2893167256578049 -2.3040375337168064
Ni 1.9950049706464752 6.521028444904459 4.957740886915484 -0.427583968803541 -0.3158847059543205 1.1627284399664233
Ni 8.141559706318692 7.643856949926926 9.301402511848572 1.1292508770342682 -1.0242691354145392 0.3685694379425459
Ni 8.678083806510784 2.3712930169891617 10.482537794201209 -0.8174915061022309 2.2864342188127464 -0.5851365425414503
Ni 3.587974719071417 4.374220896926968 4.909528753046031 -0.04064579854582032 0.578199706212301 0.18155227908661636
Ni 1.1833307214289905 1.4779918323455754 7.249901454073606 0.9581100230889628 -0.8924453339013018 1.370630669801478
Ni 1.471153878411746 1.5123730647248705 11.593749983080883 1.1678996997547175 -3.331809540078281 1.0721263641071341
Ni 4.185812472870182 7.0921343574579065 1.4242901890580424 -0.011262974508328989 0.8104932204075268 0.40446100963283244
Ni 5.764094296245259 8.084038837827316 8.344768197869856 -0.7447606540964077 0.033287301298220086 -0.8409348247268356
Ni 6.657650764502375 0.8983056551959584 5.030319841696343 2.117814331517082 -1.0046727013398504 -0.17399760666781
Ni 0.7889831828834644 7.7164030825289025 7.269798076566667 0.7797189153391475 -1.08223928417142 -0.03115302856403667
Ni 5.1259855524121924 4.70636311267285 6.7143255501603365 0.7568070437379805 0.41591681687825793 1.147838153118152
Ni 0.34832719684366187 0.4849823386204595 9.561064239350243 0.3634105194494257 -1.049694003245547 -0.8274622441616976
Ni 4.370045186391375 0.7250793123266578 10.695708728770366 -0.9851387450719808 -1.730520577692155 -1.5481000370679725
Ni 8.562814137730241 7.626980879618234 4.958875075541309 -1.3036763152681161 -1.2177587893686899 -0.20819430715417694
Ni 7.4824903543604595 6.399476975776704 7.312084895420662 -0.08694493872267607 0.22503606130186404 -1.851154166916528
Ni 2.4402104753702525 5.567690024721849 2.749995316934086 0.6865516498558434 -0.3071043886585292 -0.7561365000335172
Ni 3.1728562116564905 4.308585656434115 9.85718229031833 0.06073562731715991 1.738215889453884 -1.2096641852860133
Ni 1.5034563727951566 3.4863171372551505 4.074071188319495 -1.9439056850186522 0.5354044654236456 -0.8270362123678725
Ni 0.4682776730237094 0.18569603566303233 0.4674097087377086 -0.004348763886998962 0.3806916751273766 -0.632245323103795
Ni 2.296266986427183 5.405840213744058 7.314139928509574 0.1259460025762218 -0.28010754835471113 -0.7243756626821525
Ni 5.742313133648034 3.1458782040695548 4.728530847599135 0.40921703626057915 0.9791017948492815 0.7192473403166515
Ni 4.15581664828045 6.964820772481912 6.153074496816324 0.5597003618565329 0.37180697104323707 1.4435975490775073
Ni 0.9301714322547955 8.003505975030627 2.9855445954106914 0.5299290441313713 -0.37106546489152226 0.1595462071291704
P 0.16596443579157363 5.807428689641915 8.470682281607395 1.4349686697579158 0.4325971057474163 -0.09703034798313612
P 8.164015547037387 1.8235911414332349 8.231049377041504 1.129724731346893 0.8683474124118334 -0.5079016320176866
P 1.5909730658762637 3.4037693573659595 10.946604199328869 0.06488487359884308 2.212740231562705 -3.1468883445194322
P 4.108388599795409 6.396267696063761 4.035240727247255 0.8834400450788978 -0.9909250127364546 -1.2709240605377596
P 6.678255799022981 4.082176443049061 10.679135351889146 1.6602222463872247 -0.1963438355734941 -0.4417890566593295
P 6.509996545891214 7.881899802271401 10.548216797599238 -2.5302532171490677 1.4327408088686617 -0.8673827345057191
P 2.402665549637572 8.751414024497173 6.1500585032679105 0.6450877262841019 -0.07397655148746614 1.1532752649733236
P 6.884470255123459 4.140171409679848 1.4904369085051454 1.693836334897244 -0.14966494345971645 0.25861029771288363
Ni 2.7091426449518146 1.662106021331915 0.7078686381388042 -0.3626782692690915 1.1594173733153192 -0.9565393361677332
Ni 0.9431361929133364 3.5772436900312607 8.142738569576883 -0.06941104360397078 0.7416570754704195 0.8903357437574667
Ni 7.990112702592233 9.113214725772051 11.726643338466886 -0.02236705484129051 0.0666879882458529 0.19794409018107845
Ni 2.441258961640106 2.012573953620461 9.362745340725361 0.4373919560328983 -0.7019134770238943 0.28917300099108906
Ni 6.547049138940658 1.865877048560037 2.7205310292968097 -0.5365550340883211 0.9091875863566471 1.3153866617265089
Ni 4.210520279751087 7.298412634461767 10.161933486059674 0.6996383078364725 -0.1679835392632462 1.2574069998879314
Ni 7.3853914085000785 6.500696928541206 11.73573052338135 -0.47125312755671744 -1.1615868701628125 0.987956159916118
Ni 7.782776822046608 4.272344500584818 8.332717899584067 -0.4119195227934067 -2.1239934637446 0.4212611119093067
Ni 2.7877335288312954 8.650586114424877 12.466637595914012 0.6955404836180149 -0.07365104982724735 -0.5203493708627361
Ni 8.88418885534832 4.998152282937227 10.686941560100006 0.8227013324379444 -0.5641206024114156 -1.4007151478916844
Ni 8.681621308012552 2.560986976385506 5.87781311707361 -0.5214102080270826 1.1416523360224144 -0.010565434220672127
Ni 3.553921708480946 2.9164420564097924 11.824308466912985 -0.4190149961876074 -0.5281716951206323 1.0381044986357348
Ni 1.0906627697177318 3.6437906577152903 12.949198387114706 0.6880392901449635 -0.3061407391936792 1.5040148738233001
Ni 2.9288780152974505 8.841793540958577 8.26350230641146 1.6685834738677263 0.6699495225227882 -0.7155174409605741
Ni 5.386666590913601 8.361832995707122 3.271347364937798 1.2680379972392162 -0.4466453563103663 1.2453264145743133
Ni 3.2458855596697904 8.299634966725007 4.330744274088487 0.4382368205316968 2.726236069838718 -1.9592425724860387
Ni 3.8298832947064847 3.0560366066509452 7.638800510924656 -1.3380162262005666 0.3822045122274772 -0.5577108422303297
Ni 6.265252498691586 5.7626172981955515 9.25712721599062 -1.6826319815409927 0.5241780005802069 1.3484857582733227
Ni 8.162100919935915 0.15097381731423684 2.4826604933914664 -0.7337979844373169 -1.6074997191825282 -0.5201858487016783
Ni 4.670851338576495 0.7597623264062325 1.586087119858745 -0.4307345986173808 -1.5817781460467082 -0.15151973728026805
Ni 6.20962802275786 5.964865741014407 0.4041777811207996 -0.10771559561112416 0.4031178653413767 0.7294042262449953
Ni 8.619550920837204 7.184346445573578 0.7748386472395401 -1.5923304676412575 0.5291569418520371 0.022654504174722274
Ni 0.18045907467691005 5.233906700031848 5.739916202862428 -0.25787161977464623 -0.7415177216790778 0.14512951748320813
Ni 7.257704015375701 6.505355854488123 2.8404413894804454 0.41349432347969434 0.9113773949191144 -0.8473569262030954
P 8.608400497289104 1.6350733101135089 3.887361312019874 -0.391363553018926 1.0040571792430386 0.5011067205830402
P 1.9090017447027225 3.530882362359896 1.8105735005976056 0.1349896008357288 -0.3462628040255456 -0.22992192863925565
P 4.767786173542463 1.3681104712648897 8.520655872410204 -0.239950002299219 -2.5527174596898554 -1.727079156110774
P 8.84479312341755 1.8701530490866585 12.703815219154059 -2.555066419538006 0.12695258946386523 0.982663801168927
P 6.508911590533714 8.148270018445755 1.4032867297548914 0.0074934801635677395 -0.2324508657086964 -0.34796770253179427
P 2.0187007603451725 3.3143745062710273 6.188676531904606 -0.6899773877079407 1.2444111018488955 1.1441465631991778
P 7.317440380941637 4.355010805008862 6.1676329566050425 -0.9612763366320866 -0.46595871192699745 -0.6839311815138608
P 2.178964166010315 8.708298445626399 10.243933317906967 0.24676599677978792 0.755490638919402 2.1504696556582577
