# total energy = -340860.1097260194 ev
CRYSTAL
PRIMVEC
9.39100431578011 0.00000000000000 0.00000000000000
0.00000000000000 9.39100431578011 0.00000000000000
0.00000000000000 0.00000000000000 13.74468407340855
PRIMCOORD
 96 1
Ni 2.695650182675457 4.885491489808029 5.218238245023737 -0.4932473724396214 0.18228941436295704 1.8149625474873194
Ni 2.73873610980252 8.919078036431328 13.677114817658603 1.195810824342689 -0.37744617160688543 0.6028283033942586
Ni 6.6248181539443936 2.452254136625059 7.187232246215936 -0.09737487580674843 -0.3129901580153448 1.0278797355839329
Ni 4.06877463924429 6.917592099915039 1.4990362231646321 -0.45293941684919414 0.27421895078441805 -0.1303659860207884
Ni 6.947154981038839 7.0879073515228015 7.3992858158525205 0.8042546956969826 0.23197881116828437 0.8464632107442326
Ni 0.014535396252674037 5.80073875611221 7.514850574054989 -1.226186608421069 0.4376837762417043 0.6418743615531268
Ni 2.1821406837140476 2.0507511443865103 1.442600983611431 0.15200644710869948 0.04133459708272881 0.5425246214081947
Ni 0.8816039938689798 4.43031890874403 1.5035035238477934 1.2780156772772182 -2.624775196888054 1.4463643131893669
Ni 7.730561939815375 0.8447057993888263 11.106639207751684 0.8303570492109893 -0.243693014281419 0.02420076561591961
Ni 2.8669984447418027 7.879531438947153 9.16070763459755 3.3366383289254924 1.3104349741481882 -1.146674214717038
Ni 5.24192705303987 3.9240029189760235 4.818597488911887 0.5252789469538696 0.5785869143483906 0.6865346805749788
Ni 5.953258054819846 0.8531069917183535 9.732322093653396 0.3562093737152962 0.017255958866970282 -0.807652408524622
Ni 0.3488316671562559 3.172985533578137 3.8479620800193413 2.546820120368814 -0.6348922738083389 0.22893976723164444
Ni 5.609659994286936 0.23320398922585514 6.339020784970847 -0.2656507494994328 0.45747509993601854 1.3181588251550072
Ni 9.31175348475108 5.481388268343485 4.570272104773217 2.515638552559687 0.9034866793171278 -0.1020763950474758
Ni 0.4685763613143168 3.63182060626802 6.764253905643872 -1.2316679432506141 0.23560020997095554 -1.0798304176196114
Ni 5.356074708713247 8.229271216206545 8.807414301360634 -0.5661625725421089 -0.6941680287505206 -0.4026910622166033
Ni 8.199792854120265 8.081823059750134 9.30292406263145 1.0606404749547218 1.049260001031922 1.5353172834810074
Ni 3.0926267109045797 2.4930956137557474 5.252063702939816 0.11214123548264558 0.22511730816176068 0.6635816713232314
Ni 4.456745194475406 2.2305513102048957 3.4199933598319063 0.12324300182276195 -0.9571761984207837 -1.10393296709477
Ni 8.05976359095731 0.07940939215207805 4.823710890681871 1.2905305219147774 -1.0319533914326744 -0.0015125799897844918
Ni 6.874787902913043 6.449882528285514 9.864779390154942 -1.7215489703211644 -1.364094154234541 0.5232238641970538
Ni 0.3482653896048693 3.3863961033171326 9.522660412778638 -1.5435610115470384 0.6516512384342326 -0.5828662584500349
Ni 6.0388007117946545 1.635321292965434 1.5056061696812173 -0.03580672528596414 0.09857095299737863 -0.131788834510244
P 4.385307825762336 2.4125395799946423 7.051489976456097 0.3542846458887576 -0.48863018538258435 0.1646634737510777
P 2.3996926862915426 6.74626261985703 12.217264437589675 -0.3505560320842608 -0.011969513657050354 0.239911949972432
P 5.550149200868409 3.8158091599457498 2.2827991009991697 -0.38915831783749105 0.09209151592062205 0.45315461818379377
P 1.5545868301251196 0.21576489448414712 8.79171817699268 -1.8987121192011494 0.23419098832825472 0.24323921457345204
P 4.373409423480298 8.707714705601159 10.79027787660993 0.537156672228062 1.1970963759233317 -0.5049037257316272
P 2.074923589117343 4.712133552849531 3.235993536949174 -2.0036586367075686 -0.233853659593494 -0.2750869552116682
P 7.63116755169139 1.4975552618071912 3.0073779923602593 0.27706079110858733 -1.4176661739237262 -0.7465467994625531
P 6.137190262472562 5.512397364109301 6.195965740264661 0.32230192233457394 -0.38400325599911284 -1.075705082597328
Ni 0.5620741379206278 1.2800408232463723 10.712153173828161 0.7003317343590713 0.1829944108497816 -0.9679488635562556
Ni 5.641364024361254 9.197887559202771 3.6657897465478833 0.8373501926993707 1.535416270952717 -0.9980317989845651
Ni 3.585748339815236 0.890665373791583 8.707820823948268 1.4505259007662243 0.7261885475211752 -0.04814570646729127
Ni 1.856235275035407 4.584378332135371 10.842397949747506 -1.4516134774034484 0.7195188488104833 1.2561101354533788
Ni 5.397526601114916 8.341437370000278 0.37302383299584346 0.39308362103382627 0.7268585770050062 0.15019099116651552
Ni 6.668777444459167 1.80499795628971 4.886455006835761 -1.0736078337486672 1.8611526728901366 -0.17726419323422374
Ni 2.314525669483492 8.985359743855655 11.321481905626442 -0.4915555865594954 -0.4412763786889691 -0.49248246924913897
Ni 4.035314491390383 4.15843055604509 11.540600327699314 2.677629364574608 1.388627363489215 2.624693435807525
Ni 6.461245643329923 0.7423297674412065 12.97760709012731 -1.354486455941448 -2.4458027627134715 0.7866233557684645
Ni 6.041599231036996 7.849517789623245 11.929437672615222 1.0904081931354574 0.5500867500261687 0.12554233937989992
Ni 9.176945619906052 1.921249196896928 1.380076616955094 -0.3563515557201153 1.6063319241266725 1.1112181879022733
Ni 3.9355256810913035 0.24168594419123515 1.948790194823157 -0.16354427254496995 0.022280922885387435 -0.07702125185106089
Ni 0.5989460375891081 7.871934116574487 13.359475370849456 0.34150240652242475 -1.5065646368283474 1.6470641117387117
Ni 7.698548006603483 2.39161642270626 13.301830569959296 1.7676948727496071 1.5228453762662417 -0.7165759641320756
Ni 4.619096874547915 6.554460750710749 10.780093332588722 -0.6860687966821539 -0.4414985220021041 -0.48274570157734914
Ni 1.8981942816621984 7.048746864138352 6.988085672709132 2.1242336047798642 -0.16503319838567063 -0.6641043765959208
Ni 0.1333494418975937 7.069500983351694 11.36517636982365 -1.8239256702178783 -0.007596581400335304 2.164788386273775
Ni 7.097223227658383 5.754769790705285 3.9966244933147967 -1.6935355158273735 0.375861600728585 0.6445092280728126
Ni 7.963261632117358 6.151614844876043 13.216668248653331 -0.8717854915591051 0.9778887483777869 0.014872803346774387
Ni 8.685936966933404 7.387377083465897 3.1677923082727175 -0.4866812891863296 -0.456788101171323 -0.4145122232212475
Ni 1.8441114886533148 2.0901088428585073 7.457659358666189 2.2768969687462723 2.14360378177636 3.7663115761578942
Ni 1.1061288170419075 6.907252604325044 9.592332272707951 0.6703662983452325 -0.9373033707562568 -3.3134150967314935
Ni 4.599131599684764 6.020206523540168 13.105706960694471 0.02591440587291666 1.117345383845934 0.370081246601382
Ni 4.277574225936339 6.91898196853204 5.186886377605755 0.5110671742298617 -0.9109585622141408 0.744897436784588
P 7.365402133710595 9.28209669358559 7.820848932096327 -1.4970392138364153 0.6362341325482139 -1.1486133407212797
P 0.5277274792731733 7.507966967999162 5.271773542489571 -0.7906301629350125 0.2194739938330543 -0.7432059080147781
P 1.8909350354396135 1.5013022724705956 3.679561654161623 1.5478400985383665 0.520595168324955 0.011609044993838072
P 5.940495680154267 4.400061093311729 12.694246686735605 0.965484461176163 -0.3193019591659856 -0.07064902977612994
P 8.843076639692155 5.72243656335165 9.851254465950845 -0.9631802385230187 -2.548073276049625 -0.8241185245004452
P 9.18970799457163 1.8496052260921405 5.6496976014607645 -0.6353992953517444 0.1997934846849914 0.3872981247003008
P 3.2285802782582187 2.8745957671144695 10.239816654444603 -1.202021066918459 -1.6660445094959562 -2.0117743238361676
P 7.544422846182959 2.6731023816658492 9.403191814143144 -0.2124037172498342 -0.11883793077653082 -0.2787654325045199
Ni 0.8939184176357013 9.026867982282338 3.4906963520189667 -0.39980834135216947 0.6712646417897858 0.31240677470804906
Ni 7.220517721392301 4.756609348593597 7.965992536129683 0.021829437170265628 -0.9014043428668025 0.613654190365169
Ni 2.4633449125485685 2.3542308351097394 12.239846985314708 -1.1252906068349395 0.2608553849933185 -0.46984339169338435
Ni 8.27004695630805 9.275391516608973 0.8691449486380568 -1.3876485445157134 -0.8304079570535827 0.018044259096220535
Ni 0.6701871343150486 5.040875044787189 13.140563550868299 0.7361160910475322 0.5991984199511552 -1.280178746366808
Ni 5.187280799780851 3.090682773041611 9.401886464563663 0.5552227857011535 0.44079763928033766 -1.0782880128331558
Ni 4.43665783655806 6.093071324886916 7.440808140785457 -0.41229721784779966 0.45465434265777177 0.43595728046890075
Ni 1.8076086554486734 7.072449758660739 1.4492394844584493 -1.1249761609183142 -0.3510427419126922 1.2040021019042297
Ni 9.3644651911513 8.335136006202923 7.267721603847441 0.23678343164577928 0.9843203629357434 -0.5105956339100819
Ni 7.2508224918454465 4.235793648388758 0.8316767202048492 -0.021011055034028333 -0.15871368392554602 0.3430574097143705
Ni 4.82600886940201 1.5865913723328422 11.66129257417802 -1.2737491886913805 0.0862643677158837 -0.06164888316004867
Ni 0.76994495430037 0.6633072846608885 12.980960617716036 -1.0108217516603817 2.678167239355949 -0.039209837430242145
Ni 3.6202602801360637 9.205156196429526 4.807327344808751 0.03887199447484918 2.4906024355266654 -0.6565026529892629
Ni 3.699182279171774 3.912658585939952 0.33084413777108224 0.4201925614354763 -0.49619025711802933 0.46095097429976095
Ni 3.9476964224942406 5.483933230473266 3.333291852942652 1.657734189858048 -0.8725149135259619 -1.0682519687533925
Ni 9.008433441098722 1.3895493228602962 8.05285932469231 -0.43954036983446887 -0.1938444661904081 0.5080816092389766
Ni 6.402101099073985 7.735745774116625 5.271237316151526 1.3252378434889756 -0.9110228397931729 -0.6958590432996983
Ni 7.94695884888009 4.3188195162462915 11.58935278674191 0.22238191150846864 -0.2679081780750418 -0.8507654376640122
Ni 2.4402148692804873 7.498604136842736 4.050255579023154 -1.4180556960526611 -2.283392860883261 -0.8573914276209621
Ni 1.6876573591988961 0.6978492761950568 6.038575327694599 -1.2372662632739981 -3.9650848471084874 -3.0802240104226626
Ni 3.560956088809254 5.132982013676082 9.43649513222743 -0.8450167081056931 -0.6309890820991907 -2.253012963039823
Ni 7.918419587210704 4.020439140786793 5.509349983256482 -1.7990695304061468 -0.9177838126660904 1.7577457319566956
Ni 7.707215903451408 3.67106561268999 3.277749697885916 -1.9446829295043089 -0.12976229099851844 -2.021974918518253
Ni 6.510182166054231 6.361654044118392 1.670006966863387 1.180258992651019 -0.14665495298879905 -1.3795763090305402
P 8.07418817336079 8.34475239447191 12.538739170501415 -0.5463470804780785 0.9607374334094809 -0.30062315180955973
P 5.419097737690954 7.142450303735964 3.1953915304247933 -0.2154414756348935 1.3005315989915476 1.4199362009048255
P 8.982486096579962 5.940242123041706 1.4660080615024955 -2.1181136079250558 2.1259729560684737 -0.2770973007734776
P 3.69271187729938 8.437169266498378 6.748928725940591 0.39262647889174956 -0.6330935300367032 1.7725416593189471
P 0.3774047364406506 3.045333613909835 12.316047471342262 -0.849293481104176 -0.6222524735571412 -0.38748195857633266
P 0.9932583379355052 9.406311505728064 1.38594505546026 0.8534614964389367 -0.6510390587715303 -0.5610447916995692
P 1.9929682957350672 4.853167653458563 7.529846129511942 1.686944235763101 0.4231974097000712 0.6175368132490268
P 3.7471421374625136 1.6197228350408368 -0.03325166756135692 1.8721120001151177 -1.0224927602404068 1.0770297149460226
