# total energy = -340890.0844252362 ev
CRYSTAL
PRIMVEC
9.04176943181426 0.00000000000000 0.00000000000000

0.00000000000000 9.04176943181426 0.00000000000000

0.00000000000000 0.00000000000000 13.23354351952002

PRIMCOORD
 96 1
Ni 6.267085482694491 2.051785445921062 11.28191302369189 0.4267275343405167 -1.0259303251670462 0.5165685636640652
Ni 4.494265749208936 0.3700488810346811 6.038081875636253 0.26070960344407357 -0.5819015805439204 1.337149250214581
Ni 2.7088779562061425 1.4617014889325666 4.856234000897894 -0.26426261090265457 1.3992655599293515 0.48519596289005473
Ni 3.241347758342953 4.397663484545502 4.614576437512768 0.4838800722921086 -0.766761326737215 1.4958174256141723
Ni 5.112587152148752 4.411406974089532 2.602032270947687 0.40483356248090274 0.14610885067734194 -0.06407780431651545
Ni 7.213071568256753 5.844491262754429 2.6595587206358346 -0.06486559032513345 2.083030133958361 -1.0712377908545936
Ni 5.274190697293789 4.517358428350682 11.6719062397504 -0.5545897801028449 0.48534817219720283 -0.1764236996107994
Ni 5.750809489619102 7.817450562724927 12.710169911654447 -1.710733367762899 -0.5012627865449303 -1.3208001194325962
Ni 1.95638573659273 6.623240780812489 0.3117466475288505 0.699125372755796 -1.5249567661822896 -0.09570751540665452
Ni 3.2067901155552656 1.8138693667289094 0.5363677089410414 -1.661082537504991 -1.7452072331700523 -0.8063200628664435
Ni 0.6798081476413093 -0.010363676128531358 4.475094485471957 -1.0117064682581802 0.13479522543673558 0.962767319355316
Ni 8.775055322013557 1.8941964464059924 1.201455855939139 -0.0869451958329922 1.8538587103318847 0.6404931649348841
Ni 6.783587520005803 0.6206713588164563 4.879101539980662 -0.35233009326554804 1.3036475189127095 -0.16802596246540738
Ni 0.7098575641877769 7.260016435172942 2.0705335548483954 -0.404907867362264 -0.47126726862410445 2.347379905258183
Ni 7.677303136453565 3.955530000852381 3.8218338770742193 0.46401367238548474 -1.5618600669665426 0.35640323489365716
Ni 7.718009182458318 3.754838886431789 12.527110247635736 0.6525493247684697 -0.11279095325150253 1.0168880124591195
Ni 8.05043887757399 8.924705647963062 6.819523128455668 -0.6553849944450519 0.23894135852904658 0.12818414787812116
Ni 6.712437836307134 0.5954990727042322 0.526202951740121 0.4693322563849207 1.0728110488789848 -0.27684610399461995
Ni 1.7055399271058642 6.511258466336953 9.178480990747472 1.3467672329203193 0.48141309880885474 0.265671061214407
Ni 0.17840044022789536 4.6899748486698165 1.6503552957018637 -0.06930331438151291 -0.0929824031660076 -0.6240938976412541
Ni 6.437161165801868 2.139996948547089 7.0773654591327775 -0.5635300200152682 -1.2056332097497495 -1.4018109520590245
Ni 3.4015498292252757 4.266955665566223 0.4116057575434431 0.5247467285994835 0.9842396302964792 -0.38043045104618994
Ni 6.08178345985544 5.681838872354717 4.774132926057298 -0.4857009275509313 0.04701467818664161 0.9193516713738424
Ni 5.5181918873169495 2.9915236688024525 9.007914339559674 -0.6184752659028961 -0.06536284167652613 1.0406653173843756
P 0.2499271657120805 5.6031483529457065 12.559876715897982 -0.626057192015212 -1.8259059338727006 1.3932345232439232
P 4.110144258222723 6.297447744463474 12.468035847019998 0.7008390130127929 -0.9763023777272734 1.4605627161769361
P 2.4141524396421854 8.649058264910884 1.274322571653867 2.4083381901091108 -0.45790370283300497 1.8433277288935739
P 6.074369208917212 7.772295966157238 6.063794859560803 0.7276011115979856 0.5186904951030744 -0.4931213883847185
P 4.7357171602509025 0.8875428004532164 12.53027305858475 0.7017106169844688 0.08675801952285057 -0.08832073602428016
P 3.9580888216030123 6.2691560478955335 8.17298378710567 0.39422699060965005 -2.4450005785271505 0.25889389039157346
P 4.745771607864693 0.960615668511105 3.981364144487383 -0.09376350430640625 1.263900578032075 -0.21457707075206914
P 0.00475687490073316 5.816950033049747 3.8352401086182546 0.3236327253308556 0.11468919871547989 -1.0685247627988048
Ni 1.5924997256062141 1.1374545951572543 2.7100705655948647 0.0010870624165916763 0.4672558334718662 -1.5525958680557972
Ni 1.8078746735922697 6.761082555877453 4.635300173062055 -1.1189222414147504 -2.305025865772004 0.27847335518539784
Ni 6.095490782321722 5.582894789407135 9.149287829766676 -0.96203918294004 -0.2625847089795994 0.4343747664731294
Ni 8.602800572471898 2.3853815292940896 10.42755622960279 0.6957767679985373 -0.6372805715348573 -0.3026237271793562
Ni 2.5863981474144087 5.19388170115558 6.9002742671193396 -1.848073213998359 0.0686926773807075 0.1817433120514999
Ni 0.2183596360771638 8.834929919224459 8.977953532353688 1.3368764561691686 1.189496709199203 -0.1577412927099477
Ni 1.8464016531627392 1.2288759259333673 11.594106334630922 -0.6225412084421537 0.5460866277278401 -0.37316502773302834
Ni 4.303077534466486 6.6436932632786725 1.5712714593223491 -0.09130938633895887 1.4311608659760513 -0.3777963558574526
Ni 5.436707461151949 7.904097839238378 8.194567394928404 1.1126397508401484 0.48488408807659067 -0.08650425164083167
Ni 5.325792075469961 3.1921334072981122 4.717453690165385 -0.0853937921854723 -1.0718584551577284 0.6712857248357085
Ni 0.6092461789560374 7.150493481984231 6.773760924981821 0.36613820279323395 0.932477410122523 0.037854094733296095
Ni 4.925051812258794 4.685255045023775 7.081123218510737 1.478133120960532 -0.20148707033733046 -0.5677386587799771
Ni 8.04174069537573 6.981484727670404 9.3687270531146 0.3018750219387898 -0.1977286317361627 -0.7680707895772578
Ni 4.39498712079219 0.3966081745785199 10.383355539710688 0.035196345395474865 -0.4391009683042051 -0.7983164758356768
Ni 7.782974295862172 7.590438857473631 4.716950967784695 1.090105060072742 -1.8014825107230132 -0.5621025435401222
Ni 7.341238650024274 6.275069365107241 7.012494380131066 -0.6338445492701148 -0.48301361052675523 0.2482343537951983
Ni 2.578378097923912 5.353360430482954 2.542640504224714 -1.6949804758040163 -0.5847557621632639 -0.6905826253921075
Ni 2.532283157334789 5.417159155629453 11.396026483223697 -1.0247229351225062 -1.6207540130892732 0.15250626956325347
Ni 1.2574388755844146 3.4481782342111735 3.818353700017971 -1.321762997566498 -0.12046312508477965 -0.6775106226994977
Ni 3.5812278714745998 2.6846912229625364 2.8020705696149366 0.0680100494913861 -0.3908981833467332 0.18071409945603714
Ni 1.2011086519927636 3.60177077163515 8.126282143787334 -0.9595053607745928 -0.32676818563604365 0.5168051051549035
Ni 3.56180615072422 2.7833369275187025 6.94505634278623 0.5546185764582512 -0.6021983831197435 0.214674772672198
Ni 3.9556746691633706 6.872278236411984 6.028447870301277 0.7577634941139788 0.9743861345411672 -1.1789140485873502
Ni 0.672210348783514 7.172229895710447 11.30990272516064 0.19598645223407538 0.23299953912331484 0.10044374454005929
P 0.16882158968648361 5.600625699272822 8.175961241781229 -0.9240763305430215 -1.3772990829605891 -0.8391121696958002
P 8.490420420141138 1.7720330995445481 7.967916456277638 -0.4162402616559477 -0.3977748558619085 0.7915470183223271
P 1.9532572843675755 3.1617892290680034 10.379081495297884 -0.5112587214153776 0.13909205303987657 0.5888559003745665
P 4.133987404227728 6.060336382751202 3.7916750551175653 -0.5854525311199724 0.8328517906083851 -0.13909565258430237
P 7.005807087455564 3.9619767824608636 10.48778164746784 -0.06482779510866254 0.3783753682893742 -1.6543305634931382
P 6.211089804572005 7.711191688302924 10.314488902794828 -1.0201466286057335 0.09761064596663835 -0.0947433517211723
P 2.1580443203430657 8.509272509416997 6.027217285480921 1.3891061028978464 -0.37629508872157774 -0.49082565037200626
P 6.9319358311564 3.773030926538756 1.393809554762 1.5045712605474024 0.12164197588422922 1.6250012184014013
Ni 5.290230796274782 2.721319430951265 0.6103628374814899 0.4484155608369116 0.08316387441368904 -0.6395246303740276
Ni 1.2859204493105303 1.1701405916715109 6.940186445767536 -0.8948035497208331 0.3760914573512039 -1.5144008450433144
Ni 6.905479613784141 0.6306887351755559 9.153814139546768 -0.5152200200559707 0.40632248832160345 0.13492326637416763
Ni 2.314946145380934 1.4933115148838365 8.81037699431866 0.7477223078278928 -0.2953655029550462 3.2342405459828556
Ni 6.365224848162193 1.908907405279767 2.773393693668985 0.38360962010512 0.638315440557275 -0.6625097784152914
Ni 4.0122399787603795 6.769762654536841 10.20154002316649 0.993490459470786 1.3587660571534084 0.8268510929402599
Ni 7.908709141651177 7.269772504395315 0.2973919343708882 0.8357036582348835 -0.5846184652544513 0.1559572042263314
Ni 7.664237779617299 3.882843216349446 8.087931478720883 1.1212058952426045 0.47458424881247946 0.8044346729182726
Ni 3.006433546603838 8.194203011620099 12.228230942192486 1.1390205548265222 1.0984475185001663 -0.19138931978169618
Ni 0.3374560147456242 4.792870184861308 10.359019617271375 -0.5561008174307326 -0.6471160695680404 0.015669845326773013
Ni 8.671698855580788 2.6269323997998613 5.729449213501459 -0.5314804477788911 -0.9866922056020297 0.08561619260892352
Ni 3.9284046925417946 2.7058851305225415 11.370512418226758 -1.3257420368189037 -0.2470737578281938 -0.05755902936139119
Ni 1.160357397140826 3.3418289420948017 12.66382632240581 -0.23717218244376576 0.6905851964952687 -0.4445465647998086
Ni 3.1369605301943797 8.150983353711897 8.095408117868224 -2.1203970046425935 2.7165486673476247 -0.10496502944918053
Ni 5.413524364315834 7.713904219133983 3.675973860872647 0.6101533763007622 1.4618117580926888 0.6539225509669125
Ni 3.050032958828387 8.371747196282323 3.8720554812343257 1.3112214746052258 0.6451196079633019 -1.5032373722273271
Ni 3.453612337642728 4.240707408891012 9.272227864622746 0.23090126183338944 0.6096882637388854 -0.3379511988360567
Ni 7.23587491077652 6.001881343341889 11.395775122033351 0.34099307098617404 0.03955822190859639 0.8703950389694816
Ni 0.6955824186008589 8.843962646891883 0.2810751572451268 -1.1831638250026397 0.06753336696528368 -1.4352607470770378
Ni 4.59006329639249 0.3804921247342568 1.911082855006276 -0.5443354493646884 -0.9944636220173325 -0.557873078839807
Ni 6.082461592563204 5.498535080561212 0.542353360308244 -0.09752451401073528 0.5323826478781863 -1.324454685466048
Ni 7.977896761382046 8.631227895581391 11.12855014721161 -0.5467137197888777 1.3102092312906275 1.3544396618639125
Ni 0.10291070719953355 4.992322576869049 5.836363616207635 0.10581452193366937 -0.4499065435601413 0.36030436972027624
Ni 8.09694973955721 8.937038621474942 2.591127897006831 -0.28966022504015276 -0.316263686560294 -0.2434317902002324
P 8.495239683250986 1.8378300557365939 3.4416871479324507 0.2740770258899151 -0.07821064417347175 1.723932382951676
P 1.8432460756292743 3.1723048069230737 1.5081870339613623 -0.7882120404118232 0.7382879018878705 1.1292516483652164
P 4.351378666798204 1.1985498312421317 8.187421684542452 1.6718325769326432 -0.46132249870656683 0.28479852607247724
P 8.550674771668389 1.224626294298042 12.45092520253768 -0.6504492477063314 1.2722880307648217 -1.82750850247313
P 6.361318803765468 7.789213116773607 1.7659371385902158 0.007281364152761653 -0.38978232457473516 -1.1353253653631221
P 1.781960962386223 3.3392882048830432 5.968302020007271 -0.5813266818770568 -0.6039999551048565 -0.6421795514983714
P 6.829311748048014 4.100605191466833 6.043084686665669 0.5709219416039651 -0.32489822230684046 -0.19794588995329135
P 1.9449026894079149 8.548983960783694 10.310187733073713 1.3017551869860031 0.30628446386039515 -1.7436530013090554
