# total energy = -340871.6882469984 ev
CRYSTAL
PRIMVEC
9.25887302511338 0.00000000000000 0.00000000000000

0.00000000000000 9.25887302511338 0.00000000000000

0.00000000000000 0.00000000000000 13.55129657348457

PRIMCOORD
 96 1
Ni 5.968750902705804 6.232489895935601 0.6254748226275234 -0.690103885983476 -0.33019109527466356 -0.5069233272648173
Ni 4.204139361063045 3.0722884490961677 11.145995023001909 -0.6996385649467887 0.8369408730760941 2.003503856297259
Ni 8.059246992170547 5.528260026704134 10.272980531088939 -0.3044713219110563 -1.033529991891175 0.5527529840044222
Ni 5.636931417384777 3.6877997986461213 0.19611311179566948 -0.7805956615171459 0.9094346693704466 -1.2140006078778383
Ni 2.103967749466474 4.42169509649996 12.547904108921044 1.0979153001457802 0.4197608732146964 0.29229303467730955
Ni 2.5921695972818406 6.731922756522172 2.7874207080148565 -0.24428771044262446 -0.063751017104716 -0.4627350627833773
Ni 3.7274648099501917 0.23722898847587162 12.744493126781379 0.6725872172559514 0.6231405325890493 1.328477433472196
Ni 6.608613087860264 6.80694740325347 3.871890264041619 -1.1164807218527935 1.9773536802644527 -1.0133020948800742
Ni 2.2043524489433026 0.5278844509778585 4.61890538472876 -1.1141415321966552 0.0013588280207395952 -0.33348750663774823
Ni 6.303422120865687 0.5880217560481359 3.0063550896196465 1.9395697766474598 -0.8161493902520396 -1.2855942609554247
Ni 9.13023007399901 6.42775026554147 8.30726997461894 -0.07869195468526448 -0.018542281778561615 -1.9004244739065659
Ni 5.886309898818912 5.050483669721724 11.74805230440855 -0.6659787108004982 1.295190389284292 -0.12146662664862952
Ni 6.347762862960735 3.898642851264303 9.563732352770915 -0.507396410246494 -0.5740363188632307 0.0865836987285154
Ni 2.974162914595575 1.1134998259713895 1.4653425497252321 -1.328875440241563 -0.9629979473088834 -0.9988013301607377
Ni 5.665180238460576 2.2900247994560394 4.295584618799891 1.485729702360867 1.9227228802934502 -1.0586548119832606
Ni 3.785619790342551 4.911545023683236 0.7194496044279259 -0.5618703729246581 0.7853866551478861 0.48003678728661847
Ni 0.5491168982053316 0.39076239579321254 9.365409148025135 -0.44236318399524455 0.9958692441156074 -0.9613982069219315
Ni 2.339948641881704 7.311898552060682 8.432280498224022 -1.947085368298214 -0.27326275751873585 1.262407024205684
Ni 0.6175288579447145 1.2063292851998233 2.794019506697492 -0.24539019947818383 -0.7649355863823859 0.3759454186916429
Ni 3.8481542175945798 4.789503820602247 3.4816935853797504 -0.6766017377319832 -1.578732674352165 -0.46670844560882846
Ni 1.5348989061492984 5.936631872777275 0.8094171460573664 -0.5697716300496058 1.7366490591873964 -1.9504355157173696
Ni 0.6504080413345102 8.254692539233483 12.79026899416871 -0.33489055763286196 0.1593158362859192 0.7010354452943152
Ni 8.289431830179533 2.9132117546014813 3.43641862301379 -1.4871003574561485 -0.2277156650165562 -0.7919640512550877
Ni 3.83328446779198 5.272076273722733 9.808482323665624 0.5632682817134492 0.3492583963187598 0.5806484248631096
P 8.24235046171987 8.353382864978135 2.8146853109063357 -1.579778599118176 0.4608622712406966 0.5841407542870843
P 2.217166728972442 7.662374666181359 4.797104429327624 -1.3020518922908155 -1.5186562778855588 -0.8580696846349094
P 2.596836069199967 9.355998429656914 9.353930923348745 1.8257552672274493 -0.9758619477557453 0.1639091120835564
P 8.4216948288907 2.7830782966466003 10.205847221690615 -0.37259732815501634 0.7850359566766867 0.5854623013119852
P 3.3353978389719314 4.5250333764170305 5.528522052805886 -0.2370737091926885 0.20568671024097482 0.6722331763506422
P 4.108365580267222 0.9830237897209316 3.2987651085273573 -0.3800548128743261 0.16916418983490863 1.1190538818966083
P 6.953450548413206 2.5169968085848873 1.66495273779764 0.3409892143314321 0.07840707645499399 0.4430861782041982
P 8.451017679217497 8.589437828376193 7.95990947121344 -0.8235382265169431 -0.13424783757369785 -0.34403468602597526
Ni 7.610219435398018 4.526051852430907 0.195589985479451 2.0800607669173923 0.7271434552352767 -0.3441997508489298
Ni 8.483377439840215 0.5611849130824851 0.8780883542366451 -0.6562699681531665 0.5466988073905423 0.3613500373759712
Ni 7.77120345770051 5.083010090055804 4.599107136906283 2.5527084608287907 0.10078518703987804 -0.6300850822276827
Ni 6.777281974631098 2.833992838467582 11.703631010119675 0.28364667185622117 -0.7946819644068829 0.24868018308336526
Ni 4.545430673313125 2.7046649024509484 1.9757656923888174 0.14869538045759553 0.43734541906567903 0.9127511353381894
Ni 0.2521802163595815 6.938784493813381 3.9739313758719246 0.12270795525489835 -0.36513598678096476 0.20922506241153646
Ni 8.855297103489423 5.128674850968894 2.18022752983642 -0.32182755380131667 -0.157987861503115 0.7144746015183566
Ni 9.137026086673425 1.3228707178058776 6.965176910882068 1.034294123750709 -0.20435539302406094 -0.15203318658157688
Ni 2.0745708281568516 4.78978158678785 8.142553700669232 -1.9222922205139346 -0.6254334423882841 1.2607301507238933
Ni 4.693535603476503 8.497117607154697 1.8999864475199648 -0.7847011990450873 -0.38086882413518924 -2.2431301567084723
Ni 3.879476984457715 5.763787234349547 7.3066154392105185 1.7862705788692654 0.8161522184655169 -0.991209376746093
Ni 7.525167429366462 1.4953727779380293 8.597037511214284 -0.6425099382545968 0.05816143883208048 1.4766321109349732
Ni 0.8852565735997663 8.25535917807893 1.9315203166841577 0.792016758869894 0.012319955017933622 -0.7580565998743655
Ni 6.630945489182724 7.135618871804333 7.844127266181367 0.2587553079311802 2.153691505029665 -0.34229996272305563
Ni 6.459535976047277 5.008161361908721 7.490058709393561 0.44098558692142764 -2.0269759712772704 -1.192891336703049
Ni 4.6699902898102446 0.7760361317589151 7.976306935036855 -0.3272654369874363 -0.37226385607499757 -0.3927339510038914
Ni 1.6556346081579536 3.804211607032227 10.38052326516875 -0.4230025200804457 -0.47925697169780046 -1.319401696423173
Ni 5.718529863842008 4.87787050311533 5.013775942407037 -2.610837503761039 -0.725486379247828 1.0695876568456806
Ni 0.7473891791504197 4.273904968013598 4.4088734093725375 0.5377156300553255 0.8445014590321713 0.19688299590641575
Ni 7.529824642411733 6.998596812446504 12.19187081931374 -1.0824953660462842 0.5851018326487729 -1.5478382987661536
Ni 6.237295250946529 4.438638833821726 2.6270681408409686 0.5088290289279623 0.2651630112297369 -0.1814232097079198
Ni 8.422796634760259 9.64950469911047 4.722613093672683 -0.27874666345144256 0.8428600667740065 -1.1768494527488378
Ni 8.179529009409384 0.7078028682656032 11.061394849965597 2.4427935435735026 1.788647049521242 1.2959025848599681
Ni 1.5506667666186802 5.840728467761504 6.179485626511601 0.1408100641722478 0.48604134160948553 -0.6014499349894932
P 5.973509963352465 6.486442260559328 9.904507019915775 0.4868044450277552 -1.9532333901774817 0.06958099352293179
P 0.5688095948772801 1.2147733772421467 12.886171473297194 0.2983659803442668 0.50370944831321 -0.28045541861243306
P 1.6848370931376544 4.592419453044254 2.3375848516422253 0.8328358497687851 -0.4980764183971487 1.374507636258381
P 0.3860977756496573 2.126642729084511 4.986727997140329 0.4232614301687872 -0.36575022332619594 -1.4341610862549559
P 5.246836586324298 8.22010139025309 5.731345069758433 4.616074283589005 0.49603033450139733 1.1927789794949006
P 8.722237841712861 5.045502396126581 6.471882682997318 0.03537066618981005 0.973968073167142 0.1430068147132505
P 4.647639370742078 2.397594384267125 9.328794009438983 1.867755522918635 0.15065353262523087 -0.360961800798617
P -0.04105291634479885 5.831617736873734 12.764833018665781 0.26513215799180145 -1.11914541316915 -0.09520049386324896
Ni 9.161839865920602 7.6655689773157905 10.425635271372489 0.6607868821869136 0.4483631103324214 0.5014921289469169
Ni 4.586753022857958 0.5082658252887374 10.411921954789282 -0.3819016362750778 0.782537101514233 0.12948409763646732
Ni 6.912267081961174 8.512700290167011 9.936976035238164 -0.6205840847157829 -1.2306184189401774 -1.8561457065938487
Ni 0.8794420014478158 8.150363559921097 6.388853740684234 -0.044622009584748955 0.9208246563749432 0.8715888021672666
Ni 2.255137366544336 2.7489593501817313 3.338998614624628 1.1036218636122541 -0.3146554615329097 0.38489928545082097
Ni 4.146651019516132 8.03443321292337 4.005925411016933 0.587929017684923 0.11798252475477099 0.7799829676338116
Ni 3.888532162108364 1.740686614189511 5.524876834563493 0.53870421922084 -0.06185225742010638 1.4735948667705459
Ni 2.5103674556218354 8.208231515255001 11.268878783512557 -1.3050647109752105 -1.0056294088261648 -1.041935956566683
Ni 2.319264319927154 0.7197588507812304 7.285692238336349 -0.565827043579561 1.1891820061722618 0.5692131864429746
Ni 8.189491556599668 7.102546177971901 0.7719983373075366 1.5538582797079883 -0.3437791183717434 2.241449940792572
Ni 5.825247632350578 1.4815400218950128 0.14299588412285852 -0.24478470468370103 -1.7330132622070216 -0.5544208586251483
Ni 6.517950204879532 8.519820363391293 0.3767777942354002 -0.8671454216839324 0.6343983648910557 -1.2044967821524613
Ni 7.7106411703662605 3.0790289085334606 5.9672046709392825 1.8778118787133726 -0.30758647050127025 0.024183539224739
Ni 1.9219105325495887 2.951478676104685 6.2144350938714235 0.02915888095214333 0.7239180063194435 -0.4415286039090912
Ni 3.9963980308507594 3.352258246438018 7.615597914638574 -0.04329917700826737 0.21061808610432112 -0.7353133926405788
Ni 1.1064723414756403 2.8585936636391303 1.1078889490222144 -0.0656171237791773 -0.10354809449699585 -0.9887336615120909
Ni 9.352943001615282 3.345610375729259 12.330677063470425 -1.1196737748687942 -0.7807910653574037 -0.8778478957031011
Ni 8.021748557114178 7.7433527681574095 5.728309085349794 -2.0975992900217877 -1.7327983179827384 1.4120418857584134
Ni 3.432125283671657 8.109587483874614 6.55279689875068 -0.2909051531908474 -0.7249996694193965 -0.10594281998141754
Ni 8.843908689879711 3.768342733598061 8.225501164901207 -0.09234322692011193 -0.24005541752883175 0.7271473118900186
Ni 6.545004631357238 0.8228582517786828 6.608194586807289 0.0916909380480937 -0.8256727563614426 -1.7841630456079594
Ni 4.740505865461926 7.662661691239815 11.375527110474728 2.354258377545571 -0.96521835199897 0.38061017115716383
Ni 2.048275629253126 1.4240331626023934 11.179250116629552 -0.19861771920933535 0.1035825472793571 0.6036202031679346
Ni 4.535366278521453 7.664670866649008 8.82165035954008 0.05344449297238538 0.5457734673627955 0.11647123031656716
P 5.740167849700461 2.9991433535541145 6.305201676228115 -2.0896756642993366 -0.4328058793241127 0.9819215236862637
P 2.6634258827617954 8.105374696726306 0.6929062677317286 0.39929874870560267 0.4989935308947793 -0.26204040644035514
P 3.4890766105930715 6.251674280487896 12.26953331892098 -0.4977164639545687 -1.5287653412951026 0.7793944421201932
P 4.871815200269192 6.304820210666554 2.452974480465313 0.43704717109896984 0.9614259748360733 -0.13476668619164534
P 1.1268048262617605 5.92664154896843 10.053652647387878 0.9641598288274686 -0.42143080471795163 -0.5421914064384921
P 6.347883228307831 9.370071916394119 11.75988236625337 -2.043528733429629 0.3703481271095235 2.911845035493211
P 3.6020811537691175 2.7594126176332474 -0.27330248300009874 -0.31913355190892134 -0.8173148713150505 1.0800024244211013
P 1.5568609525576211 2.627390349616268 8.302797939030736 -0.10465855395235524 -0.0966624231207561 1.115304185046189
