# total energy = -381172.98374247964 ev
CRYSTAL
PRIMVEC
9.25345509472775 0.00000000000000 0.00000000000000
0.00000000000000 9.25345509472775 0.00000000000000
0.00000000000000 0.00000000000000 13.54336688471004
PRIMCOORD
 96 1
Ni 8.594914495418719 1.0631109537986545 7.021653157144027 -0.8191742931212925 0.012174687689320968 1.383844597388591
Ni 0.6729482713952141 5.616088484938129 7.3113862402527845 0.6967244766237871 0.24604068857798916 -0.3696565003591376
Ni 1.0677006675466887 8.144012133494925 2.5593715158404513 1.3593908352216009 0.08885038327550505 1.1010062803662781
Ni 3.8537124333341626 6.0573672535192715 8.925078700058293 0.052896076668083096 0.16772437206458854 1.1904834985925046
Ni 3.1127512666807835 2.052277547596221 11.916510692472242 -0.22656149680745497 1.554918859762019 -1.0064776157590731
Ni 0.078284230460419 3.3464657830801685 8.42459725085508 0.48481955338724236 0.6853535157826842 -0.07374849463706008
Ni 5.7104367135166685 5.464646438163281 2.872074450636194 1.6714602811948893 1.8814787860419984 -0.5802858993173683
Ni 8.116353556089937 5.325363431438668 3.872996633840015 -0.1334849912657443 0.8383675782202916 0.14266177266900593
Ni 6.8307432735181415 9.048676174979896 5.251887296267521 -0.3507059273985637 -0.20396458534354547 -0.29846342515407953
Ni 4.00878183452278 5.170858491013418 4.195640555489615 -2.093551088094343 0.11584336692458114 1.7549244604578165
Ni 8.196284901564772 6.285575964112043 11.244894918616778 -0.45527192163711266 0.5011969663040013 -2.2030960236047217
Ni 1.3546873251707352 0.7841155800310639 8.668919928223712 -0.5492485703955895 0.08827137084358345 1.059383719729485
Ni 5.1734402049966866 2.079103314038863 7.066021623835708 -0.39937768157265413 0.38528520803533 0.7620690634678682
Ni 3.068538258035407 7.561831003540165 10.853261862192044 -0.4093090817537532 1.1094333280877087 -1.332184192899822
Ni 0.5746580709282435 8.217660382931623 0.401713770451164 1.6466020845006288 -1.0731815448445259 -0.6379297750830819
Ni 4.006153853263824 4.177407547487344 12.9968247447164 1.100962571612536 -0.9393345422536725 -0.3941205469387728
Ni 6.461761749923673 7.90940928540237 10.394669879049264 -0.5221144331829588 -0.7465020622675466 0.3265231595047731
Ni 0.3246648762515566 3.3252291035403743 3.226138479204039 -1.0704381777714338 1.6600895774641022 -0.4219913052071119
Ni 1.1767711432484569 1.2849903010776056 2.6304473047490182 0.3329768855499169 -1.282605610640746 -0.10057358524970421
Ni 8.989491075922587 0.9185784619747276 13.077393653250185 0.1136882682547913 0.3112983721352187 -1.4788162630704853
Ni 3.6261607180561293 1.0694865843881616 8.843398451562534 0.06463573370251449 -0.1633810074942283 -1.0320528931250161
Ni 6.658101561024047 3.239079436213365 10.11009652252499 0.9081812565793198 -0.013170475943686994 0.7766415619654043
Ni 3.2021859105814863 4.763660197702456 10.993787607941577 0.4327649987838483 0.5174070004049606 -1.0382297113596894
Ni 1.3315166735072732 6.289545696365888 11.429856681280496 -1.132479925494527 -0.3737165293611241 0.7723326501774053
P 0.5524886431106227 4.1200731394574674 1.1137606658374428 -0.292058035848368 0.619750533070894 0.4724926563907734
Ni 4.5937390010186885 1.5727357420229 4.876655063727896 0.3149017732157609 0.8068353119399654 -0.5326083907357473
P 0.30680478249131377 6.41397690759535 5.34299403951151 -0.3262323677372317 -0.3216154377905106 -0.8991803386322901
Ni 1.9309369903825713 3.033291847417944 9.96129541184629 0.0010304981470433867 -0.8012565323006071 -0.08817032648934492
P 8.229421524410961 1.5794259900870704 3.176989677588499 0.7497606784141604 -0.9410057593085085 0.42821620307090125
P 2.842282026476577 7.959137353309497 8.16018994911123 1.48543993903459 0.8485725437777515 0.09797908504965062
P 0.4675465516790133 5.414067052383535 9.59886163310688 -0.016198721247049522 -1.931710428504041 0.3847146802438407
Ni 8.382714262213241 2.4084430358257154 1.009994270620298 0.4075365632343627 0.8539484633776842 2.008776160439792
Ni 3.1911095247822994 6.940026578688064 2.4538414120741625 0.25889826126694765 -0.2950999079984853 -0.21692320238674254
Ni 7.702927687471663 5.378431996650311 6.328111321341051 -0.3768866995589896 -0.3139131840502465 -0.04029227186114351
Ni 1.6514086175990799 5.400557007883274 3.6646995080113953 -1.6640470194499535 1.3045504903429532 -1.9987059206879836
Ni 1.800481779858814 4.258051409007741 5.521793001053873 -0.9194303471305777 -0.6291088343573424 1.319166440483915
Ni 1.1537022795915035 7.379325107869853 9.245108520631643 -0.7712391600029105 0.9469352374190659 -0.5016273689732006
Ni 5.616366088592245 7.833151561616991 12.696824953132957 -0.7970476364255822 0.6110707459087089 -0.2739734104325153
Ni 8.518721545819298 1.4562069814805765 9.614164997212722 0.5055336460061423 1.6224895077231412 0.6651220192271577
Ni 7.031376687802161 3.3327058952912036 7.646910046107805 -0.045599800116985986 0.037333703453451834 0.4097158302738686
Ni 1.704791800285387 4.196913830916489 12.81175471662758 -1.0538656181247334 -0.031015731655224008 -0.8019874969293608
Ni 7.9396680837009015 8.665074192268706 8.830979389422943 0.32788790106278365 0.24914580986587412 0.0361247707470152
Ni 5.316859506167614 2.8538025781223477 0.9168721248474343 -0.5895552404344363 -2.2506195231069817 -0.356938795682153
Ni 5.952294270436759 4.119175554309162 5.11291890701757 -0.3206350761551123 -0.1878846490625474 -0.29811709755825433
Ni 4.418885712746811 0.334512403208528 10.750494840129711 0.7727134305555918 -0.34068890948219394 1.7058439008810815
Ni 9.075094789396504 6.386660708030439 1.8579734966260222 0.07095781926580037 -1.0950305223988175 0.2630472504383147
Ni 2.0762254894912044 9.130550746033535 12.093088824781686 -0.41050695871659626 0.6464725224467706 0.9432845280403561
Ni 6.111296390058671 5.442697242577926 9.566560597259576 -0.23354384166255907 0.3226053125076057 0.5728127308687747
Ni 4.790745060888939 6.069914938685268 0.5274765538748648 -1.7997732413413905 2.0952565008212236 0.09477780450353356
Ni 6.400605664922146 0.693674160211437 0.5756500413189477 0.6198199528562486 0.059439791323871824 -1.9491553634533658
Ni 8.580294036301996 5.488622140423677 13.273691823802443 0.44411487657902876 -0.9239740006372024 0.7582509752733586
Ni 4.505127914625192 3.3316324944952926 9.02943083898562 -0.35454869818342166 0.5222303899355328 0.4924701279539648
Ni 4.860034932956034 8.441325647052048 1.7108389332175244 0.05178973097778178 -0.42779017127707614 -1.7291550648031964
Ni 8.02888989813345 8.98203279108203 1.83343333360226 1.2337122273741528 0.5272638385943822 1.666241198887795
Ni 2.1249541842435176 7.443692141803975 4.673476949281156 1.0655708223768035 0.8663494081451981 0.2555766530928824
Ni 3.465668792157133 4.516287581520615 1.6774404375909535 -1.2540740788599565 0.6363578026102717 0.41088696776383427
P 6.918373493667097 7.443266482867665 3.330287042118349 -0.08355905296957868 0.10487452661790325 0.7833894222121992
Ni 8.126550863651094 6.344011533303243 8.54887115334721 -1.673599439025079 -0.34202511179511413 1.473476853135443
P 4.70485449030577 6.495287017885622 11.108906141920999 2.77916274263442 -1.6222354827308063 0.21834450821430137
Ni 9.186339827055505 3.967391129694239 11.155048495962474 -0.5263330992499968 -0.7659352312914938 -0.12721818442042607
P 5.432166810631831 2.3454917805275795 11.67631875747684 -2.3316912908783327 0.5203915369545812 0.12575599805260276
P 2.365090598508096 9.410671339945806 0.8819634653424779 -0.4038799403183818 0.027028464872701836 0.9816137626378578
P 6.221921446223483 0.27953670089311483 7.261722946531618 0.7301099940627684 -1.8572674789031174 -0.23454117257882187
Ni 7.953205888566575 8.073713634817878 12.821857638946335 -1.3332833395012715 -0.3042453219431792 -0.5929763503008434
Ni 8.533545580949038 7.882759334607334 6.859173589081569 -1.1850566711499784 -1.3070519166085686 -0.7636690609651363
Ni 6.846446386885911 7.149386001166431 1.1620664776899872 -0.39261336626562704 -1.1514196998218234 -0.2631855757883919
Ni 6.397598292002568 4.700033440179307 0.7365963118651786 3.1414064954692544 -0.6515309108062843 1.70415314344222
Ni 6.252078456515505 1.0570684475940857 9.23672489027737 -1.8498418758630075 0.4349635490970638 -1.3761672833489913
Ni 9.172755754914148 8.724758977903422 10.8795759125656 0.09785850031138629 -0.20524987981387235 0.4289548810091387
Ni 4.732883205916244 8.49580073744454 3.9289032337422274 -0.6726288691271641 -0.07887835966445769 0.5747356589231005
Ni 2.4663881718946454 4.257884846815271 7.79168867983838 1.1865386550121435 -1.1059093740948502 1.1822670242199833
Ni 2.545671775509878 1.6492062952764344 6.638457401113358 -0.19553008142294714 -0.15399339563174122 -0.30388176795617344
Ni 6.997425760903901 3.3279311124404267 2.7856407022364738 -0.11845355085391858 1.0581771010158936 0.5138941021556955
Ni 3.3054452164571146 6.3091815281669525 6.750054995413087 -0.38446194080308627 0.3246002314504474 -1.700995314539529
Ni 6.126888461964795 1.0622503824708982 2.874376710274321 0.31966885558710106 -0.38225104919469655 0.6138776192298847
Ni 0.5133937205016128 1.5441240587387846 5.097683093134227 1.1570660994743234 0.9611770920500607 -0.9730273065204275
Ni 2.1961872818894164 2.5466063744787317 0.7830976999659757 0.49804710782111 -0.8511595877786374 0.3192387100282179
Ni 5.29650190486585 4.966283104840967 7.261561011066718 -0.33918558546379 -0.09283327918265302 -0.2226899296671907
Ni 5.934176005278189 7.366823689979543 8.006310542253253 -0.3663230651105304 0.4919178549949205 -1.0442255239318081
Ni 6.257325165578278 5.166481606733539 12.214356279699752 -0.41177296991321344 0.7402054306255575 -2.4763101872737097
Ni 6.861927417330389 0.8554513910289855 11.383673612036416 1.0949482470976564 -1.6120945376420626 1.368331075134024
Ni 1.3578890206481946 8.760782678752408 6.770017474180493 0.8996163977284443 -0.34993279667796506 -0.969119229715273
Ni 7.302993356443375 2.1391582378790663 5.113325133698092 -0.2063420844367866 0.09226583671495722 -0.1724911973256126
Ni 4.157262775653735 0.769663533797839 13.469515292106163 0.16975194401757862 -0.5190504495456545 0.10844630312956162
Ni 3.799986872807781 1.2518629316865535 2.5883672175127588 -1.2361102952926841 0.18552591902238372 -0.5710368699152746
Ni 5.556144602559572 6.928765123786134 5.376716406067882 0.5519001490858236 -1.5297906972358233 0.44435193229049924
Ni 3.975608197856042 8.775717755343793 6.369621395740862 0.6290751529059295 -0.2680878981860157 0.8299037637236546
Ni 2.314622254189996 6.231637574117507 13.660110558257387 0.03939958484354505 0.7625948540643512 0.7330333383571506
P 4.829137646253038 3.465529990330076 2.87792448497391 -0.30351255754221274 -1.482716112345524 1.7118214586207552
Ni 9.129357050320841 8.556753246433049 4.790356415773179 0.09537172933379058 -0.2719185847860156 -1.8739390260215276
P 3.679710462934905 3.376002811878001 6.132761629940354 0.8946374564566141 1.6913454501545901 -0.39695493106377444
Ni 2.5590152578176704 3.274473902113022 3.5580053195888515 1.612737313432384 -1.5751945792919195 -0.28854513759910305
P 2.8205549138145125 0.33154667083706646 4.63986284814989 -1.2605915682634998 0.3350152561361843 -0.4915812975911082
P 8.76295724070964 3.233730939144083 6.325673035912409 0.7646699914258249 0.4630009148502542 -0.2230851082230803
P 0.7510603875900818 1.5183254258163676 11.2327599375499 0.7356003277533782 0.7431475439730169 -0.45903138867954496
Ni 7.263212752808702 2.842716938868023 12.648922591924393 0.08939391448380088 1.090768918908986 -0.19182897842227606
