# total energy = -340887.61291483336 ev
CRYSTAL
PRIMVEC
9.09995647267724 0.00000000000000 0.00000000000000

0.00000000000000 9.09995647267724 0.00000000000000

0.00000000000000 0.00000000000000 13.31870613546118

PRIMCOORD
 96 1
Ni 6.2251799199097455 2.077283395928713 11.845936200687206 0.9328836444220062 0.24406016781285061 -1.2415656619803004
Ni 4.618782856220917 0.04073231383563836 6.080055638819512 -0.49381712890016244 1.1489948924304145 -0.7146404376722596
Ni 2.887561693677403 1.4977708868259318 4.9253640197445625 -0.12459488786496604 0.13963661268943692 -1.1383063023683169
Ni 3.17982498615505 4.154930790104432 4.103892775900424 -0.5807705522632708 0.16237416349626874 0.8773066784876504
Ni 5.267254833219067 4.51647204894358 2.8163199567733024 -0.43074668280223877 0.7350377703816889 -1.752790444833949
Ni 7.257770147017619 5.873921611548529 2.614741367563605 -0.15655164327722068 1.6535389208297782 -1.159612777155577
Ni 5.601232324803654 4.612294587468026 11.377464086820593 -0.47597547273305124 -0.520886988533761 1.3541334434774033
Ni 5.604617508500813 8.177056819788564 13.004304202056922 -0.36566691958377023 -0.4008876904592773 -1.2615817000909113
Ni 1.9856832370695419 6.595275137553545 0.3918695927797251 -0.054305041200467766 0.9006911188498619 -1.1528371489946405
Ni 2.3586085410838167 1.6594134083653176 0.37940629280222454 1.7363358988223516 0.11610253412323876 0.4808551694228557
Ni 0.5143331630025725 0.07380610455426119 4.815444739109174 0.41028095874871917 -0.14509377914926624 0.13667187363415814
Ni 8.838860232583325 2.4110060887403937 1.589880643230912 0.4179958108944737 0.5208808178861738 -0.5853584287442694
Ni 6.865043338366195 0.4920801301718336 4.621936901031227 -1.1915903585034382 1.1389853307132125 -0.06983553273589908
Ni 0.8973430384501608 7.612022340960464 2.7945838014533124 -0.4608013360957741 -0.23150341419376258 -0.21252121666430496
Ni 7.54882314532397 3.7687377499867725 3.68440663612032 1.5633775320523333 -0.3802124214981129 1.857509676820911
Ni 7.7351902477912695 3.9599824289639574 12.731244547095718 -0.32102665516657614 -0.30606026366473094 -0.6919206274772406
Ni 7.8613065404228255 9.205060668984157 6.6111127012807955 0.7076177264975233 -0.010243017884246875 2.1196387863203303
Ni 7.0948627315698864 0.896989050154947 0.5131301487962161 -0.6198832019940163 -0.8904915526090407 0.13186159672970837
Ni 1.8542070702508149 6.423768263520285 9.051085770517963 -0.5260469354681456 0.04243220102228176 -0.35224781796438687
Ni -0.0040240006206562155 4.950257859857333 1.2722776127879112 0.11762848384946192 0.3149675934566898 -0.1971845863072346
Ni 6.0257998801119665 1.9618322519344447 6.586925927762835 0.11326943554981783 0.1689911545921541 0.6921042042429564
Ni 3.6529408076578482 4.551343081006798 0.549682852760603 -0.0988954262163329 -0.5444853446789912 0.43762078421425277
Ni 6.412147619484605 5.737176570104384 4.7927630983425855 -0.8099473752063857 -2.343385182276493 1.4216287581159
Ni 5.24562423739071 2.881510222820921 9.59263781243606 0.2331214094131598 -0.3452240783483861 -0.19590057738848843
P 0.392821448195647 6.134298657588412 12.355976004366337 -0.2286461472506256 -2.7785361647940148 -0.14966674323192933
P 4.240179179553341 5.967742159714439 12.526509183088857 -0.30032001874684405 1.1436379989938756 1.1749697192276216
P 2.5170296781371952 8.5605471729222 1.5272556548290712 -0.00783800798718005 -0.24607771246351168 -0.26824396414790574
P 6.330766711410139 7.8078533978499305 5.83878759075185 -0.3234167526653075 -0.6416164799060499 0.270505763598889
P 4.619328853591425 1.0487426493187852 12.880720427228912 -0.4605827923270649 0.2720337702076412 1.1962893066410043
P 3.957252442111409 6.12202281670812 8.48197815130586 0.6185824809047218 -0.1557098641022157 -1.571854716285409
P 4.865218769400452 1.2242535040691163 3.8943362551119627 -0.3165305670684355 -0.780533697930959 -0.0513259039674858
P -0.032807162002690606 5.64114473258791 3.7150798583999354 1.4622383041071463 -0.04972822046306274 -0.11794292976608721
Ni 1.4538908981493053 1.0628202815217593 2.771356163316214 1.035976139438822 -0.09807858674199238 -0.594215364914267
Ni 1.9310380002376997 6.145646302938838 4.8705704536270655 0.1179699263492807 1.2121848948253382 -0.33334223930913554
Ni 6.039995811745218 5.384143770289012 9.255022158372643 0.34686778459939616 1.7990769866053145 0.3538413877037519
Ni 8.852118868730535 1.8128295695223577 10.40305442951861 -0.8427988745187679 1.9049696700750869 -1.2969896472765599
Ni 2.5713564165029066 4.951058656000747 7.096592633238784 -0.4813670760622678 0.16899655390879284 -0.9403748105927289
Ni 0.651669701598103 -0.5210189008044633 9.002113446365716 0.8812260681467146 2.0028201999666733 -0.2873482890775245
Ni 1.5997449957247867 1.0733762306849461 11.445855717450634 1.7556957914062021 0.5510195462530832 0.27073767710403696
Ni 4.310485440962635 6.8642152423542555 1.6327532667589484 -0.3629086401123427 0.1867623625326461 0.14675933977714725
Ni 5.729842005427204 8.01966397778298 7.973056732240656 -0.1318911644160632 0.13816902700497494 1.111343657736544
Ni 5.09845064616983 3.247656059484701 4.661599970016284 1.206853712420412 -1.2785352972261141 1.4198780939733804
Ni 0.5499849713056184 7.533435119431774 6.7096306468243245 0.7995822299219778 -0.9778039019734642 0.60589048725935
Ni 5.114248170089909 4.366550270957802 7.411726845571464 -0.3472768471123568 -0.24548018808882885 -1.1089021381745872
Ni 8.130747142813169 7.155541239345861 9.25014731184961 -1.0625819149518088 -0.7190187692456134 -0.5650703679191946
Ni 4.4235250965704855 0.4707461929147861 10.837324358100883 0.4624609831863841 -0.7071238175802402 -1.101116323581581
Ni 8.12293938041488 7.325364621486716 4.820705423774035 1.248854739442546 0.09753608397496105 -0.737713003221007
Ni 7.032764630630588 6.158513640970516 7.128091221543488 0.7150114478584332 -0.753776741552089 -0.09343517443271006
Ni 2.140573591126958 5.4810492035983005 2.25440403292643 0.5844971091852386 -0.16266264127096502 2.9951099542611384
Ni 2.2537952458583117 5.475844028666109 11.175726248377831 1.3611204163181978 0.23548219633585252 2.1135151899210953
Ni 1.0246186654984333 3.5151310713412096 3.7576995031463025 -1.581130228050064 0.04345472874952516 -1.1435654938847275
Ni 3.63552349153859 2.6054721522035855 2.3698242370697025 0.20242166633645783 -0.6879541866303248 0.5971194259349393
Ni 1.1997382221332327 3.1014015638375123 8.224993568928078 -0.8624960958373791 0.13062952409482018 -0.05047461171078404
Ni 3.4942102720945143 2.579964975044609 6.942002577735149 0.41256512679720564 0.1959175466693529 0.6608930687474747
Ni 4.287990349297637 6.744687317993515 5.98513308596079 -0.3569020289069466 -0.336668218358575 0.6737907506457492
Ni 0.6067304780226876 8.02095617155985 11.467286114243137 1.0291812280041759 -0.49271618252649985 -0.7427994166049788
P -0.026437192680077874 5.606200900875291 8.024386855037887 0.751733228759499 0.49660214784446727 0.6730888394827182
P 8.708931058314377 1.3145432692390642 8.27330068628392 0.05614672239489685 0.3130852888323124 -1.3121781820915401
P 1.8864209151108853 3.2013827823340066 10.616047093758814 0.08583936436332314 -0.8083257804425628 -0.14550901230981392
P 3.9675171926769908 6.1077904852501685 3.8857859362897815 0.042749989373016696 0.08203516012588452 -1.076376654743056
P 7.265787208407937 3.722200574106999 10.177116167623625 -0.4411046289977951 -0.31255307047792624 1.2671725639151274
P 6.2125855805633226 7.727427985173857 10.185253348435454 -0.2528443417633839 0.8486378497980482 0.2584696583699613
P 2.4617383444169167 8.47060320608691 5.766280049943784 -0.48136244807657746 -0.9420097750929906 0.8893970339932811
P 7.10239749528292 3.8602833091088926 1.5734588623172163 -0.39882900815803574 1.0144588341923366 -1.196906885620345
Ni 5.327760441827713 2.9090102903822572 0.7032773730586762 0.1683172684535811 -0.20587620054396155 -1.030229209652716
Ni 1.4964331932681834 0.8903588220857247 6.9707438793187775 -0.6418221681589528 0.7791879825363419 0.549487425879273
Ni 6.703255217528006 0.9218164605876389 9.418029673338303 0.026262019020322516 -0.43790360556199426 -0.8192959063008213
Ni 2.9499691931266576 1.5570116015262303 9.165320250371613 -0.5952345502074006 0.05335810390616617 0.5930925641637333
Ni 6.511591940566764 1.9760554834362214 2.5798730654872397 -0.5691946745002133 -0.469658529376088 0.7012527035114439
Ni 4.1955165946456505 6.76500752013265 10.650356658526023 0.5605889351090733 1.7351799308410372 -1.835376335256981
Ni 8.302390516189057 7.54423676741169 13.428051851313855 -0.5729582553077036 -0.20936287354098135 0.9046914982585065
Ni 7.729821273647924 3.8040091801216964 8.044031840428824 0.2893442364616307 -0.1696760964743207 0.13139082774087696
Ni 3.0307222042250364 8.39154278683711 12.547605611489733 0.44144761415951067 0.20724711274955918 -0.1256207580263191
Ni 0.3122850160542367 4.719300972131745 10.413549408975424 -2.6123845365331846 -0.5548731156712186 -1.0142654872346082
Ni 8.402198835518224 2.4863355259583773 6.005830936281194 1.3649505886975652 -0.6231371901549396 -0.33669007273544593
Ni 3.7401365877282413 2.8478858847537007 11.87722185001741 -0.26081450445305404 0.3038627417927799 -0.3427241947446678
Ni 1.0598354958963065 3.7238840659994032 12.719190745146099 0.6288139288247429 -0.37023551279105915 -0.5536898939963948
Ni 3.2092815442940466 8.426386519031801 8.136397305602328 0.5337119082125712 -0.537758567478119 -1.130692237466485
Ni 5.64680490532886 7.536219706021373 3.7191020390293565 -0.28760874182776275 1.6531887365792108 -1.406938760203893
Ni 3.2453446706162095 8.405201821056027 3.771790785283539 0.20284975501281197 -0.27092253942133343 -0.736225620042203
Ni 3.254917824512479 4.140298060574773 9.233073064078155 0.23186311152602648 0.14222159980779378 0.28356413944474385
Ni 7.481301470504276 6.468967745842311 11.40952232243007 -0.06467018648487573 -1.1467338643103797 0.446538912639489
Ni 0.5519114320278999 9.362671909937946 0.44777790352867963 -0.000112100097832065 -0.5825541265262548 0.34877862846886387
Ni 4.707016031295278 0.26931047301703864 1.8173376878115326 -0.08058120128817735 0.2621031413574906 -0.3735756329078857
Ni 6.155929253416771 5.778353871796988 0.2515355286200966 0.5024298102698379 -0.5227944899691189 0.5091031085249554
Ni 7.667013376126962 9.065221642440457 11.371790264145382 -0.8964120318585336 -0.6482764084247288 0.5863729860517127
Ni 0.15880970518205806 4.920164304786075 6.000755890722306 -0.43794191499909735 -0.48003807283819916 -0.46123225298560566
Ni 7.901664846059665 9.02553673356058 2.7092243925390664 1.158865100356275 -1.014459091302653 -1.1783229519705705
P 8.727049071059122 1.70418519274711 3.726134485161521 -1.2293030425628635 0.7071855240561111 0.5272180729581114
P 1.9298823058034542 3.539518953890641 1.4442267446912842 -1.4834409063266902 -0.651226235081672 0.2933459014218561
P 4.844998666779245 1.0843416778760153 8.217455165232574 -0.3673278522259609 -0.08827008529200282 -0.20577618463098754
P 8.567071841499791 1.7248056934400247 12.561656853819798 0.36150301801406776 0.6917900154366473 0.06981264991776363
P 6.683890510787263 7.724315800161952 1.4765252191437834 -1.6557811798967352 -0.1773564958377139 0.866407000856011
P 1.7424687083760126 3.2327412313136117 5.734741421831911 0.28611878754579756 0.14292736762556674 1.6939291517213666
P 6.778894053255945 3.916866836606044 5.959974437123322 -0.16149098956036706 0.992001276519769 0.21035429091997318
P 2.493315192344726 8.405957117418565 10.111135115384386 -0.29862720442545343 0.6600392053876116 2.2588694218206
