# total energy = -381171.18092707294 ev
CRYSTAL
PRIMVEC
9.16400293636764 0.00000000000000 0.00000000000000

0.00000000000000 9.16400293636764 0.00000000000000

0.00000000000000 0.00000000000000 13.41244460898658

PRIMCOORD
 96 1
Ni 5.637987907148222 4.387623842835858 12.844025622166907 -0.3258315327543872 0.3926601603431625 -0.22391480321322726
Ni 5.057063427586138 0.31928486208541274 0.11906605846249127 -1.4381128718138525 -0.813882962815366 -1.7071873022828534
Ni 2.7051678720395222 0.22166806909589934 12.072568690176013 0.9034599398442504 -1.1277113004612902 -0.8664368256526819
Ni 6.063133499341618 4.732144536442882 10.282744510774597 -0.14738128963186228 -0.3012584714007134 -1.1291205221039908
Ni 8.437545010312958 2.3941507734804364 11.624833830533719 -0.24044545387839883 0.7539245799838629 -0.7319431906167652
Ni 0.408229759015335 5.5749670583668545 5.611350899564566 1.1322207582958694 -0.10033035889064656 0.08828756879349957
Ni 3.3471154477242075 4.049279687265569 9.482598750923453 0.2661873387291932 -0.9766039681280922 3.256226306225328
Ni 5.070085475880209 1.5961768823454734 4.5756820144487635 -1.309122940204984 2.1455840454311823 1.1698108007345014
Ni 3.388096869237989 0.6921947206538746 9.809499815920336 -0.2344460417618543 -0.6831652498821138 0.48541604932066074
Ni 4.804457684288423 0.5519167443966717 7.166805701681777 -1.137926293321079 1.4030530519962416 -1.5523690967569717
Ni 7.241083611775204 0.39073292804568754 11.600705010577148 -2.2837237618601183 -1.0531207695389089 -0.13470420838482608
Ni 5.516179978981589 6.859292917878252 10.836584779405559 -0.011435238420135144 1.1111647089565186 -0.4184699223174148
Ni 8.924116914761916 1.9968087664553797 8.93144078597699 -0.2049554885019051 -0.40330401321025383 0.9070569131668895
Ni 5.935955465404172 5.4585842199891665 6.338359667698508 1.581126371395322 0.5125902957426075 0.5826747112645191
Ni 2.31595433569486 2.2417167472147295 8.33091175475023 0.036676786595743284 -0.5923274038629347 -0.8074269227773773
Ni 3.822901320616431 8.064707547368368 1.4380016081865674 -0.03233650734917656 -0.5301946390879321 1.2032839927912826
Ni 4.132452178692018 3.637742639559643 2.929264401936216 6.358680074580469 2.756990834523071 0.6216369514603294
Ni 2.9506073649741404 8.124869227206915 8.090346595022943 -0.9147535104801987 1.964954792379468 -1.4242548828848374
Ni 8.690929693867533 8.047076005554299 12.893611126117918 -1.2220985543946243 0.049915396773204355 0.9417698911680425
Ni 8.010704077560515 6.925658627762601 10.83425070783589 -0.11546850008366566 1.6220760743348064 -0.7642938390333289
Ni 7.900681057280002 8.807862372426534 9.077489334937063 1.3193171071291667 -2.6410194266610576 0.5532731181739504
Ni 2.364954259852774 5.680160649054846 8.549629014873089 -1.7350644883090958 0.15538641932452593 -3.5757339536442156
Ni 8.992801117410798 8.954403944749181 1.9253836105026596 -0.5296868462135781 -0.2704715679268439 -0.7085926888162828
Ni 6.443384640730897 3.8405511904365435 4.046212495454151 -0.03501353996070744 -0.8639773083685959 -0.1801757104540639
P 7.567707007480526 7.766153492919019 3.159998419221647 0.00982084274516373 -0.46716224531679545 0.7901809912127359
Ni 6.419081704716909 7.850553960750399 6.78937982242414 -0.3062461544232919 -0.022992090019799113 1.8163964517203686
P 6.508623178243556 6.387135990182687 8.63250459260163 1.444898784387434 0.003875680905322358 0.3461748722974296
Ni 4.398217430329134 4.256486959592965 5.074236769249114 -1.508185717371538 0.04412630089525303 0.992839199040032
P 5.030020454668613 -0.1923524234289523 11.139156332779695 -0.6818174776049677 0.6127751301943253 1.2520557628783469
P 6.734048488578419 2.7364537783561707 10.141806726299821 1.194283074844253 -1.1084151712358394 -0.631703334557396
P 4.312506510065628 6.22654600122752 2.428699064872869 0.06383920594314811 -0.9674927498554434 0.26633414871970257
Ni 2.045927822652578 4.854337352736435 3.435919219007593 0.7276304221740243 0.046753454105454964 1.5888846751845023
Ni 4.193346978772314 7.736333827085869 5.878487086053752 0.5433275769254643 -0.5825672391523773 1.2049660084793956
Ni 3.6697525021150184 5.041283014382486 0.5637850447102895 0.07835796838461344 0.6996588766617629 0.27528621570666784
Ni 4.252821358384219 0.9386505015236174 2.576624401651818 -1.9544767756662793 1.4731490374823792 -1.885352667175108
Ni 6.826815691168761 6.279752202772469 12.84867910290141 0.23612548634680625 0.8451581187795637 -0.08804897042013224
Ni 0.42617012773124063 1.1718193944119577 13.277609428342837 -0.40704676808213774 -1.7149543478227818 -0.4020750258991591
Ni 5.972391541419109 6.318616739588201 4.161787985165614 -0.6526951063177145 0.1763051717550641 -1.1393391145082055
Ni 8.031909580553112 7.2588526136346 5.348266118811347 0.361413543624055 1.038240767103283 -1.1556517356253
Ni 8.16818746949127 5.394271246781715 3.768601853510973 0.30432785435465654 0.731462651435921 -0.36993597927276933
Ni 2.7913461564571436 1.5647168599714099 0.4325152834235802 0.3081441427769532 -2.165211589854123 -0.32748475208709404
Ni 1.0044663712266537 0.1293022498379148 7.9355537543794075 -0.9691125448470536 1.6437139643195562 -0.49391611637187194
Ni 1.7567668713006406 8.258058847126703 0.45507247686190155 -0.6150559558087021 1.2405966131988118 1.212833841263247
Ni 5.317797641564249 8.57104620633549 9.002700989875317 0.896406632541895 -0.06678569016598175 1.0407835881297947
Ni 2.730524668401024 3.2826925064804944 1.6092117602437743 -3.8435919952076127 0.7883285113850295 -1.126627837589124
Ni 5.785858259909041 2.295216196856379 12.040365467156876 0.4751989995783429 -1.375042939936561 -0.8807252172508961
Ni 4.840600512206659 2.30372039166067 8.999026224663549 0.28928947196429533 0.14639707134172208 0.12464348171471437
Ni 6.657199159237057 0.6565788229093952 2.7525961696791863 -0.12964402025309932 0.005046561284971955 -0.9812370960247294
Ni 3.039993050449415 7.096823876205001 10.08277863363508 -0.08365701200002368 0.7487836592128717 3.221720044918342
Ni 8.453114651447105 6.446665353812724 1.2370020315061832 1.3886139937527762 0.0059703586508219764 0.48623520278784654
Ni 2.064539912789986 4.0259298075658565 6.3003620455686455 1.4131037513640243 -0.6203552565344284 -0.013078687560829088
Ni 4.411386102671554 6.577518152961939 8.297635426977234 2.471554160645963 -2.2569899454097 -1.45563931073339
Ni 0.4141304605611141 2.0524617568071677 6.409579549983539 0.007763445995502759 -1.4557030740917898 0.31390752762329166
Ni 8.741148430427353 6.635013107921121 7.66297231729463 -1.2170805323547427 0.4083983970140257 0.6764659834850673
Ni 9.17298374482671 3.961708474388624 7.522705337841053 -0.41643695104778605 1.752078763478905 0.8185130053882098
Ni 6.812721454521133 0.39569065368051676 5.0203047786648325 1.3240767333013388 -2.8105091181561854 0.40745351660225315
P 6.920957494212384 2.8167487728337544 1.9931156732375679 0.6543177295228022 0.34941780471475953 0.9435002435955879
Ni 0.6011329390259014 3.324223768175588 4.4811113360637185 1.548348919853985 1.8418272330886472 0.34541331154105676
P 8.200628040188674 0.09651344702568079 6.695291170598044 0.7239866547738499 0.11132233912577602 0.316737540872919
Ni 7.057711911307679 1.152254247960275 0.4671203916347479 2.2904659656799584 0.5034320262821071 -0.016279453886313897
P 3.077437166796756 5.995173252931466 6.317865291340407 -0.52105308179798 -0.5156002862135249 0.24430853637823083
P 1.0209432486599674 3.6057969250254205 9.419104123185855 1.3013299265231266 0.1444630875438028 1.7073377118177888
P 0.7655287384360493 5.383430231206849 0.011051787644369532 -0.557625224495059 1.0493664447027993 0.6936558650007925
Ni 6.819878540881209 1.2497775681189656 8.294912801679438 -1.4267884479399686 1.5397619495159225 -0.9307465434743455
Ni 6.520692170223352 7.777590168690307 1.2368123366436305 -0.9306809803437326 0.6396706690335887 0.3882957127268797
Ni 7.01551167739199 2.289314578910298 6.145153159187918 -0.6702814519409102 0.0018789621902677318 0.35584093463228395
Ni 3.9960918137266632 7.130611555346618 12.687783952645615 -0.13708967789786713 0.20297753883992783 -0.6102299951749683
Ni 0.4010057754331986 5.578009507370114 9.595786101447418 -0.9259815179855342 0.81259098347682 1.3213745038788276
Ni 2.994649563497225 7.2525019595404485 3.9420654339112566 -0.9910610240936867 -1.0176567723043441 -0.4703874371223125
Ni 0.16713400351308125 9.314750871574969 11.049131916293796 2.2820047222864828 0.01969516443608221 -0.7854897563846536
Ni 2.740907483824797 2.466922121477069 3.933708779555617 -1.8878417521455486 -1.1189919183104213 1.343633315277028
Ni 1.7755347494894207 2.1164081698937434 11.134542257258186 -1.323334970039308 0.8347466936382527 -1.2411139191548626
Ni 1.2526275730587657 7.733465494140026 6.3320154284064705 1.1900957762357827 -0.8679249801624344 -1.6527205386935404
Ni 4.414300255632507 4.207358739392745 7.493747088291959 -0.8963611240159401 -0.7596337145534983 -0.6037456730022054
Ni 2.900315316390144 0.41541708658538395 5.022169653279782 0.32485168533962117 -0.32070295327857024 0.7364930147709768
Ni 4.8969133107760205 8.445105312805996 3.802482089083111 1.6918391019615573 -0.6954137282321636 0.05148788346664681
Ni 1.8581207447224706 4.895062182165604 11.69068910544975 0.46984596279654567 -0.923895581990783 -1.500497604698661
Ni 0.6592391329866426 7.369123061996706 3.5149055938536544 -0.7928891341725184 -0.2838986399660272 1.196516335050146
Ni 5.048265984685148 2.5279268895936258 0.9079611718036927 -0.24086094414926262 1.0396579591657837 0.2028708380587345
Ni 6.692874623001179 3.6653537806645233 8.03994274560208 0.5281678384658904 0.9241766035663115 0.27230553581178907
Ni 8.23450735936051 2.068123037971535 3.8772695177445535 -2.352076282292588 -0.7780638962342278 -1.4341448883050396
Ni 0.5185808506040324 0.34443546837892197 4.723808959294194 -0.701512899151366 -0.35042027783734486 -0.02334227427036625
Ni 1.1020813314155626 3.284836883187611 13.371255458822976 0.15312102032911695 0.6079759090334691 -0.6675103169536762
Ni 0.7805421245867712 1.8949233808582815 2.0347349093616716 0.4264387994555043 0.25461428917961315 1.0677894272946773
Ni 8.077023967429755 4.792947696492959 11.504886194980525 1.143944988711333 -0.9424260366948026 0.07108611731354854
Ni 1.7605882605607586 6.371786285121063 1.8241323739146744 0.9298556562289598 -0.5383193250775955 -1.8022481852444445
Ni 7.837458600432153 3.7676332183915617 0.22007811457160573 0.46512953115748285 -0.6124226319509131 0.29622425141091563
Ni 6.639686749462273 5.142856823876841 1.7365226722250378 -1.8424496971639948 -0.4523683748370725 0.837950288177215
P 1.91407614717398 0.2798237486729586 2.9709771108911425 0.43009747925401415 -0.5124380864354594 -0.10522162554467684
Ni 3.563120162952594 3.1003288463453753 12.129396505715205 0.2738335424205413 0.44667286711419196 0.6737848371084784
P 4.136502668027683 5.12796531896631 11.334615353233058 -0.6698086260695496 0.6277816309054866 0.7225820611168394
Ni 1.4968574175944973 7.193183367979914 11.975476078159351 -0.5310906685396402 -0.3642762098838307 -1.4288396740420424
P 0.9042066797656345 7.997315469145571 9.526967187954115 0.3392069256200287 -2.2836072908869123 0.9599545324968695
P 8.023634485824369 4.01179891490614 5.690658930916695 -0.20233810548371606 1.2449713452277398 -0.6549409649290978
P 3.507586304640091 2.2232696091317146 6.4178280691035186 0.19307467790391908 0.5245721506948321 -0.8098468450727796
Ni 0.16279026608071712 4.138262156607881 2.2536262855419453 -0.19182666442943092 0.3089165021666035 -1.4815084651906678
