# total energy = -340859.4905849941 ev
CRYSTAL
PRIMVEC
9.44544726268496 0.00000000000000 0.00000000000000

0.00000000000000 9.44544726268496 0.00000000000000

0.00000000000000 0.00000000000000 13.82436682938248

PRIMCOORD
 96 1
Ni 1.3280298451746442 4.609907070530271 7.918237214693836 0.7210404276613325 -1.7739231130475064 -1.7277813243841211
Ni 3.432277077594004 0.8143921057529511 10.038300848078665 -0.8966367462748299 1.2628556817073282 -1.7610398293269347
Ni 1.1893329017426066 6.5360131729354505 9.052582502306509 -0.12405084243603795 1.8367076524738948 -0.18733597564792898
Ni 1.3878289699954172 8.420767108468834 7.310518100642968 1.1897142245266477 0.1888488127480296 0.6792278625009205
Ni 9.010852517555573 2.0497753396944516 12.420764665793927 -1.621389075570111 -0.6036968220421409 -0.9573109242264352
Ni 6.079335256972799 3.7660697283665985 12.072639493776183 -1.2937274315855203 -2.2740564139736836 -0.4998970165456552
Ni 2.142614638045956 2.833105148513965 12.116683613036846 -1.0205371791759328 0.5048304492915305 -0.33923289376195775
Ni 3.304461289081179 3.557835404278973 4.558169634705633 -0.37662804658096427 1.302544515656518 1.1179354520214488
Ni 4.696408473959214 5.315311941777304 5.44673116831242 -0.8820531920337004 1.9133720352061696 0.240269847532483
Ni 0.19038526293238747 0.8813452121152267 3.5502082058438478 -1.004304262256838 0.9674662674928822 -0.48610741896073056
Ni 1.394270764834742 8.373558764470378 4.627789190749934 -0.8544547135901414 1.1352299774358385 -0.8182821203243262
Ni 8.633157429226992 4.811406790922239 5.670243502887742 0.9021859582278333 -1.680833494879673 -0.7803424078557594
Ni 8.471356922485587 3.1065508385410343 3.10491110894557 -0.08266867994482537 0.11938223331577504 -0.02618000082947749
Ni 0.11743618682817118 5.472021352597307 3.6870557307574985 -0.43948611955776573 -1.5939559190598225 1.6630075224418455
Ni 7.841128363740296 2.3886024137065767 5.391793615051472 2.173054997157941 -0.33022606227765705 0.6048975272184615
Ni 5.9833695156714155 5.697418053844835 10.211478395705655 0.21992367977596317 0.9388015525683381 0.36429780715038546
Ni 9.411188342291576 4.317542150205301 12.779341224893361 -0.013703208518705432 0.04796547213568513 0.31509152062906376
Ni 0.4373251396484391 1.7307081407613114 0.8458048287692904 0.02981605492016801 0.0922861484299314 0.31443100422692943
Ni 1.6805528173055693 2.7945299430538424 2.793240639541279 -0.7171722029551778 2.3010198299364046 0.357144741045372
Ni 6.752899526455367 3.97507857910646 7.262465333684636 2.3607478419246566 -1.3212927427982988 0.6633338169784834
Ni 6.066328876483428 3.6042597761782145 5.094071237200307 -0.8865791049285119 -1.027903646843333 -1.9507443052070403
Ni 2.821109430851292 1.86199040831524 6.8071872329641945 1.8803130478686712 0.19789395366943338 0.08865600787651183
Ni 6.605871698788307 5.268793115408277 3.231238295014586 1.2439272202339415 0.14827140554629947 -1.3882229289619445
Ni 2.5560135159532016 5.307198302822787 12.543041644198569 0.669359454347273 -1.9593438739505933 0.6157198146449461
P 9.349131755642945 9.214194100108344 9.160204869724037 0.8292987831498041 -1.0317155643902554 1.4409562547999184
P 3.8813702996329345 5.782039813325061 10.638001722189498 0.4544921060482947 -0.45998809616585945 0.0065737965627757754
P 4.80555061379558 4.257563561891938 3.257020587087052 -0.7450866699772587 -0.13525982377797993 -1.281224156912187
P 7.244752286965888 0.1711004938364197 12.054529738284337 -0.14685909857980511 0.20456288104917675 0.36295363441766526
P 6.829473765109925 6.447660461898725 0.8821480751083978 -1.2126533498213243 -1.4071508762146991 1.46234629043992
P 8.793748918755153 2.7247658716707703 7.424030648796277 0.507536535368784 0.44284886538241147 -0.09293329509562703
P 0.8084225832625501 7.145981247911896 2.8855188783422623 1.1588581583777395 2.282568050989121 -1.4278497993249473
P 2.0592680139078263 5.31159988111476 5.76506540056003 -0.13972325886597228 -1.0446528412772138 -0.6080103618158303
Ni 3.994829008738467 3.4083045331626156 10.818465487615688 0.8216150413523012 0.13256350789273944 -1.3054773730325968
Ni 8.734478738965175 4.792336433472682 9.077521315963796 -0.8842558561119738 -0.6412184731366828 0.0580879052816677
Ni 5.623516876685189 3.696239538854677 0.9535452642740493 -0.7433761150440553 0.4724674595797927 0.1722158321770389
Ni 1.3145606377833279 3.062100565060295 5.459657262502473 -2.649850908909759 0.20019534810910036 0.43484707812385753
Ni 0.8760784308800248 8.76420356060646 0.7160328881872211 0.19887945751115427 -0.19890208321897357 0.255020009258464
Ni 3.2489692880825936 6.4753261760987 7.173477888610956 -0.7868267300285222 1.2127996455912016 0.05552194432670439
Ni 1.001444070446632 1.235710046406956 8.06337973114399 -0.3462239803678102 1.0159253914355342 -0.12083130705747576
Ni 1.9238203042363868 4.809999419322446 10.376016192981423 0.05249652723681927 -2.1148349371737836 -1.3704440077119688
Ni 8.703374882065031 5.10003131424373 1.6574728676136472 -1.109897412208321 -0.08454070015655762 -1.1048025141839166
Ni 7.907633755915792 3.010490642769867 0.5177927915475276 0.13300342364363543 0.7230147777788839 0.3081701109188822
Ni 4.777658208868122 6.75437301618401 12.814302602339515 -0.29600133676683216 -0.7713744000291941 -0.40620036092144235
Ni 6.617499044018819 8.893086684627853 9.609400102590334 -0.38160673074247825 -0.129459415046119 0.5417805441533186
Ni 4.499697595185337 8.48099127840364 10.993080632272804 0.46969092527592016 -1.3723867332606363 -0.5386507402750852
Ni 2.9360794114733815 8.743206331973292 12.954785679795183 -1.2830529825908097 -1.5577748411535752 1.7953049211573922
Ni 4.076088189094352 0.933441574925047 12.25441617633238 0.0766507558855196 3.132109900658677 0.6407947553357028
Ni 6.225928594078848 3.545093496305 9.509173520156958 0.30331072594405184 -1.216745260502511 0.47742891735012616
Ni 2.252861895178804 0.7610206076010355 2.2332710936007336 0.6572151056752552 -2.3778130249370597 0.14847606535793784
Ni 2.319338951013364 7.188079605094992 11.236942237818566 1.4857410152147765 -2.098730575412753 -0.6153356918326499
Ni 4.272100104791822 2.018312555809126 3.3198252531363783 0.7361510580505257 -1.5343217523369577 -1.6276129449926358
Ni 8.48365489445157 8.31857681760863 3.9378842979945916 -0.7014617341984565 -0.706825569613531 0.2626083631286832
Ni 4.42673151727656 6.015739062466676 1.284434384645458 1.4339445993687756 -0.9502900128239118 1.3463298882725845
Ni 5.103488347837854 5.338849995647682 7.989266975972026 -0.8192444842375955 -1.2198370120539572 0.7456985925296448
Ni 9.429616409346597 0.39214473311626363 6.034488274718963 -0.29449364187305416 1.245819809270964 -0.8340057017071701
Ni 3.4325604410033588 8.076754484065521 1.9225961743079754 -0.7162486626996438 -0.19944021511063073 -0.5639372827560158
P 2.7962017871690334 6.7351798679237325 0.1437625366465977 -0.7162242372196116 1.9763753755115836 1.542590162993337
P 2.1613921866391794 1.2196150047556216 4.365721486153145 1.0503329223811264 0.04566330636506974 1.9162120757581256
P 1.3629779989950297 0.982298149421248 12.649018614752444 0.42109656130698453 -1.6063218968243433 1.5002497503539132
P 3.9556115128838076 3.601019987864595 13.019221574537694 1.5432290821289165 -0.41911706898311046 1.0855259253424916
P 4.821060037734248 3.1544959274038114 6.933306619199685 -0.9478778038379935 -0.6090719703111253 -0.47180797161892296
P 0.524169412802701 5.966424383792019 11.52912108283806 -1.4173054481501979 1.5036479774021845 -0.2944093096893639
P 4.344867828314051 0.5636532702621537 1.5212884130778859 0.6116664705111788 0.27050499226794056 0.3634285171715547
P 7.979126344095926 3.608595236341338 10.925424784655327 0.44328852402299135 -0.4800344732937733 -0.20091114322920237
Ni 3.045429351143274 6.960170414951187 4.09364349684856 0.6725306529864031 -1.2621074906873941 0.40094374050819337
Ni 5.7360782683277645 7.740439898949672 2.8727590240190297 0.8640737247371442 0.5152336469027254 -1.1033506122287384
Ni 8.079474772795324 8.498229219139368 7.636662772997085 -1.3073460508102193 0.9766623321698534 -1.2881990455681234
Ni 9.083157414175858 8.082147834290236 11.996771774555615 -1.1220317335780094 -0.41344341563710085 0.3224903841962962
Ni 2.2680123921322903 5.269303169545116 2.6246252428048984 0.22713331015052496 -0.29068686653245424 -0.8134494748223732
Ni 3.0103867428531035 1.9627922184696056 0.4207899401679076 0.20982130123463863 0.339619330567099 -0.2625679968090511
Ni 5.9281514326352065 7.358692713867322 7.438670147068227 0.11189029581410408 0.5442061228756757 -0.46967626998790074
Ni 3.353842085884685 8.841873471110521 5.701556104166109 0.7018952221914493 0.6042272406243142 0.12012245391590924
Ni 4.340995195052873 9.488518216704412 7.807131366430644 -0.4432435297176689 -1.0773089367493383 0.7947711816865797
Ni 5.742982890069036 1.4046324201701375 10.843391077647206 1.2799532606195634 0.08816158473859655 -0.8484244482356614
Ni 6.200586459835579 1.3952530913205041 8.063932289792232 -0.5815035737745533 0.6149587681092054 -1.3022758353761639
Ni 0.4255476118109693 6.518454087002451 -0.012540719953331258 0.49967718722536525 -0.21159253420244847 -0.04643206621029422
Ni 7.809117743930219 8.283779790939901 0.6589748320796038 0.5712556707943001 0.2720527963710347 -1.3717544989932764
Ni 8.318548481267696 7.213979020709991 9.519223475742063 0.06102667619501747 -0.7347071265151476 1.1066675924171134
Ni 5.391848398643948 8.972135630390774 13.731895661779367 0.27897472030184856 -0.7427248546133015 0.19976545966053338
Ni 9.26110018980349 7.440509175594937 6.042796489881237 -0.8476803709807854 -2.7729028777676374 -0.6066823870330261
Ni 8.076565575125953 1.4576874958482737 9.333286073791845 -0.5992179603351809 0.8071569569454421 0.2806459373566844
Ni 6.1751215347815895 1.7118361376983033 13.417571021774123 -0.008022356083844249 -0.0858535054307102 -0.42581453560794413
Ni 0.6451514204265946 2.2133610359147906 10.172411082457952 1.1347838910373553 0.8865688205158666 0.9116424756550429
Ni 7.059630971634609 5.4597044897373666 12.798252898833677 1.7882860666373976 2.4117932385372467 0.8843556149146319
Ni 1.5024305781853458 9.044582208715735 11.023079371876463 -1.5282356940438777 3.868887022328975 -2.0467205008940494
Ni 6.816656293560123 6.759190194143036 5.002388061558968 1.7260036636584082 -0.5428562937160006 1.0406385779114982
Ni 6.528107333814461 0.9707463677665639 3.759287897436048 0.7118477054184709 -0.12723489659097442 -0.7348002004495862
Ni 5.108796689039761 1.089607872543788 5.6226875664404785 -0.3413864497698507 0.7183222573992211 0.7335470447687754
P 7.1980351062103125 0.41467779142813155 5.802445756977374 0.03008859185526431 -1.0141284474361114 0.9047940852746418
P 7.882943357514038 0.10584190066208386 2.284545702523426 0.3118845836559919 0.9545896686405302 0.1700730748024232
P 1.0240375796191623 3.9674466579478462 0.9563023902470683 -0.4189214080325366 0.01817512824712999 0.5104002300698242
P 2.67086070576457 2.860572508327392 9.064332638347741 -1.1441524767364488 -0.4354829119356435 -0.02476666542171864
P 7.631042732044888 5.884636258405338 7.001088091261973 -0.8368855943581265 3.426954498113246 2.0346579133025604
P 5.005199026579765 7.646769401264061 4.833841616585531 -1.82728404516715 0.45233289361344675 0.9196350069422161
P 6.450560214121119 7.358125987048613 11.573731928917434 1.1321042873226632 0.8008929783136013 -0.6158529977887007
P 2.9149216102415805 8.026089106472941 8.848852711882921 0.46576099409389465 0.5247313019805157 0.4654054105266887
