# total energy = -381176.36048677855 ev
CRYSTAL
PRIMVEC
9.17798512737524 0.00000000000000 0.00000000000000
0.00000000000000 9.17798512737524 0.00000000000000
0.00000000000000 0.00000000000000 13.43290895886212
PRIMCOORD
 96 1
Ni 8.380555720373136 5.620414418821399 9.27003645983933 0.6073668146945604 -0.21559342783172547 1.3748719615763356
Ni 2.5694319524405818 4.827161180278773 2.6065348743673713 -1.1234057311074006 0.10983187062317859 0.1602889988324659
Ni 3.8947696900144497 2.122950518963975 0.80518461896731 -0.08822380543509967 -0.36766518096072165 0.057248697209823986
Ni 1.7358598260474665 6.372219877365661 9.364752346642941 0.6201508538331062 -1.7430487920661528 -0.3750545314462573
Ni 2.811427881407994 2.337164687511758 11.632159759602539 -0.04907927402515418 -0.6194448289050171 -1.4768370278569276
Ni 8.805000812003847 2.2363353449382384 1.012551092949819 0.9307727687265905 0.6938592392608502 0.2685167581933182
Ni 7.445190562987585 2.4822410954909695 3.256835490646379 0.9468064251506856 1.13855184272022 0.7232803727354447
Ni 5.575304622831152 8.913548839913643 11.431204108102062 0.1655060242570311 -0.3435459193150148 0.43839777158959337
Ni 0.3998545165754372 2.3716096649993257 7.335671504270919 0.6658270157139824 1.3886055091123441 0.6076779181770761
Ni 6.521628294237528 1.6983126896494811 10.046781256866666 0.016878263812577385 0.13508730275585767 0.45381693435814097
Ni 3.774996986520509 5.115946476480828 10.759303104261905 1.2050917354239825 0.356212973259722 0.9338339241504175
Ni 3.8243653675238733 6.019665941786142 6.037125222541431 -0.25553422989072117 -0.035937851547189724 -2.09324975480384
Ni 3.311820798434287 4.330843288566755 13.380104238423222 0.7213443320549965 -0.2247812649785806 -1.0217126875412725
Ni 5.021532545381811 3.629434145339368 4.573179720775518 0.6295384656955931 0.7142941100764343 -1.6572369385066557
Ni 8.468581773952476 4.508501543090296 1.7736410010614745 0.1501251709255866 -0.5625275468926828 -0.5280865916059938
Ni 0.9909470341946934 2.8461298424739394 12.6849104265986 -1.7458111853026383 0.028045850393622666 0.20815136973138346
Ni 3.207815873070813 -0.04132479500013918 2.046745709990014 -0.5692417256880647 0.4189736014267107 -1.5647031928422923
Ni 6.614564569760872 3.022071813813314 1.1073716087817689 -1.3095998798414026 -0.6270049006404621 0.7719192167890706
Ni 5.3489938701297275 7.9874075573948655 4.966281076030585 -0.5623113171168186 0.7406312053090665 0.2841683486876461
Ni 0.8493307265386397 3.1526194716292384 3.445567901801015 -0.8387169911399104 0.7069831782373179 -0.2968449157140501
Ni 1.915766686881813 1.3585436870942569 5.405522914984891 0.791228972861276 2.1088946604299483 -1.023307285721902
Ni 4.599097432453414 9.321620406407709 7.507854172978024 0.7026058751052286 -0.8490988485948668 -0.9540679918091053
Ni 0.7040322113238298 6.791378449669743 11.400496406082903 0.9258555339306312 -0.2134316442937163 1.2849962223601095
Ni 0.5321285533589635 9.189916322489086 6.787971581659249 0.16283644784466794 -0.6268755741514493 1.8605446069924927
P 2.5520304929904274 8.423398554082693 8.268304375539218 -0.27161159506855803 0.11310154251338587 0.3000796206012638
Ni 1.0017311665016193 0.8725620420239931 2.5767679158047736 -1.4077082913800658 -1.5959420962519157 0.7100852142014094
P 0.7117977043833105 4.014753487162058 9.240658647838277 -0.11148740394873059 -0.32457966262515714 -0.558262858079058
Ni 6.580459177716161 7.955183652263277 0.2071948456640923 -0.5004716581022025 -0.12335407347932949 -0.686910832967475
P 3.9821349286779606 0.12033256057540637 3.987263586663586 -0.31850697406851597 0.09730905556581951 -0.0839999971617392
P 0.393985195204987 8.797759381884557 4.70257921267519 1.0363443214115184 -1.2227446726190554 -1.4163973345136316
P 8.914439104453022 8.26582173061239 1.5157561445623606 -0.016889319556170915 -0.8051715510842973 0.06794140103697976
Ni 1.470882222785125 1.6149215184658838 9.558535402911195 -0.7602944880659487 0.45131190854810016 0.2537833086378855
Ni 4.614213573652994 5.882574380706526 3.5485045097172323 0.16639793994368116 0.5411943326325453 0.6418537927278365
Ni 8.585013690927505 6.441550375618017 13.574357207520508 -0.4742217232667381 0.9101394087469551 -0.35686911878648214
Ni 7.301784548267828 3.390834070800519 8.409377346486702 1.1652915727079094 -2.0467870924659266 -1.3107293654601555
Ni 7.1932915882676856 1.9088373082505543 12.533494784419904 0.9501555441285766 -0.8609035545392786 -0.6094692057495439
Ni 6.268848232963191 4.392950712669705 10.121777325223757 -0.9242326536152277 -0.8539425498404132 1.5964488606850054
Ni 3.494003799534265 8.763745769689267 12.901529227201204 2.2953690594085305 -0.18901773422572607 0.9779985344827737
Ni 7.858310021199788 7.318754642425707 7.749593118367058 1.7997462447581971 -0.5962635056925474 1.067841363578535
Ni 6.996836820582796 6.932545036063636 2.768575869713495 1.2798961821293826 0.30365705353987704 0.8758599187387947
Ni 8.514728682241175 8.932730828442557 12.715604361640347 1.0504126265791265 0.5107028489119076 -0.11388032966093935
Ni 5.352169452919682 8.335803865795631 2.154450281083634 -0.32359981521039105 0.5738527420975149 0.8462217841573878
Ni 1.3569926076390482 6.921035842946287 7.0167466233176174 0.24660838815600108 -0.2316905905039042 0.27245080314040176
Ni 2.709295264972701 8.534433815911788 5.734965766681798 1.2654039020504786 -1.909876106237769 0.016114131953043214
Ni 3.4934898323775094 7.5259017625680995 10.548299394846856 0.2677641962980098 0.006769971733981889 -0.011954087038082638
Ni 7.432781927345914 0.5786434988438401 1.547954351336111 -1.355812630952039 0.13499705703489653 -0.037478713671748355
Ni 4.888286559992921 2.0225525416827326 12.062254818763584 0.6135834850282336 0.14659916005019913 -1.319645951223495
Ni 4.498671921217345 1.5538787406162138 5.564085454037972 -0.2654700009471944 0.2206415317785942 -0.21716025809821307
Ni 4.5804018771264285 4.105945945546409 1.9150361192804246 1.0817250635391629 -0.527511178718498 0.34000062516591767
Ni 1.5046388514020381 0.7177450386257683 0.12016735684644922 -0.03394807481067057 1.01496534151511 -0.2222978364350946
Ni 3.977481690312334 6.192010143028227 8.207950864358697 -0.24907921829399685 1.0993618027843195 1.8665291067107017
Ni 7.8128698177516265 7.730286309242931 10.786343283498216 -1.0395774836368354 0.18958466247278963 0.022022527017678203
Ni 8.188616521279744 1.04174718084902 8.389495995505202 -0.7795299392567929 -0.8761383692111621 1.9864715834053208
Ni 4.436647098978874 4.0632224256411 7.4532626007441305 0.6719102457935848 -1.5452242581820743 -1.5173126193734707
Ni 1.5729781272806498 5.572587939288301 4.846526728506528 -0.7253894486586475 0.2934739423592881 0.13569665420508242
Ni 3.905517110381607 0.6178096317856057 9.658946229371356 -0.31579497445399163 0.5067037550548434 0.8720991661447819
P 2.7274768531429308 6.40417762093393 12.82328323437613 0.5467134626785617 -0.6494002376165268 -1.5573642359787179
Ni 1.1828770553031442 4.937159329809415 0.3051147670109774 -0.5527002763896159 0.5331470368480365 0.36704323110600656
P 1.8488958885939315 2.4936952206986662 1.2459610170039297 -0.21582688399877026 1.6302095020752183 1.2175705846172837
Ni 1.644878461316782 7.766621951628564 0.547308940453138 -0.5585901595114896 -1.743552728285765 1.2186234513618304
P 0.5960284379210985 3.50491642363038 5.609461411591539 0.2463618193628338 1.5920489318450968 -0.8988059860120069
P 6.440972162566666 4.676174149996871 2.9548641834780587 -0.4241356052436244 -0.5532412364947504 0.5340998876796091
P 7.313165249595988 5.802643309846087 11.60865218677043 -0.21011646387755428 -0.3125921512459778 0.2983122442881959
Ni 7.953898734371388 4.146411681155971 13.013022470478909 0.7123868657513924 0.8265567016282926 -1.0342856391102768
Ni 7.267211078991072 9.118153658227083 6.617708947402023 -1.657705907723274 1.2282293498827104 -2.2297424225476563
Ni 6.430270632124219 5.637485470813639 0.9413033136430671 -1.032006870378429 -0.38169620513249103 -0.562402077058412
Ni 8.868714383471659 1.4973148194182708 5.00068199919043 -2.2446177969975927 2.1604293379741306 0.09662925588997552
Ni 2.5420632013433457 7.343158904386655 3.347413941838107 0.46608418176126826 -0.1252533473845714 0.7172562780285519
Ni 5.634190574219438 4.081119496278125 12.680357228268841 -0.39477026470762977 1.1420603700941105 -0.7646363099744121
Ni 2.790043176492984 1.818314842766973 7.582702475777547 0.4873608317518574 -0.06607915101726039 -0.34118384684074143
Ni 7.267495596524276 9.331991529392242 3.7945148892983034 0.03754864767773534 -1.027595628684611 0.9994944995730207
Ni 6.2892692494592835 8.674095212775182 9.173454688697 -0.11434158556807406 0.10925620062536667 -0.8562997372186802
Ni 6.821803469752687 3.732117440871184 5.880363404133982 0.4671990120920019 -1.2606825853154096 0.6086449100760356
Ni 2.8148604477763257 3.58636186200626 4.907283153226007 -0.33739712610479955 0.8412184174055255 1.69544378859368
Ni 4.925934654225269 6.663620899276207 12.390555011335206 0.4875428658556765 -0.6039747582938759 -0.10820873319745881
Ni 0.4847444527000735 8.29134570673627 9.432977815508272 0.17680936508499226 1.2431006105675881 -0.870441575936701
Ni 4.036110658122241 6.486274696240697 1.2837816573531888 -0.8278643646961227 0.2893696903829274 -0.3003285033872763
Ni 3.0003016335307375 2.1054297457095736 3.2071605649459496 0.7201194585089599 0.11335865282951445 -0.45420234272201776
Ni 8.74277407409665 6.992220294156939 5.4252298842524915 -0.4238720671695926 0.5956299858736065 -0.6322229545062918
Ni 5.642157065149149 6.563727711166778 9.999484347064724 0.7226350258419619 0.7650096341534309 0.2856729582576306
Ni 2.9828083942311623 3.736256712080055 9.147622332279065 -0.8935989878897707 -0.7491073611008776 0.4172676744791975
Ni 1.6801035675244254 4.351539644611111 11.18742306106342 -0.9974183337702822 1.4875215041539671 -0.46507630932204425
Ni 8.455778484958296 5.089201828359653 6.795694855987996 1.7131666597947397 -0.3995977680032602 -0.10040852042674965
Ni 6.428756264608779 6.049081383525458 5.315026147859148 0.5023269661433865 -0.7216454082351829 0.4802527599521664
Ni 8.405923670753003 3.347009192702162 10.918268556853944 0.8852866113693333 -0.5456639383681248 -1.7325787457727644
Ni 5.325810280166074 1.6538086406654107 2.8834411046589135 -0.32237648432625127 -0.4821317221424342 -0.18300289549021387
Ni 0.6069566645916147 6.347329182202784 2.504028713944937 -0.052746438464096254 0.8992428164391095 -0.5729158321055424
Ni 6.406104997771764 5.368634757905745 7.946479251344224 -1.3425290264692558 1.17656174630509 -0.8388884837207682
P 5.814895919743742 7.342332885741869 7.208300347043443 -1.3647811529992369 0.3464404672539904 -0.7033113858126855
Ni 8.332123493833864 5.156219474406607 3.8202655616502534 0.11606422468613559 -0.6082209351647396 3.565611006277601
P 8.96809360442433 1.0060081074846212 10.852232037397295 -0.59394154242759 -0.3078402383832892 0.06726751489840672
Ni 1.8712993498375108 4.611074702802808 7.327866545876187 -0.2018773637972136 -0.2581374718415232 -0.9582768876841301
P 5.495327662046003 0.8449546633182634 0.20418171320761255 1.353505065864785 -2.432949046679255 1.4015965220553732
P 4.649622239559479 2.7762211311702347 9.998140690069206 0.017973553759285176 0.17312111760012766 0.1582467715914565
P 6.139980146391664 1.8980348199737445 7.040845258379996 0.6664155412276006 0.15952383853166718 0.261100411124589
Ni 2.037365809379224 -0.01090619950665513 11.347583487294912 -2.279279610045836 0.4010913218296511 -1.0492911113801737
