# total energy = -340869.10201598634 ev
CRYSTAL
PRIMVEC
9.28289363764991 0.00000000000000 0.00000000000000
0.00000000000000 9.28289363764991 0.00000000000000
0.00000000000000 0.00000000000000 13.58645316796708
PRIMCOORD
 96 1
Ni 6.861701586295202 0.7900392421636845 2.9366165314801282 -0.9350996782367187 -1.3778151033650594 0.37753821710005947
Ni 5.61874995590063 4.533273335834993 8.86045993140769 1.606899366594368 2.308248229364044 0.44728067590152004
Ni 1.640073826920856 2.9561282459466685 12.897959901784093 -0.763382382962653 0.6971790476627026 1.110053992390843
Ni 4.459576442000908 8.360972480141942 12.839755229403552 -1.8862520390609254 1.6046414237981268 -0.3134526994740601
Ni 5.687257712103621 8.171545749372532 8.83710509891025 1.117490136953914 0.14993670906386436 -0.2534385237039571
Ni 1.4501365369927517 0.655784462372169 2.9432473025174994 -1.0093554515275003 0.7916408635877141 0.09883809061583623
Ni 7.139547880456684 4.541943558639004 0.5489597054538541 0.025981254555110096 -0.41157165253568473 0.29457745983611205
Ni 3.2912685606074543 4.783159553887613 3.8187717853448326 1.4522850495491761 -3.3563211520664007 -0.5570757797494922
Ni 0.9438289436562263 7.671643352754173 2.110288600895206 1.1615976687960898 -0.7518049625376988 -0.42554431266569287
Ni 8.769651879442307 0.11953025365476948 1.5314519017639365 -0.36357429872079966 -1.7196142151922962 0.44405805519916425
Ni 3.1439211874082567 1.3307863714775945 0.5539241970551223 2.2914830940905637 0.6669670428556965 0.8347922021642074
Ni 8.310547801050527 5.194967288396706 4.83309502447606 0.8015318974491809 -1.719803191274651 -0.6633464153839737
Ni 1.0091433843939293 9.03849376662318 8.512755219996125 -0.5515422515257727 -0.3842899340015962 1.1434593073241661
Ni 5.690330349949582 7.834985151961197 2.2235863196563868 -0.12337001431892947 0.25781788371857534 0.1571928764056454
Ni 2.684028063043947 8.61912975656541 10.650883219380868 0.7203030352746757 1.4411015221285308 -0.7095882199603327
Ni 2.75017796422315 4.689931451510018 9.385521755077129 1.2752831088374035 -0.22695153315702202 -1.454116189220644
Ni 8.518874503585423 3.6790428830827335 2.7351842341663657 0.040059844135363266 0.6322730910179369 -0.5220475845007654
Ni 4.6963180824405955 0.6890135089987581 10.179324282385082 -0.21740631267074814 0.2287633895547802 0.6203963941850089
Ni 2.361131885298032 5.0540343948094675 11.512236436541604 1.0489776939048128 1.2957704301574782 2.2776693281359224
Ni 4.128186416433078 4.4244963863517075 6.768567241144932 -0.5073120780628038 0.9459085959267645 0.3547150485579568
Ni 6.436739991279382 3.4834151792586363 11.045745959557584 -0.3826945644900183 -1.5200778408234337 -0.2646631887751829
Ni 0.5260810854080692 7.943112298878872 6.618137947205979 -0.7310296776635604 1.2529541063229002 -0.7071711258784079
Ni 3.9671282090994864 6.81763568945298 9.90695675214108 0.660715662629346 -1.022559094701968 0.006417987711201849
Ni 0.3322356971925045 5.194670235795283 0.9146797288522949 0.08115327174156346 0.0051414349916234035 -1.7381608678462324
P 2.563276180565829 5.134322143237608 0.06346900145136761 -0.9098115930938911 -0.7975960527298843 0.8573083809888524
P 2.7424824452675565 8.392292963804394 0.7907298894619911 -0.2350083420232275 0.4213369594525647 0.4256186175470541
P 8.753750282372426 9.151577978827088 3.9922978473337403 0.6161635870505839 -0.9321184841212076 -1.2879193095441754
P 2.552600852702219 6.562337544318201 4.301892566561597 -0.6466609843084927 1.8148036533119518 0.011782851567540997
P 6.454210397400526 7.436303429277447 10.786068145130587 0.09104481982366255 0.7892646500460536 0.7528380317879034
P 8.549897934646452 4.1655593468495065 12.415966992163352 1.2606766717781386 -0.8641770830842278 0.24810888396092753
P 1.9386859545005073 4.912201060524169 7.36412985831503 -0.428907572710971 0.4603328810997878 -0.6835519437975711
P 8.715690417815209 7.086050563519308 0.6110436991510907 -0.6351301008507578 1.3806790551764156 -0.04032209665781443
Ni 4.075283204698546 3.4549538268848727 12.362123423287443 -0.7632078050580017 -1.0831736230602313 -0.3013464031288294
Ni 2.956369601185324 8.639087978223463 5.023088011766932 -0.9292465618900512 -0.37617013310793923 -0.05564818549192352
Ni 4.70731831158701 6.4725255468569625 4.803001739373235 0.155570510310874 0.7668615997605052 0.3718825614761789
Ni 2.168428293019184 7.34327955056333 12.495379363706675 -0.05753768920515252 -0.7211687257090806 1.2223186408252305
Ni 3.278922311860845 1.6553534701065096 4.513202791162027 -1.2654725505048852 -1.380947478346454 -1.1197519364048973
Ni 6.3365033040869845 1.3168156163169575 8.556476721478575 -1.268775646736189 0.7551430257719962 0.6554551855613551
Ni 6.463289067531491 7.537876853176245 13.296736309984546 1.1594960490720547 -0.9371894708862119 0.3539393467341969
Ni 2.653663717442323 1.3316960950694499 8.962820544700257 1.326503854685593 -2.0178480408340733 1.9869076425014751
Ni 7.065850986622599 0.2555357872159169 5.358198621167575 -0.42335013322785153 -0.021566413316866085 0.831360293664523
Ni 4.28954167636809 2.8862002069931276 8.720220469986899 -0.205513160777588 -1.4076586690890531 0.4339466777967753
Ni 3.6402775185971388 0.01550428921547917 2.7864861467213564 0.5756077771154087 -0.5104447101545144 -2.4247356576305275
Ni 5.821404810327121 2.500495969834009 13.505166052640561 0.11440843425026749 -0.5046504720702405 0.519053534869448
Ni 7.572260691790863 2.4793495377702675 4.632940053348413 -0.007607122923296576 0.8815225163412109 0.5524169408212422
Ni 3.2633456160737695 8.415927211405046 8.165797781535014 0.7028020502764347 0.21688669272185226 0.39251360746296915
Ni 0.47637026084944595 7.048612652846318 4.405733801414379 -1.0373077137660522 1.929071705329613 0.5628399359267791
Ni 1.6968201566862877 3.4957335793238626 1.7526660457536585 0.04348429643587995 -0.5393508516659032 -0.4623961913867198
Ni 9.181487462632784 6.5684921029039165 12.103084271953502 0.6736580817226269 -1.5634207265854432 -0.10671749336391298
Ni 7.131954473332829 5.537329694429568 11.789699347189375 -2.0923534682418157 1.579880414803363 -0.35298701012325656
Ni 4.143196855698692 3.8518161023849125 1.1505942634548971 0.5734238820902123 1.0745321453351493 0.21307863182967174
Ni 0.4435802950993339 1.281475639641512 5.3507528120550525 -0.21953775719145419 0.6073889261817476 -0.6777499924038134
Ni 0.5212966819464131 4.7666731345086815 10.43116269300267 -2.592792216223554 1.2507730395111814 -0.0013991943403717836
Ni 2.56051916110888 6.846886087799271 6.538099908620909 1.0525468993133098 -1.3809351370512797 -0.21711012158656803
Ni 8.54709450072053 1.7399020667862988 12.57188526120296 -0.5683454391260405 1.8646576007196016 -0.2291691096336311
Ni 8.512237234522395 6.049151326679993 7.009373860777206 0.3318885375817445 0.27345353337330325 1.3363758623836661
P 7.481176937879786 8.163033335763028 7.283045637599327 0.42208823579629245 -0.35283248682326335 0.32409578101020314
P 3.31419730827973 2.4307907203315344 2.5431128069549187 1.140239771945604 -0.8920871792309345 0.5602739749718157
P 4.84447306739991 6.603859928260745 7.59755843395948 -1.3132287348432414 -1.1829632789560593 -0.04299681527650014
P 1.7013409259641814 1.165931460582076 6.988273843182436 0.377843149934988 -1.0904696425010123 -0.09258979571327924
P 6.235412590665497 4.981934158708026 4.425447882965638 -0.6466152186722219 -0.602231293240208 -0.6094419520560342
P 0.3182500894017963 1.955098110729083 1.0235235151709012 5.7769224758135795 0.217100094284239 -0.5506521356113355
P 6.348376125250078 2.178518798573744 6.46861930514826 -0.11947067926452329 0.2613989162016143 0.8730641011612126
P 4.513092324725874 4.872850873729523 10.873252155358617 1.20055528100621 -0.34383593975160787 -1.552358041013378
Ni 3.8499038262632572 1.5562400130632383 6.794775635194784 0.9840704517084666 -0.29687422629008875 0.34016723265076904
Ni 6.571388365767782 4.5185970807459785 6.5815902660478764 0.2595749756189981 -0.6930328867048129 0.027568910757204135
Ni 9.009939585311471 3.5758913672388806 7.007376182032642 -0.6290129322094264 0.04983620679583675 -2.249053978392075
Ni 5.989703674820378 2.925643222725717 2.7164346452803487 -0.49314170009969266 1.4793369114606458 -0.15408904066934107
Ni 9.183269778241318 2.881122464087567 9.368919299525768 -3.8939614487991 -1.9577503042112283 1.252729391906604
Ni 4.908181567511175 2.9942438078666527 4.921176690534016 2.194645064623891 1.6513182590293756 0.6687742712677643
Ni 0.4779112212193235 0.8665033666378932 10.692199523081175 0.6436476514034657 -0.33585446420802806 0.16461770811480683
Ni 1.5058895971221782 6.590473995409158 8.82400786405567 -0.5138300816869796 0.9148213876036566 0.09491561563297847
Ni 1.8304288470697097 2.9150885724814346 10.653056344818147 0.10635111116342975 0.22549011812014716 -1.4528828310341753
Ni 8.000879746961692 6.433156794274727 2.5402731697431986 -0.4773615544473004 -0.3427851298895903 0.19232083045703005
Ni 7.755959877089102 2.162710030441807 1.2013689076423635 -5.54939501554843 0.8139274429000564 0.12912028653914537
Ni 8.088185363098432 8.75720351886396 9.569984922534651 -1.185619485631984 0.8656145868617027 0.2898988234135201
Ni 7.108125284962494 7.050543494755561 5.333851447323509 -0.7065301498602994 1.071947929547741 -0.33990343746642104
Ni 1.353037467902875 0.5110585783805216 13.106213269458014 -0.5412604099837903 -1.0365199277574344 -0.7978719320990905
Ni 2.2235315505829996 3.2890685147781715 5.725317576660839 -0.7252117854302026 0.429503297313441 0.3001600961302121
Ni 3.4159285413730336 6.323126654129191 1.8658820750494474 0.05616729122018714 0.508132259971254 -0.3659769946250213
Ni 4.883869668663528 8.4412323798887 6.41811850632773 1.4188573660183499 0.3360886917060212 -0.4030772419114284
Ni 6.283284473963441 0.5891778428182796 12.113274104471664 0.7059125708809585 -0.26202960780707774 -0.3141211862959945
Ni 8.48690421735736 8.687256914122829 12.732572152784773 0.0845890368959898 0.26226589218759994 -0.7146887744116918
Ni 4.469824756749974 5.999552825136282 12.754581893971398 0.28544721540006973 -0.3363920818790529 0.4791070763834975
Ni 8.32716418094258 0.9315662409537667 7.618468152231464 1.3810495511419572 0.2664282510954057 -1.5662566533723412
Ni 1.0930978758708743 5.256717097917342 3.1372616394001227 -0.5699048131933605 -0.04627600024840417 0.5574349628611238
Ni 8.285177652310313 6.48631064414171 9.522405450391231 0.06477868703828199 -0.7218400407444924 0.5210862490287607
Ni 1.5657085647335707 2.962579857133807 8.147755549156134 2.4928040711636745 1.6146147329607545 -1.5304794957727317
P 0.7609466530118992 7.8997890335402055 10.66268920370864 -1.74422250065928 -0.3184264985395677 -0.5436142549279476
P 5.566598658563448 5.894312658188679 1.158810552752359 -0.13164151029910232 0.22618148776021693 0.32921099074958143
P 7.6460968290318645 1.5403569817809462 10.510670678352078 -0.6226065144624503 -0.24863750277088792 -0.6399455199615302
P 5.689411343463932 0.40399246622355106 0.8244481445915472 0.34495719784024464 0.002254600362131601 -0.2667897481998825
P 5.030047397244625 0.13738589986838112 4.3198939542077825 0.9561328447579339 -0.5812058400284765 1.063890092240271
P 2.9257267687698674 1.4210903623099387 11.394129250505522 1.17681011487047 -1.444215128056848 1.5467748904986458
P 0.4230558169198198 3.466297523101683 4.506749323396131 -0.1335515828376216 0.10266569189204253 0.3725117104197455
P 7.969364322529558 4.4939045832527595 8.670453019776128 -1.280330184343008 0.9716250268562623 -0.22625836374473937
