# total energy = -340870.45005243254 ev
CRYSTAL
PRIMVEC
9.21501521098391 0.00000000000000 0.00000000000000

0.00000000000000 9.21501521098391 0.00000000000000

0.00000000000000 0.00000000000000 13.48710622928704

PRIMCOORD
 96 1
Ni 6.954101987231259 5.2786094979781595 3.3286984643040736 -1.465225668870244 -0.8915133090053355 -0.4723970113531735
Ni 7.287547311359381 8.638210515673519 10.570438856727197 -1.2166676131870402 -0.6344459302995396 1.3217267450119237
Ni 4.602291889197304 5.784762636526878 2.2279077684877477 -0.10441429915203308 -0.40657265665919656 0.1384148244671939
Ni 4.720972069643514 1.9397883395037185 3.904706025391226 -0.008893188724571783 1.2609965170114024 1.5178522939270247
Ni 2.4406612743568328 7.458181747365473 6.5695428169272665 1.2878205791827821 0.24019579976143793 -1.6531193167938563
Ni 4.401008312717256 5.04204162839084 11.829972011465538 1.8266196721102737 -0.15334830584857462 -0.7235685933998247
Ni 4.523890540083526 1.8628245327573298 6.815911776655326 0.3578034576752934 -0.7532105846359737 -0.3187846532099349
Ni 0.16067484760433218 0.9586656737604231 7.477346214426112 -0.9241861166480082 0.3750103084718832 0.55969059166452
Ni 9.058147972239572 4.782251920561076 10.911608206575485 -0.06407060522766386 -0.019518015428269614 0.2908622157680539
Ni 8.128491166251854 1.4871191490340285 0.5749957524208738 0.3643191473066242 1.4641172662974138 -1.089175349169621
Ni 6.820263106821232 4.770300045878358 0.8046744766629343 0.7526218020120393 -0.6907088665573266 0.17910407465643993
Ni 3.741425171495241 7.343989279309768 9.019259686697136 0.3602452343475667 0.3508717635524667 -1.2528834009859648
Ni 6.685115694256273 2.03206750147191 7.814901435322541 0.7010984373217668 0.12239942287554405 -2.057928710905043
Ni 0.12370697122448455 4.186786854930702 7.850007878636921 0.10466292482772942 0.926906600902965 0.5584682892216446
Ni 5.045598624248613 1.7981351262248049 9.398260359847221 -0.5396244170422643 1.3438870831590466 -0.6736154014101495
Ni 1.8819641192769956 0.49945843002366375 5.926369774729914 -0.1931266141877771 0.6250698884012783 0.19848582161716138
Ni 1.5186160709041383 4.947228337249366 6.0052281885964 -0.07611313821449474 -0.1348492186031226 -0.2885685346378708
Ni 1.924528274372969 6.305595294250284 2.137598776764094 -0.22204483988402404 -0.8892044583665007 0.18625302699639534
Ni 3.0219167865864733 3.044235553341712 5.417527694752963 -0.015556459677360305 0.07809005943520746 -0.6844667423023567
Ni 8.107969327455853 1.6545098996983185 11.335912658833243 -1.2908092294974607 1.3449777451200642 1.0077117452764903
Ni 0.8989367098969092 4.7349328176345065 0.6768797247065654 1.6379513508041663 1.212974223495853 -2.762396064699043
Ni 0.24419145164207107 7.187370881385722 10.490904982248342 0.0571193707208113 -0.5888057638629214 -0.09973283451596372
Ni 6.28713761885361 6.4332140394168 5.585334042601672 -3.0169075097522042 -1.410297649373797 -1.6021176289350085
Ni 3.1308843410376284 8.222834491619373 2.9031942170704568 0.5506035417615873 0.060955713747766 0.6906083364237203
P 1.8191361458099367 8.35802797926021 1.1876827599128774 0.24839041975708834 0.5526383128034289 1.3396751019602282
P 8.595369910122278 7.2503739401411185 12.446656492540704 0.06230040070111851 -1.2844539767033945 -0.06721352173201973
P 2.3614490039076044 4.936815370100969 4.039482994346127 -0.1596235973343251 -0.18699196204494892 -1.1665221026809007
P 1.3418167897455877 2.7638963616704193 6.652420820413338 -0.13066346265654916 -0.8309859410442398 1.1549768210454625
P 2.6033984423574585 1.3402870972264425 3.9282411741496404 1.1590656464028553 -0.7343078341941999 -0.44657156564963735
P 3.8310227640473413 9.062018278613314 7.396436538181544 -0.09534524697122934 -0.4179287051019641 -0.7984411743389991
P 1.8492508154037102 4.461643112572529 10.091713289347055 0.25468987961255496 -1.2138782233673608 -0.1881445875921534
P 7.714451319398168 1.1494164878947917 9.371907259448118 0.24290779937596232 0.17710889860328208 -1.344088914757208
Ni 7.6541851201499185 3.6498647807107445 9.288867071694954 -0.6457960652050361 0.24985157768364713 -1.1716630234518917
Ni 8.332308871905186 6.028555078011846 6.353506001151125 1.6519193829484842 -0.8192624819597246 0.07300416027186782
Ni 0.4895486027038522 2.5343134735861845 9.584585202192763 0.32780691131320316 1.3944995059992757 -0.5674265268561969
Ni 5.649099183112087 8.837697164194331 8.507815286434603 0.6737480703332719 0.9954900063993178 0.5187226338925905
Ni 3.020470029203908 3.187980575065481 8.289835945459451 -1.533037229197579 -0.6399380637623624 -0.4834877219496964
Ni 0.5423930287296952 0.3965727855883872 10.256297146388865 0.22062584804931037 -1.5891973213289148 0.6672220962892961
Ni 2.4710984694817517 2.0533541865274847 10.691957261847485 0.5520315324573655 -0.2564138042821971 0.2147742743645398
Ni 8.082526670556094 7.1728295874386685 4.064136845946855 -0.2759778424570537 1.3096135066881576 -0.30000737260243177
Ni 0.9918581584228383 1.4567464590153387 1.9016953097709335 1.185443622175752 -0.7032987874071952 -0.5739437591494245
Ni 3.7599842120588463 6.418460800120706 4.924951959563936 0.16531730528499272 0.49192736807661724 -1.9726058811668221
Ni 1.0484199215705077 9.060497801109344 3.645079423330069 -0.07506387101437395 -0.6173144128255756 -1.0339377688525548
Ni 1.3071591176702564 7.6118605554485095 8.337337505686497 -2.1519853209718356 1.9950109883348994 2.172301406821368
Ni 2.3475988360987174 0.649333279842224 8.645397306008949 0.15384941385470924 0.4774602848086938 0.4086022854947156
Ni 5.247020425956294 4.285949633235046 7.055442273621591 0.6240021092583963 -0.9211838394865749 -0.08865575076619571
Ni 6.4958761426106975 3.805469526965476 11.075759879405561 -1.1145369678628612 -1.3297205618506778 2.6709231561990254
Ni 6.0327018348408545 6.644597272529277 8.046245312806827 -1.389291222325459 -0.6739797267281038 -1.291831500114388
Ni 9.161918258131704 4.716392207101254 4.0803488221452415 0.047024962599286756 0.03502459570430097 0.04121864033015482
Ni 1.085842098198511 6.851612588448533 4.485609524041159 1.3200948658354554 0.19262087819595214 0.5101600890345601
Ni 2.704404223696918 6.389875823046078 10.804615429876456 -0.965704547606769 -0.8032100564825522 0.22898784686076046
Ni 0.49119440441420964 8.981497476009153 13.247629297607613 0.385983005433303 0.6278322816377638 -0.9692518986383953
Ni 0.8109996630794479 1.9297071129016414 12.477825359870565 0.8976109372626413 1.7260746261056596 0.676475496566764
Ni 0.8058447835902321 2.384071866163637 4.181191497716093 -0.6712404734200699 0.7604574960063742 0.36609526537044046
Ni 1.9655811669801484 5.539809103129787 8.16129109126779 1.9747200992963474 -0.6700536522008202 1.2917975615526591
Ni 3.829465426482669 7.793949255317839 0.5809044201514513 1.5761466587925435 0.06882071831813955 -0.33070454457597237
P 4.3646919379103215 2.8938557206915307 11.104203866748003 1.1116676167348662 0.5888098776279794 1.0051097888772689
P 5.593938102271104 0.04254848957017487 0.20479541876345986 -3.1399702772433598 -0.0015177221961070635 1.2662225412970323
P 8.156965563144377 0.8729024490228794 2.6053179300185305 0.6785424063981217 -0.654859203848569 1.416963748540063
P 3.5471634365789795 5.616339804162924 0.30621034677671494 -0.36628372723216274 -0.10780661266303368 -0.6942603313540108
P 5.240459335151287 7.690879310579051 10.617428062110482 0.08995004409758701 -0.20556072618607177 -0.0744303511954331
P 5.139462768827002 7.572567730739865 3.515521838970613 0.006154963857802303 -2.298249980500752 0.04379899946282134
P 2.312876658917157 8.553644321407281 10.921130081756404 0.6496468064096941 0.47353523872267483 0.04184650372214083
P 7.042787293280977 4.2059356564655435 5.371105212802978 -1.1129842786637607 1.8294890232382688 -0.46454537651923866
Ni 3.723492751963575 1.2789611712330018 1.9264578985507341 -0.23446712480777684 -2.1063233001583463 -0.9559664943833989
Ni 4.44567349127326 0.4298952019647781 11.15892170535904 -0.301605570327487 -0.6536250743311517 0.5440364300670308
Ni 6.019911393777158 0.13753870900302015 3.880887975666921 3.078382329228234 -1.1774724310448172 -0.7070060610554534
Ni 8.423758682507575 8.09394407435863 1.7197411491231673 1.191002090100136 -0.30451400222353364 0.4964471103238418
Ni 7.3963397805222 8.926815575957301 12.882587529445484 0.22028929064549804 -0.8388532596074585 -0.5514201241256116
Ni 6.376550911102198 7.263016940962005 1.1898998925641204 -0.7924335346923385 0.6400578771696783 1.3764555040133715
Ni 7.21681285487168 8.294610244821916 6.387278110268084 -0.15439474483521798 1.340498369192472 0.30815751251339185
Ni 3.1416106187019954 3.3892088614544766 2.464782498080414 -1.364973985736333 2.1308827346652657 1.5192815701743834
Ni 8.268126291207317 8.304267580725917 8.602939123587495 0.13811709072111697 -0.7487283804949042 -1.3656167615266546
Ni 1.7360996440628451 6.857657638403708 13.103856630838315 -0.3543921180008993 -0.5360331001465801 -0.8502522454730197
Ni 4.419484418144281 4.63298710474714 9.369034017716373 -0.1725883850251092 0.06863508466989471 0.1636689710482923
Ni 9.042795756957068 3.463813624315918 1.84426733519676 -2.826601138622041 -2.0022836107369133 2.1226685742855897
Ni 6.16852194351363 1.440039636502024 1.9041907358804786 -0.985932701728186 0.2986457163682147 -1.4172838508836427
Ni 5.990506280351904 6.315529080609552 12.67495296450643 1.1774174094371659 1.4360274500397334 -0.9480048163341608
Ni 8.431167554708738 2.9285963279034424 6.184944022058019 -0.34155305725470214 -1.3581412790852159 -0.990310004860275
Ni 4.712862856289009 3.3055733837209726 0.5625637754475077 -1.0719330171494057 0.47980513089178656 -1.2754080644510422
Ni 7.288155502360969 2.534746579299437 3.7321115556572892 0.03894244270146841 0.7674485826122267 0.9273640001553577
Ni 4.906055649444905 4.287654411042528 4.525666273507859 0.5262387397639776 0.3999039863897693 -0.0680766410632634
Ni 3.003505186265678 0.7926304518284599 13.099810317674722 0.1280450511970956 -2.1977764111640212 -1.1926884766636234
Ni 6.1570584646352176 5.787554786125076 10.237117935303946 1.4368016092015963 1.9045873470350039 -0.35638138051678625
Ni 8.562638176218641 0.45793188563646 4.926947931850964 -1.4955086361245018 0.7789792089596456 0.647115298237092
Ni 6.05762845089078 1.8887095103855154 12.611846697581068 -0.47382423071800334 -0.05302180361266998 -0.08231463903951632
Ni 3.9852913331016144 9.092096088146384 5.049154698604865 0.20326858771778542 -0.5607838247286987 0.8268834888400921
Ni 2.5547339472152553 4.103400182606938 12.407867729162165 -2.259054798358529 -1.5281500763086069 0.373486415628189
P 2.3514507124421073 2.4521339682504215 0.5792116218636986 -0.25454204118078094 2.955029541300485 -0.5345071504203568
P 0.18698279442907656 8.006981976146744 6.296698197098268 0.4263056163117496 0.8681157560170017 -0.27875154854744894
P 8.688266478107233 5.6919766487240295 2.0150280169107573 -0.40193232967370773 0.9296803069933601 0.5320676877409288
P 3.8967995423705837 5.856777980123984 6.909700358109276 0.34490988954207696 0.07930362012733438 2.228628363547872
P 7.937390181540813 6.0746301538897125 8.514827912983215 1.5323155205402061 -1.2835132100566797 1.5150451634955326
P 8.065432817405407 3.7102323451259256 12.630378093099146 0.15916079876529363 -0.9584188125786333 0.9525163310512693
P 5.442120727253533 3.5197487664316487 2.489706349625787 1.2082909590875706 0.7541657494603916 0.7353684142482303
P 6.403302100156888 1.1468731437063333 5.678381736835506 0.3808873360779505 0.6557439204463674 1.2532292143611576
