# total energy = -340892.13117668545 ev
CRYSTAL
PRIMVEC
9.07881626973821 0.00000000000000 0.00000000000000
0.00000000000000 9.07881626973821 0.00000000000000
0.00000000000000 0.00000000000000 13.28776531157713
PRIMCOORD
 96 1
Ni 6.4197942652260584 2.0649857950440125 11.418136455242726 -0.15234583272598926 -0.5188864131639644 0.130187294351079
Ni 4.870993636934543 0.5058725395730592 5.953928436568497 -0.0873488590293141 -0.7682759636095284 0.755636420468647
Ni 2.765062381392892 1.5490911504059106 4.79364121609509 -0.2097850486800645 -0.17388370679776505 0.8831628801581113
Ni 3.6665434235465657 4.435101519548147 5.108348388632587 -0.38113519042269844 -0.6115286593817338 -0.47661901985432115
Ni 4.988818511954135 4.462973484897981 2.6671863889345997 1.2741711067201476 0.4090735687041793 0.32271664127448935
Ni 7.325506035670619 5.96493650105927 2.6200282945969304 -0.7071711258784079 -0.16137220459431564 -0.043604366953512
Ni 4.772361379097215 4.529984226346556 11.457919827282781 1.2483636587387403 1.0524975341326133 -0.22456426387176806
Ni 5.536715983256135 7.885569120512937 12.702890612576097 -1.0311573778939402 -0.9657086613718271 -0.7018234884132494
Ni 1.7480624835026415 6.498080896239615 0.3045543325209757 0.6459760424263261 -0.6880128077824021 -0.34954661698313994
Ni 3.0089375387959025 1.3983646459310095 0.35936132940171783 0.018616072439290518 0.6258404480187156 0.01663992254952618
Ni 0.5998500884088045 8.93990111010303 4.2937016828269545 0.22945373075358547 0.21623311829825342 0.048074744020039785
Ni 8.665539288320623 2.327018584596753 1.4037728966668064 -0.359510155953755 0.28527829392237325 -0.44708218673746875
Ni 7.065534137366873 0.8485923991095503 4.60704067778197 -0.269076230241214 -0.13003817036772444 -0.435409892605863
Ni 0.8825035929123844 7.380559976348597 2.353143785733783 -0.4463059706930765 -0.4240443310813987 0.8387311322072976
Ni 7.410556384659949 3.6204956684148524 4.141703236219965 0.7531547916973739 0.3326518981103303 -1.9944273479172876
Ni 7.840574508045909 3.684773686224893 12.665313392842231 -0.3151910223214055 0.06622904633156335 -0.6646337667368296
Ni 8.177961471020025 9.094704002995543 6.525369093715835 0.4039632440608075 -0.776998688194507 -0.19614174686501704
Ni 6.701909395936398 0.5697111426850766 0.32848427593110363 0.5890063099095018 1.1806472292283732 0.6008300420173073
Ni 1.6274504119480664 6.582105339012486 9.311932835218828 1.277387042554284 -0.3163169083957326 -0.18133013577348125
Ni -0.2507441896452536 4.898112060550164 1.165145294955067 1.5821578979836302 -0.355407189528975 0.7393014307540493
Ni 6.8372654647965545 2.082980008504394 7.04432239148956 -1.2040761496752748 -0.3053529531850612 0.5351501833209945
Ni 3.5887924426814255 4.175765138369642 0.3227228592499946 -1.0189657209237548 0.6165621080405833 0.8647398975662334
Ni 6.286417378270223 5.700860977889685 4.811246856227467 -1.5417478695976996 0.04064656987676871 -0.16497534856454169
Ni 5.195180001335807 3.0975830989508797 9.34689263227831 -0.30606643431231806 -0.33057804630043713 -0.30999148039833707
P 0.15661139305462815 5.468933542441197 12.344758554870916 0.1766245027676958 1.2118635069301773 0.8668924251328618
P 3.9691312845057256 6.15263194459102 12.722144965707669 -0.7608035664918833 0.40390950800473663 -0.09222469906437665
P 2.4394415640518003 8.410769551627777 1.2750661526998817 1.0885770534639898 0.8562267178888995 1.1699514400774238
P 6.453549303392405 7.897653024708581 5.817808839276446 -0.16674143932602895 0.1973663633007375 -0.4054691391823727
P 4.824119709540018 1.0594615206723914 12.443088488132949 -0.6906867550701395 -0.882740447908712 0.5949563568453495
P 3.961332581497417 6.644821800457651 8.060810244153188 -0.23304504764926964 -1.3013224703239588 1.3006496126266502
P 4.772243354488241 1.173355268331567 3.8644543509257523 -0.20603226650585163 -1.3365910637182659 -1.2090864584056726
P 0.239993055649399 5.543661277553406 3.4527727123661975 0.41293408010085014 -0.4391477623817404 0.13140136926383822
Ni 1.5165254371453714 1.2682742903942756 2.356147058091348 0.9758632333073259 -0.7915899557451207 -0.10928011188476663
Ni 1.7470184196540322 6.644685618216528 4.8940038962762875 0.6767009823140087 0.06543406123409376 -0.7477048243263962
Ni 5.8731315129102395 5.631253695043699 9.314125369300909 -0.03602192662056376 0.5611414651784336 -0.010804289704355588
Ni 8.573943112941315 2.3193288273813426 10.313525074348425 0.9794213829722292 -0.23854669419378918 -0.16262664582670702
Ni 2.4981996616883237 5.521554360411112 6.9627891758476315 -1.3964466024233178 -0.8593158983371846 0.7131263150205783
Ni 0.7832249233705257 8.997960138901789 9.128229347115196 -1.2657751693469685 0.019599776508798503 -0.27688595609361993
Ni 1.4114381410788144 1.1059904530560722 11.310837559580332 0.5560121143716682 -0.7385041316637345 -0.1613071556843351
Ni 4.144497695807809 6.6279896754548515 1.7973159685903892 -0.3174481937866984 1.294308243789655 -0.7007639368004834
Ni 5.737902547475133 7.940940819753536 8.020588365296714 -0.532380076775025 0.839094429083987 -0.14289754282889583
Ni 5.514345780447669 2.759497067139 5.11638768026688 -1.4882532401136692 0.2722679977056343 -0.34057989470815536
Ni 0.7252948137600302 7.457575573111673 7.145043684905715 -0.0085741148222562 -0.21250296183185982 -0.19052620045045252
Ni 4.960338265927285 4.726159284092229 7.231361436619096 -0.28678933125026096 0.722077096455963 0.3413519969874895
Ni 8.231217806115179 6.8991557539789055 9.467771621025486 0.07278715916505528 0.354231424053319 -0.956023058652947
Ni 4.735437834120741 0.4181611895921855 10.248813089130007 -0.4544198580494626 -0.5427094837254912 0.13689041740286748
Ni 8.197889472304352 7.169758945906318 4.5561757028409335 -0.09813052302585035 0.8819955993228875 0.4205995670659079
Ni 7.233138160924947 6.2802710197875395 6.991357486390407 1.053614678456192 -1.061105330406282 1.153476325240536
Ni 2.3697434930450654 5.198530084467431 2.8021103061495913 -0.5584554337058383 0.026695507013315318 -0.39041918682778565
Ni 2.1676762836668053 5.173844783559874 11.43987568033399 0.18371689083810294 0.1900469468211888 0.7606205039467998
Ni 1.1602636155516124 3.1580752504577028 3.8899667319777294 0.16310101435996427 1.6686014715898552 -0.3073298744057739
Ni 3.6015391004505357 2.711697100504838 2.8365925574835344 -0.6263844934476438 -0.3587696782433047 -0.6238141616173063
Ni 1.0767475864789335 3.3628116317619727 8.226800962094757 -0.8128789470308839 0.7279286701407335 -0.2084755858400216
Ni 3.805975880824335 2.6934214437461357 6.959387343464379 -0.8437054454934372 -0.06853558297755294 -0.04194626252479873
Ni 4.244419145527767 7.0653253245971515 5.892937858059164 0.03555192896268071 0.534451357481757 -0.06461259377406292
Ni 0.5892460312333627 7.626650364873876 11.346395650619145 0.621802016283284 -0.7982779092882574 0.429619511176331
P 0.22661088075504868 5.448569757985275 7.985840104651778 -0.5116125052103705 0.3123412115774363 0.30760189712023794
P 8.545744310212786 1.3276315898917401 8.12362112528553 1.2622579002223293 1.9919308067476793 0.47944517644920653
P 1.7445580604977438 3.166527628223401 10.31473346476799 -0.8568797780918662 0.405001969737967 0.8834842680532721
P 4.056505810410221 6.140548040395375 3.887389256094075 0.22911280247439897 0.5668688545805141 0.31161461782405686
P 6.770563403094525 4.033935873648108 10.67355642037647 0.19502845919618023 0.45044210434863713 -0.1149866753512407
P 6.332446975769787 7.6601239597419015 10.204658267149904 -0.3987282209141133 0.08600417207596156 0.8240349636477035
P 2.0532105705949135 8.598691965561397 5.8032718389773725 1.3997198738579506 0.6488857598739534 0.5466964933976972
P 6.889323396169828 3.8448150559926053 1.6259705649278635 0.442451887054309 0.2586396082889223 0.46677940805608
Ni 5.4986031133738535 2.891657392740803 0.2958359454442832 -0.3260503336334126 -0.1914872788121412 -0.1590605257420035
Ni 1.5324133652763843 1.3296470870603598 7.051178713389297 -0.4225093824941111 -0.9101838888316452 -0.3424192619097393
Ni 7.105371982303378 0.5507836269321991 9.527806200202136 -0.48394229298861174 -0.1912381389158126 -1.119459344865143
Ni 2.8703675690452455 1.7832610534248916 9.15578809331045 0.35216168600848385 0.4071436986713182 0.45274349878830417
Ni 6.299972050669996 1.7781406011586678 2.356279608806041 0.2799049454256018 0.7581345043001525 1.1747668591881963
Ni 4.111251071341655 6.856212953944796 10.581737814003327 -0.09261344986236308 0.6423811259862163 -0.4902399530718653
Ni 8.042378431757998 7.070591037920572 0.2388727297457607 0.450093976980599 0.5891515772381144 0.4636010103280983
Ni 7.568827385293063 3.8013093693618543 8.716561326779754 0.0018686777776225883 0.5099266328675154 -2.226209983914366
Ni 3.031870628201011 8.350803971453296 12.406905774548186 0.5885602235110187 -0.1324236398807655 -0.39476589383225563
Ni 9.071698283061838 4.692658452775979 10.381650694410995 0.277887914995573 0.1312116218505353 -0.6796040148934166
Ni 8.719149697242699 2.5464626479423034 5.755542687108595 1.171085810792183 -0.18622294508940831 0.5025200559907991
Ni 3.4459009564791327 2.7794795413197764 11.54959226471712 0.07447920215549754 -1.649901324077191 -0.021556900235169325
Ni 1.248092082259852 2.9523946722816463 12.75557679802175 -0.2798116143808472 1.191999935237031 0.47501953657768514
Ni 3.2122303883442695 8.82269359457653 8.18696402503986 0.5296644776160749 -1.4964753709131453 -1.404319834523807
Ni 5.625388779859336 7.946832971386122 3.74830542535358 -0.048602334388735645 0.00628686144997627 -0.37260169903039053
Ni 3.11800135630325 8.43994886649239 3.6930018172335433 -0.038794861380010606 -0.364002901617786 -0.2892876721920824
Ni 3.2017625134099506 4.575487252513778 9.403006978673831 0.8181160270601071 0.17528624357224654 -1.2138324577310902
Ni 7.107687080402469 6.019808865415752 11.593229594180958 -0.17179339992763962 -0.18700661733296828 -0.46432940385369065
Ni 0.6316313919604751 8.936605499867854 0.22660452558379626 -0.4024658335796746 0.6546977385700402 -0.2791459557723902
Ni 4.60143450885574 0.0788268205700113 1.740670511454487 -0.11153574068816277 0.0033005251281427025 -0.1870351565780585
Ni 5.8625183769187235 5.568010662266193 0.5080632578919241 0.6439016763958008 -0.3620460350017313 -0.4248663127620619
Ni 7.636991136383147 8.782701409766752 11.704514090100215 0.635596498964215 -0.4264215730643237 -0.706599312535338
Ni 0.00602561022888759 5.157630018050167 5.614439727673051 -0.1743372493954159 -1.1741035145725844 0.9540613069408861
Ni 8.164279695195203 8.928262067895053 2.181466097402917 -0.5120632195945439 0.21670054485297519 0.6116222475368048
P 8.7760012435035 1.628603421589574 3.522439915398278 -1.3249570790237635 0.4753735774829942 0.1828563426100206
P 1.8862602217942295 3.5060935070554846 1.5288771664152248 -0.6555035223007871 -1.5751202744105581 0.10080241343105865
P 5.0478035799925305 1.2976351815803875 8.083014304627484 -0.5770936176323157 -1.0333446153532462 1.023350737365328
P 8.58597254424051 1.5643707978599075 12.46418947245415 -0.6380588444617785 -0.5585150832991801 0.36379361382045733
P 6.374327554323137 7.642774342222835 1.5596643396066976 -0.593653578873526 0.6050348241272742 -0.09647318992808547
P 1.7962074451476482 3.409277012433129 6.076162892555651 0.4162981114770766 -0.34613296331590065 -0.5622015310118318
P 6.728492169403602 4.151433911289005 6.250325452846208 1.9457648497145779 0.023200863596495525 0.16110095321079998
P 2.4646806727399238 8.470290269814587 10.252693375120403 0.7009503417796766 0.17784500543835824 0.8413220328629253
