# total energy = -340867.7323689393 ev
CRYSTAL
PRIMVEC
9.22239268786206 0.00000000000000 0.00000000000000
0.00000000000000 9.22239268786206 0.00000000000000
0.00000000000000 0.00000000000000 13.49790391242554
PRIMCOORD
 96 1
Ni 1.0592839950881217 6.203497605780912 6.9949642467948605 -2.1426036226466194 -0.7773432160181194 1.7536088269701864
Ni 7.993093635407021 3.611700992585717 7.035350025507122 0.574348707897327 1.412351446579032 0.1246275408751144
Ni 2.0532550069513253 4.058848689798389 6.121461658353545 0.49017130461745906 1.3499260902642751 -0.5602598339044287
Ni 0.4061135843122278 4.22878971519878 1.3498576024957438 -0.6749991691315537 -0.5175689799041215 0.4331077268352476
Ni 3.5798837386848463 3.7061014015507356 8.300225126192506 -1.436148806108946 1.1753720968723627 -1.1452025152675178
Ni 6.843605419911822 0.20257261655327458 3.255950893361215 0.16076413869667153 -2.0578202103516365 0.11288685539941848
Ni 5.086877996924178 4.716930946785182 10.082691324227088 0.2918191803646845 -0.9852660146784644 2.227007025894365
Ni 3.625672917124795 6.687064530719538 11.671691095998753 0.2210318252384774 0.45319267051058076 0.7922589567876872
Ni 7.544368909087958 6.9276029702101205 1.1880599496154896 -0.07300158916870653 0.3345483438020948 0.21387567380967037
Ni 5.39956321243404 5.606117135801519 0.6008766789515149 -0.9804089436964792 -0.04436772748209778 0.7942302215814451
Ni 0.8579047561159406 9.130269957001449 13.178759133377563 -0.053709830818630074 -0.7160005512445797 -0.3028854654811752
Ni 7.764507416512243 4.917979101868946 -0.04732470678038217 -0.5174586795785023 0.0644891808223212 -0.25389772272856276
Ni 1.2317704008005814 6.5951726124968495 1.2187705164241562 -4.06344702652917 1.1101288114928367 0.7157503829069867
Ni 2.7206703250823745 5.009631237888325 10.371478554220046 0.2645307769623767 -0.5766578156464779 -0.005886797798080184
Ni 3.224683294049473 7.681717999622934 1.8370111158523548 0.7482599254989178 -0.6520675000360447 -1.1972272450742414
Ni 6.647057792336356 8.47223381197683 5.404614316770709 -0.8024178995985599 0.8607328332893693 0.7413788821083683
Ni 2.081355636700877 8.864093266541468 9.74339397310669 -1.1456935959713237 1.8159182265323695 2.1262413792385124
Ni 5.231097769823255 1.9173630544210845 3.7918041722102727 0.7511765849250805 -0.9407458207789025 -0.33275628489867853
Ni 5.746048496218306 0.8264886762859939 1.424838419710309 -2.7512729582026876 -1.589805901447191 1.3165683407394357
Ni 6.431152363039751 3.872897591130779 4.330370678913717 1.6604063373735727 0.760733118265264 -0.022958408568386268
Ni 8.059070630887263 0.21287864009942623 1.0894808746381568 0.7721796695393088 -0.16565643379196632 -0.29863646039683406
Ni 3.010032110124033 5.3310592814266 2.41314134918294 -0.5927066415792244 -0.5913233880784525 1.1097668001677274
Ni 2.8209915099906855 0.7333213011895395 0.7066344642002788 0.6285033395628595 -0.12915113977708081 -0.9175567842569489
Ni 4.200910422867669 6.6011026108325765 8.96487557107153 0.030721597453572898 -0.5537426016112011 0.9818762722706252
P 5.832222531131273 4.361057267502052 12.207477051383034 0.25765847532257563 -1.5209931535488515 0.5130507803187938
P 7.401006818685339 4.317924138083393 9.043757460286116 1.6673871395667799 -0.3359706780709181 1.9396556514930468
P 8.756209719836429 7.903765542281272 2.71345656971969 -0.6657018029900278 -0.2711799068477781 0.9093274543686212
P 4.160885239699617 4.8198436239677385 6.248449390987759 1.6817704048716455 -0.737183355969782 1.354736624279041
P 9.025439022192405 6.672696043305753 12.867848306172203 -1.1484138231159642 0.26277059973816036 0.23427917716668684
P 2.0503776205115942 6.842941407656499 9.198740687396123 0.3396206161186796 -1.4698405419344365 -0.6659846243377692
P 2.982134373008052 3.303470192621977 11.612651184108143 1.6393952823395446 1.16835247102142 -0.1568054111592396
P 0.1980997562222826 0.8803640484129813 10.383410485552494 0.20179020340004603 -0.5078455819687705 -0.42356867699656087
Ni 8.019884685430798 8.756680061850615 11.757335765585948 3.06732221475933 -2.786013961228299 0.11010492177890714
Ni 1.2940861064841132 7.026282569264996 11.417363335339305 -0.0629694017436851 0.5248176910467348 -0.5788681930342352
Ni 4.681544627011953 2.0121692486532443 13.175155022413952 -0.9707637072972313 0.9348510525610221 -1.489696914538731
Ni 9.179130192122264 5.411782882410462 3.497279691883481 -1.7325530347411515 3.4459783475139165 -1.9386441795093967
Ni 5.881230324531048 5.15335300159591 8.053388714908037 -2.585450174036186 -0.25373471478813714 -3.1157291453078084
Ni 5.175837194352526 0.6759524868081609 7.03741584141257 1.745230373098504 0.6166284425021444 1.6426580122512162
Ni 0.7905656132730455 4.566818065120119 12.349042619739308 0.41931992902253584 1.0012832160423273 -0.513995146509934
Ni 7.7524998615618275 2.263073657240807 9.629066740807291 1.724496225874946 -0.3083107502618045 -1.6837792077715583
Ni 1.6772396225900779 2.490682302537471 2.44495583636608 0.07474171178826482 -2.281871796253044 -0.4387636395694444
Ni 3.5920019623444825 1.254042478531191 5.727457075308519 -2.2228773199967073 -0.4111525627203951 -1.330821251114024
Ni 4.911108419504846 4.038199753136347 2.586941023578149 0.3650616818996036 -0.3646742166531977 -1.0875375564558818
Ni 1.391253233179642 8.958761124887102 2.2235501722212208 -2.1750455452254087 1.7972178219093884 -0.985017131892452
Ni 8.162619653147834 1.7351931366518378 12.00971944592009 1.4101963479092423 0.18542281778561615 1.0539800322154107
Ni 5.979845366838878 6.390168051058455 11.949518434821911 -0.23166693635482039 1.7714651384253168 -0.26723352060552047
Ni 3.822441882118702 3.4362910884713513 4.654401281597159 -1.2318934289978591 0.9407939004080185 -0.8173015015786118
Ni 5.53001395342761 2.9929245721570426 6.3951850325431145 0.08494847711793756 -0.042150408115804824 0.3541424638839385
Ni 8.815804819751625 0.3393121069482952 4.527953058920394 0.31322438551333803 1.0387519024117466 -0.30323153596668423
Ni 8.69723252021438 7.343099416585753 5.164527774509442 -0.8756863692754079 -0.3950913954924744 0.6160188339426036
Ni 0.6460885356250303 5.111464895155981 9.492643578472794 -1.9693115266862664 0.3408598878424194 -1.307298999622368
Ni 5.9461467448812595 6.161166824504102 5.686977228193419 -0.4421117301060709 -1.4579725868522566 1.5228039815053451
Ni 1.4873136727829668 2.231966527557434 12.403493469154242 -1.479751373290245 -2.8389995122863945 0.9921174903826591
Ni 1.0353426643267707 2.966115077348396 10.243842487397647 0.2012818963050598 -0.6065623165153942 -0.9489586956069981
Ni 4.605026436978468 8.254493126585654 13.186277227690605 0.7116273618775486 0.24691486365282636 0.8386210889919945
Ni 5.597365085380671 7.738112929363174 7.468835670566534 0.7754380285756065 -1.208903395860589 0.6819059235537159
P 2.8632208449507104 8.93827819128889 12.07166072247076 -0.573298926476574 -0.4842665090972499 -0.005646399652499953
P 2.891810261499319 5.969258060323457 0.3735935841078074 3.1658653998425668 -0.555189875580689 -2.7486977412763434
P 8.639196004620704 8.355653549205552 7.41902829574264 -0.8690099856964969 1.3509290776074927 -2.0228118125972516
P 1.5186882518469558 4.1479185559359575 3.63391865820096 2.5470273512836132 0.10441352782108469 0.7539875720113144
P 1.0669570255940708 3.414397128830578 7.811304602445341 -0.7490837069517937 0.38455964272321513 1.4706404121279124
P 7.035846190220127 1.549002255780916 5.052899936475778 -0.3211400408159889 0.8796288988629237 0.3800967218558551
P 3.4105606135776037 1.4077152036761795 8.37148101910256 0.5550993727494117 -0.42264513674102694 -0.06558189966586771
P 6.347560598008594 7.520178573730861 9.68210010850496 -0.3026214131865111 -3.853091964278248 -1.4721635336406582
Ni 7.8199432174392385 1.3505732601487024 7.2521537158269 0.16070371777238127 -0.8277340097658453 -1.8587142386519733
Ni 4.321585427880102 8.967411728991165 9.583335663439684 1.9726971553290478 -1.2210819402046518 -1.9931255983867289
Ni 4.235595840815836 6.9524388730376705 3.904457540282712 -0.19840688875010992 -0.1729287990836635 1.439845538234243
Ni 1.2264490803655663 1.2939477705975877 8.139181865013438 -0.5087015022111626 -0.452625228042885 0.005371805834874619
Ni 5.288682388187614 2.4579612541779667 8.897048563668822 1.601047021578649 -1.1352924552426578 0.32937605557253596
Ni 9.028021292074216 3.5207774255687068 4.699052416810625 -1.6936992950987477 -1.8429194377115616 0.08317364460570192
Ni 1.4019696531891526 7.587225366733565 3.9639161487898695 1.5538122569614015 -1.032894158079389 0.45117229764644234
Ni 6.171827910159002 2.386413933666965 11.144435853616878 -3.060765387477419 -0.045138029989219036 1.284155471626369
Ni 3.0462207780391104 8.281293399001864 7.70974577247225 1.2519485478765213 0.3234933715395138 -0.5161512736209886
Ni 1.3420702143236003 8.375666140789578 6.382159325467871 -1.3227942670444897 1.932372230457756 -1.6967812764581809
Ni 6.701165568752707 6.492204600959683 3.651978869306489 0.9483105205000376 0.4724083242070832 -2.1330221496057713
Ni 7.953714019709421 3.8907705876698766 11.381256746716899 -0.013267406532867471 0.788957660328596 -1.105045226322342
Ni 7.749410360096091 6.394521020287792 7.898351997921907 0.47793388201100273 0.050453785775177624 -0.5252432086199276
Ni 3.7737199828844123 1.3310217881864284 10.897748845089858 -0.6024958597555043 2.0845591690083776 1.0750075423096712
Ni 2.803026289527237 6.285945794150125 5.714202652900886 0.7701934923472156 1.5988124758211755 -1.0013163832731078
Ni 0.08001993244106831 7.677383475178468 9.2338079123911 -0.5829971276009444 0.3137427199106532 1.5366851103628116
Ni 3.4930825810862967 0.4244772121288696 3.097890153895637 0.3776796277739302 0.7220637267195242 0.568644458423698
Ni 5.9774198776284635 8.822749281255206 11.116846144408226 -2.9060302285836466 2.056595079695284 1.635433983698951
Ni 7.875489687075454 6.119158826962517 10.751646781894788 1.1300980555259117 1.1553187777659137 -0.8591955707092364
Ni 6.835646495240387 2.603647387474215 0.6382089235285365 0.6662995844750267 1.5762988680996917 -1.933682721739063
Ni 2.5315836129868514 3.7627637806715906 0.42002002986501713 1.4541233883094957 0.11387287346177163 -0.47056818567455083
Ni 6.982199533425528 0.13035113915527188 8.935504095644431 0.026999925627611564 0.05129299384702134 0.08377476852481056
Ni 8.052624178575172 2.1282146126632897 2.517345161306401 0.9212229202546264 1.1974254771279764 1.0930530869574724
Ni 1.1158357054997563 2.078256912842705 5.716402193496642 -0.019072700360734895 -1.9118095758150557 1.2889228111080253
P 6.469683518633327 0.5104317541018829 12.986467639910867 -0.35640709154839906 0.41820381314022165 -0.05727749356523039
P 8.512203660790272 5.36675916254262 5.557073375071247 -1.392934475505001 -0.9009911665887838 1.709744007266436
P 7.064094378248639 4.3356034643813555 1.9442647731540816 0.06071145894744383 0.906430078216168 1.4447856558483376
P 4.117549217647388 8.19173474606524 5.793178610518308 0.8896803695616549 0.050391307968358376 -0.20606131997157418
P 5.285380771695872 7.802263891141277 2.3330587044733138 2.027165975800889 1.1986956020896518 -1.122080584538074
P 1.7197825188928944 0.5784542762242141 4.395781419498446 1.3015119606269456 -0.32911508860166544 -0.33264906989685294
P -0.06970560874172514 2.1425369881148995 0.4379206935814201 0.24281369700025923 0.05800383020829365 1.2386119786686154
P 3.8088388532770256 2.3959867770145316 1.6478506246173519 1.1234206435057363 -0.11873380109849874 1.1372477791968154
