# total energy = -381165.8650658177 ev
CRYSTAL
PRIMVEC
9.32149774873243 0.00000000000000 0.00000000000000
0.00000000000000 9.32149774873243 0.00000000000000
0.00000000000000 0.00000000000000 13.64295418670549
PRIMCOORD
 96 1
Ni 0.15590484717056155 8.558868779881331 9.219581204762976 0.7038135222600846 -0.5753727782864672 3.6366822111928148
Ni 4.362153361426473 0.7383250798720812 5.632766726676676 -1.2257945151889726 0.055282317512072535 -0.22537287581599252
Ni 5.230525453569225 3.215870133845604 3.1888219436765297 -0.4624779524672487 -0.26845685148966025 -0.20150635361104005
Ni 0.5927204877715913 7.1428680134294 0.8079436183484048 -1.409438129586979 0.06005505631036755 -2.827841953007678
Ni 3.0449325071714184 4.578719719836406 8.00122415618501 -0.588463035811522 -0.6164996302337641 -0.1504722698523602
Ni 9.044714566765682 4.396764082761473 11.906874873654804 -0.14690794953986958 0.48704921404870966 0.3148909745824835
Ni 7.838848325241015 3.019689891126392 3.241211557767321 0.8689847888855163 0.755186477415422 0.4822965298550726
Ni 7.335347621521627 6.253625087710276 4.416292620654506 -0.6598090916546766 -0.5816904929743788 0.6235940751867002
Ni 4.6616996932606405 3.433797430934479 6.447128196261049 -0.054844458643705546 0.09571342894392548 -0.8012470192189105
Ni 9.194483071933865 6.023775594933961 6.144745332646047 -0.5121483231091825 0.11327946285214684 0.2751723158366228
Ni 7.283119269342793 4.43556015660911 10.332614649687786 -0.0513834966782986 -0.8431475161074381 -1.139110286326851
Ni 3.0934881892166706 1.9572908222564518 8.019028216984863 0.13458490919814242 -0.05949918380689753 -0.385725123786226
Ni 7.9401636848397565 8.702419846016268 7.8333337271419605 -2.442789944029077 -1.0537164941413788 -2.2027772068127227
Ni 1.4008719755209578 6.578199641140047 2.727103921700209 0.5251853587987987 -2.826070462929552 0.5320584317695481
Ni 8.147874620338769 9.311542441318446 3.864981022564163 -0.13280287759705517 -0.19428026817624605 0.42003315303947664
Ni 6.135009028192934 6.674089889018624 8.4684138973705 0.020519460109590465 -0.9657559696699949 -1.0126593190897526
Ni 1.5002204990836947 1.3882227030050416 9.900364678709671 0.5440695972978113 0.07431876531823331 -0.17884182213398878
Ni 2.7431490158650185 7.591157485673643 13.514096845995834 0.40867067683880587 -0.30964438147156353 0.13678243107009347
Ni 6.82233899004525 4.815541692967846 12.945171345660777 -0.008914528880810454 -0.3129634185424675 -0.9855182398985866
Ni 0.2297059417101804 4.4379371385483575 1.7067196398685804 0.19347988376213776 1.2871649478766543 -1.973652834374098
Ni 6.244965416253176 2.0944007334109176 5.025900865992114 0.27589968092095063 -0.1590561548666293 -0.3387814080468359
Ni 9.0371827965425 1.3269524979592666 1.759422456285484 -0.13301525071817738 0.4802694721227148 -0.03786566469752188
Ni 7.355360877300309 2.9928626204552007 7.386486290607528 0.03943738006001595 2.0443512293309243 0.258498968946
Ni 6.686757804530142 5.492366326798469 6.6853614441595575 0.6444752895110837 -1.3169694328325963 -1.1905817147332658
P 9.030023886231355 1.1533675659096054 12.661493931682982 -0.08217554235849074 -1.4611754100602707 0.0378162995168252
Ni 8.812935523944567 2.3494648777388565 10.814442871019919 1.2015541545843693 0.0313826280763395 -0.8894600260207327
P 6.320581406414643 2.288325173662295 9.506329120116414 0.2535454815954666 0.887855143427458 -0.3363136632326337
Ni 4.18912771924487 5.575374264716105 5.662330789102233 0.8125076797343942 1.1210719407679015 -0.8082550751056273
P 2.146330797660121 8.14405280624037 10.30516470296349 -0.44387242155091944 0.6680643896849333 0.5934306642294425
P 9.18318541659909 7.367171215014138 4.212630943800235 0.030559360844095756 0.6954512663383184 0.41965494376445145
P 1.551199770557199 3.768355308509089 10.368153792203765 0.30211310609152486 -0.6506107129848602 0.19239513533839123
Ni 7.9800876599213115 7.134021912016279 2.324855191394516 2.176681795277251 0.46355884423625326 -0.6463478239434481
Ni 6.2743560988196325 6.730596808688104 0.5525205963551286 1.5852481068731796 1.3383355572131983 1.6292808196133617
Ni 0.11927415726209022 5.096939068583525 3.7941739931182155 -0.8879330478532449 -0.22266036198083589 1.0192151179303996
Ni 2.3036963235360943 3.2517579003793387 12.60487515403989 0.6246597974470532 -0.9531431660019907 -1.8348896254285494
Ni 7.365707739859386 3.0532472832098834 0.7909132418660328 0.9451316085514239 -0.5238283305502721 0.4647464367864512
Ni 2.6159385353751827 4.157304125752359 1.1040903999345582 0.02765350005121044 0.47484238756987257 0.2518938049246565
Ni 8.056141760479424 6.746247603495932 10.537230847916877 -0.9345695167648614 0.9965590710937804 0.6783187204230898
Ni 2.9881832285591137 0.6478990940044325 11.961132515904911 0.0587075411435376 0.5172463064573801 -0.9813839060152388
Ni 1.2573022663904196 2.9982411246863605 6.674761036860294 0.9490461131144815 -0.9491695260662235 -0.34117124843525115
Ni 1.4827054047156722 5.3307595194230535 13.116445478405577 -0.4279948310887145 1.2512396947349547 0.1464181543876446
Ni 7.435581687375456 4.997338864580161 1.8624818681227873 -1.7812417581961064 0.658524311404982 0.808730214969833
Ni 0.884630648607204 5.903593523786056 10.498308001699145 0.22489387929704494 0.4886286427206875 -0.28293576183212565
Ni 5.185987337076191 0.5686122980089429 10.58896516071226 1.9754055553991463 1.4396961571405722 1.064735985180334
Ni 7.704385719462024 0.1534225323061633 10.99619343514323 0.03656751471138864 0.12089327064366275 -0.5364758441109535
Ni 7.391649468239485 -0.3759406670620158 0.13040495778622835 1.426631867757446 0.8941587170479827 0.1895080435985833
Ni 4.650588467881883 3.743578767354111 12.49444989464026 0.09391622783418666 -0.7955589676951976 -0.4963882320614483
Ni 0.2977081324678159 2.9339787188464737 13.677607103222206 0.3115611388783021 -0.6693054611808861 -0.37169358539382436
Ni 8.828754105712813 3.5924679665025887 5.364341147400828 -1.2836865024097506 -0.09897924417939083 0.6287067138229172
Ni 1.839662841506013 7.088402501778333 4.9714922154776335 1.2995118994777812 0.034249408101173266 1.027244158882463
Ni 1.2277065108723402 6.226257170166629 8.173139607978516 -0.3088905340246745 0.8778409537245655 -0.4433643715662493
Ni 0.30220668730656397 8.246328280112612 11.909303123831956 0.5495740720558083 -0.17149875150535623 0.409566706290514
Ni 3.170642226515298 4.693597858735559 3.4611905165221892 -0.012404801422256055 -0.001622108984455271 -1.1500960959143933
Ni 3.5825032853533516 6.778844881305924 9.305081711192594 0.4291991358094608 -0.15354576657136138 -0.1650403974745222
Ni 3.0325069506027256 5.831286665343932 11.273609599048115 0.3418811300180821 -1.6427179189548742 0.8221200060131776
Ni 5.062169881785907 8.976285451408764 0.6010604318541191 -0.6525652656080697 0.8251446517721144 -0.5473366980848574
P 3.668736461510124 6.0192080610114855 1.502539687736576 -0.1734767011673335 0.6404864800666646 -0.12433134979093427
Ni 6.667108087165698 1.2314164669971261 2.44378072463885 -0.4103292954881514 -0.2911938880758598 -1.2851895693178383
P 4.29966204016877 8.009347841518556 4.31714917004339 0.6940716123819723 0.35985108423294154 -0.06332781352436836
Ni 0.41959696986307815 8.76961852366346 6.138169948097244 -0.9018820538341693 -0.4976514150445881 -0.9396698141059042
P 8.210720158512908 5.884484453294068 8.539862245865155 0.7529989828458 -0.8584795184788183 -0.9455370715199588
P 6.285588503669802 8.490020197123368 9.196006204674545 -0.3559373510008322 2.6864827012001795 1.9262080106285728
P 6.163812456397931 4.301358552768547 4.765743455265725 0.25976883679735907 0.5215377347438825 0.8465891947991355
Ni 5.047441915260375 4.272051763682298 1.131393999143379 0.6311554324737259 0.6625735417736911 -0.18958029159741543
Ni 4.423898962860097 0.8924709604075997 3.003878766556387 -0.7061632534391838 -0.7430562698107913 0.6494015231681074
Ni 1.6943220477932905 0.5981148385490126 0.14616481411832813 -1.0798371024878306 -0.29940007803573604 0.31399854467520116
Ni 2.423990252657611 -0.042807114351393984 4.525600232467799 0.5103161549964502 -0.037579243805354635 -1.9161987060216867
Ni 1.8860466145636392 8.659242668202175 7.941495726875515 2.0065554986393894 0.01187901082577309 -1.1298625424763382
Ni 1.9915846126662202 4.890672965243663 5.316304672783089 -1.0565074266229546 -1.6778314748285557 1.452594610369795
Ni 5.266832687504002 5.770547785672813 3.243666840288096 0.2452328479647131 0.9308982385608613 -0.5284118361558964
Ni 4.688293926486807 6.086938064033333 12.952047814588552 -1.7946060953181544 -0.5150752669479904 -0.3960172497408535
Ni 4.062159597697859 7.98152317058266 11.53900569153865 -1.5686320955830533 -0.4494193195110776 -0.743401826075668
Ni 3.850123487219197 3.3006398348476242 10.178039980253423 -0.6592565615853163 -0.09849639100570133 0.11041731081300339
Ni 1.4855484615449681 3.0269420164155467 2.7907072976455667 -0.06044020756392817 -1.6788578592105408 1.3820340265424134
Ni 5.576865704364261 1.6132436599204545 7.372420150425865 0.02467667681107363 -1.630396935495676 2.013111554590352
Ni 8.114382478739884 1.2668847661298166 6.0672128425367 0.36600116299473745 -0.5154889574466412 0.5477023089543921
Ni 0.3068562504096877 3.9944855236628176 8.356200774692645 -0.8751112134982284 0.6761944749912354 1.8655644288045872
Ni 6.156746761064796 8.008797873148298 11.9521969281129 1.6737156528879693 -0.8011418610996138 0.4959994812634618
Ni 2.8856187882550426 8.091675310096722 2.3447053209616815 4.515490156816339 0.6908662180707972 -0.6649091318854033
Ni 5.621972432223154 6.049195319437205 10.524366248801757 -1.330107255766135 -0.3877375262305645 2.0706929525492463
Ni 3.7657359676270166 2.0925364338507237 0.8655187816658754 0.987022592358255 -0.016112589291146444 -1.1463898507073997
Ni 0.8417135405817585 8.74878497607829 2.466387221105762 -2.282814105561656 1.8080622208230606 0.9046999828989386
Ni 5.330004478101175 4.429258824095655 8.541635194746899 0.6451193508529858 -0.8218073598687653 0.7106457146905697
Ni 6.156112899214331 8.20651616300467 2.62465879656799 -2.4851372986470364 0.5402803054587082 1.076550461316759
Ni 2.7996093280454932 2.5617247041647415 4.802770308830738 0.8774082370625212 0.21688129340521356 -0.21876771179464902
Ni 8.512764651757735 1.3882320245028426 8.558838951088369 0.5794628891954408 0.937637614167224 0.9818369343922575
Ni 6.331021483951729 8.967010561096798 6.05326974612601 2.863222132279185 0.3369271284469165 -2.06140227127594
Ni 3.865932747489642 9.181237223558687 9.047638720625846 -0.511521488158461 0.014706967192871446 -0.5414085055258805
P 2.0282553850152354 0.9641691250433196 6.317274138994859 0.49265447605062906 0.5549193955281218 1.2819533217687278
Ni 6.728807081110318 2.4283154276372607 11.697578351379848 -1.0964004061631505 0.17118302003715036 0.9923357770410522
P 8.2452469863677 6.4484630347461485 13.037575353361792 0.7395071190069522 0.7488983304138651 -0.1561181552842279
Ni 0.6505109776882643 1.4701307041821638 4.662015692036092 -0.8242365381355482 0.8323846211639793 -0.9702340600460065
P 3.234242806011316 6.647346511827641 7.243808648816542 -1.6713494666486377 -0.3662518455529628 -0.9853601170541677
P 5.9300106485540045 1.8131804662534574 13.730268905048783 -2.0379093303603226 -1.498292369517226 -0.35606359216605127
P 2.3724982988050534 1.1188687025482158 2.140034125895566 -0.6595751212669996 -0.4790165735522202 1.132540089308501
Ni 4.7544206318868865 8.093185392740478 7.071566012450221 -1.694698168676907 -0.5398373043840187 1.0266209234761672
