# total energy = -381172.1449771507 ev
CRYSTAL
PRIMVEC
9.21316475743470 0.00000000000000 0.00000000000000
0.00000000000000 9.21316475743470 0.00000000000000
0.00000000000000 0.00000000000000 13.48439790346735
PRIMCOORD
 96 1
Ni 0.5811231237987805 8.240014914307352 4.105378794333717 1.1032279706079453 -0.31724147709253103 0.20662773399800544
Ni 8.984125369853853 4.963168645775735 12.323337392486025 -1.29491425280477 1.2947252767224153 -0.28515668074284434
Ni 2.526876240272245 9.296728046186626 13.536852137371795 -0.09558744488902247 -3.2058434828974014 -1.325738180164162
Ni 6.160087717190295 7.006418234449503 7.836727058394752 0.817499733632347 0.9362229932078844 -0.13954739540974032
Ni 4.483125915223337 8.398287869707312 11.796690789904105 -1.2794356975531966 -0.3185735656403933 -1.8324475916459602
Ni 7.250106439253567 5.196832927448349 6.656303236956797 2.0608168310861155 -1.7772920295197394 2.252917575112539
Ni 2.097551981078878 6.8406365498655965 0.43607750887659474 -0.4760767741976058 0.512109499451447 -0.781339481661706
Ni 5.611093662450615 5.185694211395114 1.943048131334316 0.19057762251367824 0.45118361050035205 0.9657459423676658
Ni 5.077328968865609 1.2236833147021136 10.748993660944345 -0.39065984208368204 0.9924021115026135 0.6804239396915508
Ni 8.90745341369584 3.533267066872134 2.8559419205053733 1.9216178201547296 -0.2614508524854723 0.21240963078710515
Ni 1.3303901875959003 8.454709289980284 10.067356753524718 1.266743961018141 -0.4167974197109983 -0.9903485714076943
Ni 0.676372505142687 6.312261557596674 10.58591327623373 -0.2749959381597586 -0.8580079781590383 0.0696090185473898
Ni 3.0844846039530136 7.536027790780572 3.3139799286247267 -2.946930309232118 0.7969453065197629 1.1000873680964345
Ni 7.928388833426722 0.4234416535688907 0.5325596116497181 0.2872765552993246 2.5367336826670894 0.007387550713322761
Ni 3.4806598967613134 3.0122626063175106 5.11708653824901 -0.4694075897075464 0.45793378473999197 -0.7273853960427538
Ni 4.730398041073479 7.159743720436241 0.24488223094178013 -0.5359536530588964 -0.7658760959187842 0.5196243197712535
Ni 1.5337800102520254 5.665165725739652 8.474215402162182 -0.6176041761518525 0.07306560963742255 -0.14714166281723048
Ni 6.216241955688623 3.405885852519734 10.436114589672284 -1.111817254938853 0.016797016952680748 1.9667661345565937
Ni 5.172906338870801 8.488097798646066 5.439390676950732 0.26820462626953806 0.2617380447085879 0.32294469812489546
Ni 1.0722004616439504 4.5424586955234565 0.959708642670902 1.10999974211414 1.953376857733881 -0.34603500428545564
Ni 2.1928713824740704 3.2314898589947387 7.243548508660767 0.3031963118533746 0.4017659792991726 0.74022651367148
Ni 2.3829205427273115 5.443128457846346 5.957298592868885 0.2761732462973115 -0.09301865572058174 0.4742777733156541
Ni 5.73794972641837 4.977126590209692 13.05602536650829 -0.011857413559218289 -0.9844715438016272 0.3248262314183244
Ni 7.741647199280273 1.247222950364661 11.708044483659746 -0.7605325722186838 1.0138677375755571 0.025714888267600874
P 0.9211450994252169 1.8526844912005263 1.5457976622121925 0.13990220764599778 0.18120595149079113 0.02163300488874339
Ni 6.674477125531333 6.581396523144359 5.16728907238804 -1.0807045926944485 1.2412339896724944 -1.0428934353839456
P 4.555808571090984 3.244701537092623 12.09032632418659 0.13654640379988742 -0.5937325117405775 -0.6504680167594088
Ni 4.569287430963511 3.321769659330278 0.8301291672347118 -0.308123831061979 -0.468379148443032 1.7649736171637023
P 5.605740813793104 7.70950246784128 9.892221864195365 -0.09514830046907484 0.8347014422226141 -0.25006755034919514
P 7.223452753941727 6.37856870353145 3.024482947899821 1.286920435966016 -0.4712916941041367 -0.30444638221039183
P 1.2397971396625032 0.9179564231423176 8.306375496597056 1.5065309553769344 -0.3878447412323901 0.11611616096999357
Ni 6.808583950073033 3.003694363199636 2.035267302827181 -0.5897933245871714 -0.8146949171937001 -0.07842353151522623
Ni 2.743136853934467 2.111989010074264 9.507457997113733 0.0356876832095966 0.05284825414928318 -1.813128065381742
Ni 7.33533742536481 3.4818023291770297 8.43697210540982 -0.4447291131242599 0.30833543285215287 -1.583455276638815
Ni 5.525724478869727 5.0781397273541815 8.905163942282087 -0.5533685061012341 -1.8646216052753435 -1.7502273120924634
Ni 7.774989642122841 5.211813533157666 0.9674688912495962 0.39989627308028547 -0.04395223721123398 -0.061865884266861196
Ni 8.942067273259125 3.0493271676758 0.16688450039165836 -1.4407806484540027 -1.7579413929072691 -0.014757875035464907
Ni 8.477981743868188 8.211610727713365 6.215821835380908 -0.686760680542856 -0.09799759699241185 -0.351868066027465
Ni 1.4630966111118826 7.647857183215798 6.910066037297844 0.26143491164587235 0.7548038972650226 -0.2917014238398976
Ni 0.4186830540308453 1.2645989788811247 10.291764568680637 -0.8564835710947121 1.6184248507354644 -0.3363278043000208
Ni 3.755092431978653 8.964224934225241 9.341545485591896 -1.5431946293465553 0.5614397131451427 0.8993790849066576
Ni 3.924918695840782 0.8404866069262327 4.068418341735893 -0.16837691804692292 -0.8190629643544087 -0.03612168542322167
Ni 3.195033366502879 1.2004016476495665 1.7457574236717746 -0.06323036871455562 1.8824838302677454 2.8496315380789436
Ni 3.2776846665141175 1.222900195707469 6.933313615641213 1.1782383626765645 -1.5334882006920687 0.41029201449231273
Ni 0.2658753478970368 3.681893838891005 8.994686420483982 1.5858098929139206 -0.45691305678496147 1.4391832220598957
Ni 8.043912704883741 2.482376655047155 5.424679095648988 0.3272168431376881 -0.4355932122612627 -0.3688468599736487
Ni 5.617220416938127 3.0566700598961716 6.242008413245353 0.36557076032553815 1.13955200184996 1.3542108336825582
Ni 8.847853451621079 7.488801108821192 0.31201856169441566 -0.7286984584272225 -0.9440358043840837 -3.1957742715868576
Ni 3.0838488955926553 4.2749820996114885 10.343571114783991 0.715111206661091 0.8031722612660813 -0.22786787432370434
Ni 3.7650887156161734 6.636095081629113 9.170738941011766 -1.0659863126476674 -0.09542340850733243 0.13715626946974444
Ni 1.7181630742498974 5.453548547057439 3.7354075844026844 -0.44102672457200814 0.13023897352462085 0.0012636972037720173
Ni 4.629182214306847 0.9354770983436745 -0.018861190656895222 1.7871357550830385 0.3165601347547903 -0.8657652535069541
Ni 9.265495418047278 3.8854955643339166 6.711144599493514 -0.005764670397919104 1.0718345438983283 -0.5720007764904407
Ni 5.549614214788705 0.081227866073914 8.091879203963945 1.2994273101837748 -0.35352462779428145 -0.8378492438229764
Ni 1.013660013503118 1.3001894338965536 6.063043611373956 0.8483480864717712 -1.376702587027171 -0.7413174327428136
Ni 6.073631380181548 1.8368747006733515 4.502292061629912 0.14720362640341747 -1.732108233894249 -1.791992054734075
P 5.00172573980617 3.385460266506478 3.3474476705064373 -0.47026376706025463 -0.10004805176353737 -0.38859421780390496
Ni 5.261048685009194 2.2581742934627735 8.371747506320581 -1.7657539469731525 1.3341955669028958 0.2769522905551811
P 8.378525631548346 3.219107365714714 10.852809442773196 -0.08155667782756922 0.4534256124569933 0.13641296354581667
Ni 1.242846697159295 3.3952077946986408 11.565702932560246 0.3611469202262297 -0.5253316545686758 -0.4722293754270577
P 8.933581948623038 6.684832722589926 7.689652704618204 -1.2763475455461761 -0.9518612139657736 0.741790001503858
P 2.536734326440122 8.753132905927673 5.2594271680320475 0.0038921359655545874 0.37741840369274354 -0.10543862665148938
P 3.440490498918375 4.898400098336318 7.8830867815612375 0.6150431002928957 -0.6830582919906043 0.07472911338277452
Ni 4.088415515593255 5.284376417884955 4.013145803093888 0.5492082040759573 -0.3954186969249061 1.5295222740657852
Ni 5.991228835615669 0.6310815090747741 2.2389224646250203 -1.5760659261532792 1.0326257349093506 0.1945569188764004
Ni 8.214420742929443 0.9412353262454718 2.7224864667039252 1.3978074873265862 1.7335159128750532 0.9468619609789695
Ni 7.056464144789604 4.216367946153513 4.033250770977572 -1.816101289077453 0.5691792478812455 0.729103664285441
Ni 1.6150124829082608 1.455882703196511 3.657157413141348 -0.4837314625293863 -1.4421312489446259 -0.43473163559191574
Ni 7.4214713016110565 8.511158349747184 3.988954796691089 -0.8506497380217543 -0.11676819273169567 0.26780096307321616
Ni 0.24904658136035998 6.524247262864601 2.1436684766987923 -0.0956856610297836 -0.9411371426800501 2.5994112642019687
Ni 3.127445590682743 4.775911074409286 12.969941241351115 0.03790423124494117 0.7868089894167094 -0.5947023318530145
Ni 0.7624271481730036 8.812742081167078 1.7264475518967715 0.9801693168818474 0.9757367350317905 0.5758494608125695
Ni 2.8864660562836852 6.6334324770473225 11.411414670868327 -0.7563666137664522 0.47688127237677225 0.4762130426651541
Ni 6.5895778133472325 2.418815032175955 13.312606473913593 -0.908995524950499 0.38949873189604534 -0.7559233555814466
Ni 2.626885142470661 1.1708181759812926 11.463247935149145 0.6835092634850938 -1.142847127661464 -0.21963957287664113
Ni 5.262209543754196 7.32460408855586 3.3029222884203473 1.3409899641169098 0.20677660087104388 -0.3364221637860399
Ni 8.77086824786521 5.589304528070214 4.7908990506503155 1.0648069476275854 0.5386597391361497 -0.3183514223272582
Ni 7.0630239180153325 1.394117647430672 9.473005367931698 0.8850963497353982 -0.5868098164788152 0.3512641138948789
Ni 8.54897839060619 1.44120613192041 7.535876694880429 -1.6607860893104944 0.6071585553384963 0.6302187795920694
Ni 3.7326675892378933 7.822630916491152 7.13628055404023 0.34142887297201197 -0.18917739973204195 -0.4958166758286945
Ni 3.3452079501817544 5.695753432354 1.9121683674007892 -0.2518830062913791 -0.7268323517527612 -1.0585478540917512
Ni 2.302157941467862 3.5619660747346917 2.5630876625846035 1.3270394154740885 -1.3557031019573684 0.4074339762182273
Ni 0.5553161283176212 0.8911562485126564 12.805944146758534 0.702482719263803 0.0725462467988428 -0.5666814211600564
Ni 5.032488496548733 5.342999784507573 6.494531121625469 -1.863786253858242 0.339639385171757 -0.9396538732663042
Ni 8.250508708835588 8.665036625612494 8.77974513199862 0.2936983996652684 -1.4579458473793794 -0.24042539927374074
Ni 5.124528011331061 5.838732534446788 10.973589424658977 0.38844226560707296 0.48294059119697463 1.181564341726004
Ni 8.321919947982517 8.25791609320846 11.152149768602554 0.4322839453823716 -0.9892347695182253 0.22285062361477104
Ni 6.822468189189846 7.969396629252162 1.3634746618284672 -0.7262273711789106 -2.732169918824649 1.4831367448227102
P 6.9955190606769815 6.497575151223476 12.322271429336842 1.414488804637009 -0.01319335876182244 -0.29320166253450797
Ni 6.5139285184645805 8.618040272769186 12.624376625875524 -0.363568899404161 -0.12718013209363904 -0.3601241353886701
P 6.833689823724869 0.35193367619321053 6.357151781002622 0.1357874141466758 1.1660014542907404 -0.7047524891345862
Ni 2.5776960564423472 2.496887389359684 13.317420352439497 -0.9404522007978836 0.2748419290803977 0.7849068872979901
P 4.2120838245945755 8.546629033622256 1.8099565975362615 0.42847048517355235 0.3329709720126459 -0.7678447896093809
P 1.1085556093247382 7.950417510087838 12.233409535039842 0.6706905144538707 -0.15488813953186872 -0.546458152134646
P 1.0371812228363797 3.064040591610472 4.825553448138028 -0.24494796973444263 2.5993572710355815 0.16328690511852526
Ni 7.583466375526739 5.418068650017725 10.02724079203671 0.7904121333869355 0.5317349869918584 0.7045491148745285
