# total energy = -340870.2222175019 ev
CRYSTAL
PRIMVEC
9.23186795423473 0.00000000000000 0.00000000000000
0.00000000000000 9.23186795423473 0.00000000000000
0.00000000000000 0.00000000000000 13.51177192253417
PRIMCOORD
 96 1
Ni 1.1079441601378026 2.106047556214049 11.867700024559568 1.4058043894891337 -0.9170083679526465 1.3442894608037879
Ni 6.327863825522027 -0.16026614962052668 0.31056003555477896 -0.24856602610300416 1.6402913117912523 -0.3939971339870312
Ni 5.692102011951415 3.2605572579493045 1.878730350165628 1.570187098774999 -0.9142678290930318 0.57705016598889
Ni 4.483179680918899 7.24937041378026 0.438994704717729 -0.39366237635543166 -0.18112573307215904 0.46395530834372356
Ni 3.745978103059466 1.5108782657211524 11.406111246387118 -0.2103234376820378 -1.3872315115829528 -0.9514372390544776
Ni 8.504701344656233 5.395795980406641 10.055258178534771 -0.8153857726131376 0.3234488914548236 0.16021263706857566
Ni 5.308831784956998 8.149449836684072 11.72669155134116 0.20755975889397157 0.7337439912709298 1.1415808593545307
Ni 9.29021328714284 2.1158979592442795 4.010090764925684 -1.5229587619156546 1.2724911479145633 -3.2050857787957705
Ni 3.3193734882263404 8.159438717732534 10.395483898341977 -0.7195522731515801 0.2675523373975199 -0.9557546354829088
Ni 0.8971483048512379 0.5433738957402187 1.9356697417022277 -1.2892889361981925 0.7724231530086826 -0.19197630263341775
Ni 4.886021467823427 7.283066731550026 7.928896820232887 -1.5508917408804967 -1.898651698276859 1.0792334074655607
Ni 6.152873769816296 1.0734077423907626 9.54614743725228 -1.109721805862405 -1.9235559177177066 -1.6826219542386636
Ni 7.707704958524259 3.183794276509412 12.814456694662208 -1.0196555479019278 -0.6478789158759938 0.09578130606738343
Ni 3.668033442530661 4.843665657980225 7.081952336111449 0.3914648544834807 -0.02054799935468074 0.012209397581998328
Ni 2.2921250852462167 6.488479862935287 8.155867831235728 0.19251109209096523 0.8763332588307876 -0.9902274724487978
Ni 5.832989547700567 4.962627507509323 0.2367401735957087 -0.18986285583484075 -0.6353615001352735 -0.23107583973804074
Ni 2.180308701457885 0.3827329322836776 4.121293229499853 -0.06991729381642799 0.4795292515225806 2.5604955609733775
Ni 7.775753056683422 1.8454688533731098 1.243855719098488 1.1834839273462199 -0.5001713532529644 -1.2138746238229352
Ni 8.958983099399976 6.843195922570283 7.666376655576337 -0.360771796274998 -0.403536440936034 -0.22934523020017922
Ni 6.021670463475496 5.2484922964794105 9.533689954732136 -0.7948562852012182 1.7658339082814685 -0.059480928974452396
Ni 8.061654773125037 7.815246987483166 9.943704902981079 -0.6231477316779009 -0.145033358224976 1.086829988865896
Ni 7.622245557539401 1.606077287321654 5.635814390287294 -0.6506744763432601 -0.4821283797083245 1.1048585642328328
Ni 8.634944536737292 3.862696608693207 5.9586371159499025 0.17276090604723152 0.046605358563364896 0.09777391101737999
Ni 0.861506832518707 3.7758616593939136 0.43423013770376284 0.43249554717254546 -0.9055551318103824 2.499733965514288
P 1.526018529047842 7.734163491874436 3.101060122923359 2.2493650818745907 0.3423968933122361 -0.21223145333802804
P 4.953986479171652 5.683876417668439 2.1036204981478375 -0.5858952750843458 1.6140778866206782 -1.3419528422508116
P 8.11411947829917 8.344297640204262 6.09834943491766 0.04227536372944332 -0.31149891818179903 0.8549437374114179
P 9.106674521778258 5.822612928201056 0.2417041489559288 0.760978915727483 -0.6246878224715112 0.9865775344010363
P 1.550224486634781 3.1650720484444563 2.6508071553233754 -2.1196120468474526 1.3889652064446079 -0.5118917270136861
P 5.8158736646471025 8.18813136311019 9.733961480633077 -0.4038172054012465 -1.2822381999989982 -0.46539178367993395
P 6.258523265859366 1.6418969347043102 11.60409880817402 0.20835011600575085 -0.10225765782034649 0.9141235902056838
P 1.122475120184272 5.558636897979494 6.355720986856348 -0.13528502058896055 -0.7706431782901243 -0.730858956413651
Ni 5.901157660142199 3.793993047914413 6.356085645637693 0.5562435136561839 -1.6546182699368859 0.6902126436471985
Ni 9.111013499682858 9.207911184973671 8.295336428891398 -0.2854035066463278 -0.44311060368423044 -1.3969387115683878
Ni 3.6271824271522455 7.493673333545008 6.047153188390532 0.0523358332892389 0.29759722049904236 -0.2829370473837063
Ni 3.447991871560145 4.113101793128042 0.8549051237961974 0.5781593398926688 -0.7555014375526795 1.5332750562399982
Ni 4.091499222283863 5.988444970967717 11.805018411200285 2.617801079563066 1.016638615452475 -2.2435631304808332
Ni 5.3072531355491535 5.514213149730694 5.146687873409246 0.2241865688173752 1.9404784045046581 0.5254211289586886
Ni 8.471955909278325 7.905977785028717 13.366979371473615 0.3071552965011226 3.131634760794471 1.479278804529201
Ni 1.6624378407420444 7.82889168821295 0.5139002343397374 0.2825714365141714 0.05215174230289084 0.00896826493688133
Ni 2.4491776216569745 8.796585311485467 7.67946929060677 0.4727402536252052 0.9599956701474499 0.96159952429946
Ni 7.6959897181818375 4.1912587866181354 8.12407420143647 -1.1082292804772784 0.9384703944811644 -1.4008766131702133
Ni 3.1288369670071052 9.16551844765894 2.255749679417057 1.6256136551744196 -1.998288887755223 -1.984437326584111
Ni 1.5404387066797256 2.4826708383333345 5.418437136387561 0.06011573434497389 2.051439246525957 -0.01934395174425056
Ni 8.549540526959728 1.5464117251994622 10.724374730763511 -1.9056718383484341 -1.2064744747041223 -0.5094291244058066
Ni 2.5509035738501407 3.362514006839524 9.77582061598422 -2.607122773913613 0.2502745241536786 1.304455873746618
Ni 1.2051649608044905 7.503440649764299 5.439285463625769 0.390973773779675 -0.18770390051030897 0.05002492576787514
Ni 4.414217627839404 4.189172384476775 3.40683066542089 -1.0643282082189542 0.4049886000015283 1.7883331178252493
Ni 4.460764705701092 3.7400420120112576 11.14510418487645 1.1125178805503033 0.6947020468771197 1.7276342572832954
Ni 1.9162495844253837 5.884401819936137 10.308143965869531 -0.7168364168823138 -0.1007774737303942 1.6301259412224764
Ni 0.2815359661201574 4.2359779546391625 11.888670212453823 0.5812737171519345 2.1560101258605124 -1.6609884351292876
Ni 2.472515783662994 5.670674846596996 13.024078256354166 -3.1573709892183106 0.43431100311472937 0.5807592394093611
Ni 8.882534001468077 7.011880612512522 2.865563481931373 -1.2812107871757483 -0.16222401107164963 -0.2340179530855002
Ni 6.81493717498309 8.353391030068158 7.816789632606269 1.2210726842332713 1.1725636808892903 -0.43822010836114855
Ni 6.842900502798056 3.0899523394875827 9.922855652556082 0.747406576359687 1.252307730988153 1.7580833178017723
Ni 7.947576581705585 6.231584675379318 5.242121384453954 0.5594365666721849 0.26042318255190633 1.341757952631186
P 4.820179786088092 1.232075855680893 1.5900655356668916 1.1134038826996826 -0.6553495132214262 -0.7585343108417324
P 7.774220566614989 8.95661050935427 2.556886747424548 -0.16470152607786476 -1.0639392003106516 -1.1168928696895475
P 1.3245145487846386 0.7022728057274022 6.299295810360783 -0.6947557829331905 -1.4634714051832989 0.8003982980653699
P 3.798313562083248 5.349673568467531 9.420866374157866 0.020873243904583408 0.3968567149230133 -0.24847320927888172
P 3.7105184985242126 1.3421104889679742 8.976613197494476 -0.7884100153552421 -0.5146358654177265 0.4597626104186146
P -0.02157672161410908 0.7784283302606508 13.397300518345675 0.5278860455594134 0.3734974713717826 -0.39653661257943323
P 6.630992207431694 4.650867329129868 11.563671535531395 -0.19525754448785082 0.3031137794418973 -0.04299707238681627
P 6.495966907787692 6.032721009330403 6.95187439446548 0.1112637179736987 -0.6681554067368428 0.5944436788749892
Ni 3.987132955876408 6.937748713419036 3.807887932263803 0.11739605612368169 1.3130148190602227 -2.8169258203158067
Ni 6.979615234264486 1.5109428887963274 3.280968917836689 -0.9281726120995821 0.45601599889198885 1.2439030518642253
Ni 4.573448885070344 3.370499572557564 8.904257509781512 2.223959497317292 -0.8005818748310858 -2.6993580145009513
Ni 4.707135563871437 1.5998088490296893 6.979708476130095 0.916233180349519 -0.37365996509157584 0.591088389249511
Ni 5.167464192077975 2.479402757103061 13.2872732705529 0.5816017899153144 -0.4040694306213686 -0.7015134133719982
Ni 9.055945407765966 9.120411541186863 4.427024074965492 -0.38567318750236806 0.006010467860138036 -0.844714603484242
Ni 2.600598718659635 2.6789772769789 7.444526561687711 0.26183523240808454 -0.32409860922368056 0.78970122336284
Ni 1.1735365814403207 8.797923932328375 11.724448207445803 0.06873998567887517 1.214141761441393 -0.2622314394052387
Ni 2.9717659668605827 1.4840135301841606 0.2649527618434912 -0.9720716274753773 -0.25399465331774324 -0.07418043996815611
Ni 0.00969900039696346 4.834129138457986 3.8961196631736628 1.968349162772997 -0.6755141610947591 -1.0226328853626967
Ni 0.15632783478201098 6.769544080606668 11.805559398658177 0.8172135698504959 -2.0481680319738533 -1.5539976334993302
Ni 1.5015540791602031 1.0953795879502268 9.626651171558011 1.0723431081036308 -0.6415450032381661 0.35194082824692935
Ni 8.00830380863422 4.492485403744084 1.7816757231208187 0.3968199481478069 -0.12686362929448472 -1.2702123791827156
Ni 1.718336800768328 5.775004185532922 1.88166331459178 -0.4156900455794325 -0.2682434499272735 0.6547663870244466
Ni 6.296475474722794 7.921616569221041 4.837079643433115 1.2894995095471016 -0.4317090467155081 0.6614893075705769
Ni 0.646237214056463 4.611410325801653 8.24241013032316 2.4235161834011296 0.18516750724170045 -0.47014755319736445
Ni 5.495980210663493 8.564246892495957 2.6317285771581695 0.4374752597753239 0.6127473622801833 -0.3826102323063282
Ni 6.918841847996438 7.093425701515357 1.3186883169642276 -0.1742176930984161 -1.0706688057250013 0.7948503716639472
Ni 5.09290762706191 1.917726683286524 4.604527968295527 -0.2183301100365982 -0.1039594710028016 -0.021446599909550165
Ni 0.2301301561921052 2.1763297664006878 7.9162094642024785 -1.061294563598953 0.9916809170658728 -1.0697177546656416
Ni 6.897654711206955 6.542310884555974 12.526318096632753 -0.01757220455580845 0.5052837347788652 -1.7868701601264776
Ni 2.934792335992661 5.3864164026384 4.907151367032041 -2.665989723453151 -1.4515677117671775 0.7225170122068588
Ni 3.385215169961676 2.2707348473633266 2.7736150010121685 0.025555479871601148 -0.6403409556277359 0.4401659192336097
Ni 6.734047548599886 5.7566327684474885 3.261053009254575 -0.2714658135193131 -0.4440238595271191 0.8847230255563796
P 3.221524920543668 8.585369406210265 12.59972714047107 0.4165032855093472 0.42945264658116367 0.16039312851049795
P 2.6397972296871495 3.520203542134148 12.43030297791147 0.6343824240514558 -0.33201940673265395 -0.26948375009227776
P 6.958298851324653 2.1832352035765195 7.652824273525373 -0.3627086082863947 -0.0378972892664057 0.16842654033793572
P 3.480072612450539 3.1465621533407906 5.337379490008901 2.0096428793154613 1.1628662510958683 0.6155714619925399
P 4.572507234546367 -0.2461705266373022 4.6219180378250915 -2.1835150161490007 1.134786976361149 0.1338511163559114
P 0.15740888651100812 3.348970856656442 9.888658044360316 0.400227174057143 -1.038364951385973 0.12500575015013957
P 7.4332876857280095 3.6697413380888544 3.9609892292210103 -0.39195490674602174 -0.7000723100500975 0.3844827667386927
P 1.0229832800185807 7.934116518333442 9.590304384519285 0.7902388410338648 -0.5273234881877241 0.41037197580062873
