# total energy = -340872.3799678594 ev
CRYSTAL
PRIMVEC
9.19078704017593 0.00000000000000 0.00000000000000

0.00000000000000 9.19078704017593 0.00000000000000

0.00000000000000 0.00000000000000 13.45164585228815

PRIMCOORD
 96 1
Ni 7.188031636922047 4.382507203963475 12.279617233067727 0.2638648612436036 -0.43026537229044604 0.6628442789365746
Ni 0.07860788039682157 4.136065446786334 4.969065055511047 0.4989032851738182 1.148439534147577 0.36326550923112927
Ni 2.9193247550801265 8.775574621956805 7.837009636080729 -0.1667823198662934 1.10576924897256 1.011712124685135
Ni 2.1422345405994636 6.100890229841591 10.566146682732656 0.3304350929646696 -2.6517059598406267 -0.3805386944892801
Ni 7.149467095521462 3.0515342231562506 0.9153803071017403 -0.9444991171737476 -0.3562623384404187 -0.3352001184534808
Ni 7.003085434204227 5.725115720855815 5.593852903819791 1.0868911811211346 1.2488663094067718 -0.7283824698487004
Ni 8.000690196307444 7.390081893869249 8.571428865619866 0.0855370026315559 -0.13636179859290712 0.836426909554153
Ni 5.674217143573536 4.40307618481536 6.7907938835290285 0.029836109524826036 -3.1519601026153845 1.5627728085887989
Ni 7.532456372142954 8.849955659505646 4.038412417988584 1.1736368593488111 -0.3722905955478749 0.44694437560802375
Ni 1.606016466496907 7.024647020030199 3.152891139033226 0.19649064556400353 0.24222954236201505 -0.9115152060485592
Ni 8.572954536228183 0.47156272714239617 9.012750227885121 -1.9481179233277868 -0.28124243329010273 -0.4110160371425308
Ni 2.789486509997652 2.974873870481732 6.906948885227998 -0.33554541760804146 -0.022865848854579974 0.5486181359004422
Ni 7.388482696966555 0.4147866417033796 6.610394363039729 0.7802282508753982 -1.4511637914605393 -0.6384594223343069
Ni 2.477836120495165 9.04502091848706 2.4210407344038742 2.772104293125742 1.1300018962676797 -0.0814450919503694
Ni 4.851375192416965 1.212834607317444 9.467779648658235 1.1887546888268559 0.6322358100220983 -0.6089007348405836
Ni 0.7375496115222269 3.5652624419663312 10.870570356576591 -0.8388625155788392 1.7828664382837232 0.751505429019409
Ni 8.637657675279689 7.964083292494639 0.2375423183215203 0.8216690345186881 0.12663865776787225 -0.33784166984138586
Ni 3.31462049522292 7.741022896929291 11.39128357335246 -0.49518984087797296 2.7187078797824724 1.573216372519626
Ni 6.146099710096471 1.698053005482955 4.774351803663961 -0.31548541363337285 -1.012923885605049 -0.6509634683385885
Ni 8.834772479716856 5.5075881789423144 7.246603602101215 0.20003773948531356 -0.1526602786426145 0.32148971084592376
Ni 0.8232371549888461 7.900262468975654 7.504888607145085 -0.3238983202874164 0.20059618309194485 -1.8432896765667868
Ni 2.914729361681582 2.859639785619831 10.358708786565 -0.4112944876148981 -2.2299236853205273 -0.3294156505612198
Ni 8.001498985545588 5.1850926610192625 10.206557149296554 -0.9334366887119989 -1.4492020397484782 -1.4585914513831784
Ni 6.168516039094571 4.201494657994809 4.02469241145789 -0.6210877638250787 0.8139022460890757 0.16537618354738615
P 3.108011608024362 0.5874760111486015 10.327191740480423 -2.6832410543344305 -1.338754647028488 -1.9339056363831468
P 3.9272323891828798 1.3934519494538349 3.4036700284999144 0.514240686861837 -0.0058047796072351636 -0.14463766544845413
P 0.43335662642689765 6.0677942065852735 9.2951950541825 1.3724931769315136 0.6271601952714037 -1.2801298954067437
P 0.025790266831311137 4.012486127512676 12.893429443783386 0.24495851125740398 -0.929957986134779 0.5683901763210468
P 1.257887844196774 0.8821795088759365 6.581176851811784 1.225560801911612 -0.4918692611451722 -0.13881154568498028
P 6.146568440223122 4.478799077236576 8.947671185653615 -0.10423509326169143 0.11757834733781687 0.3819911106650905
P 7.406073862896183 6.511075044595668 11.635309991759327 -0.15395534330495422 1.926040117592141 1.7611627280580442
P 5.8703393430366155 2.075334803503454 12.630314680277648 1.85731247320844 -0.2662217915115544 0.3878730233671643
Ni 3.5912815593888894 5.461615863383276 3.565600662920464 -0.10685221916956436 -1.0321583083546289 1.0958787293317254
Ni 3.5637827252919996 0.9111157820278912 5.833360212358529 -0.6494370043917331 -1.0060662392532673 -0.9994281651114595
Ni 3.849947063006159 4.32341963564499 8.96015411228142 0.7589549433189188 1.6288367900974077 -0.9641935102788813
Ni 4.61807626035966 3.3867497900064736 2.4811824859679845 0.6722493743005584 -0.45891260371349357 -0.8143938410135135
Ni 8.894530975471527 1.5840045321178788 5.242819073813098 -0.12411614845633465 -0.6185462283501476 -2.022701769381949
Ni 2.197756083640678 5.402509913491197 6.916674575816677 -0.26915233489478807 -0.5635261633605262 1.1145732204174352
Ni 1.0046265232161924 6.5154590498978795 5.3590816077175925 -2.4529334602209816 -0.2931895783496499 -1.1351726418353418
Ni 3.8600017837621747 6.879781838534483 1.6980952831022216 0.9147342272064891 0.7596524836065756 0.5411125715520165
Ni 5.83894361533776 8.410884201848319 11.588821153982291 -0.02214131198372961 -0.4204926091743984 0.5587066304846959
Ni 5.518561978378039 8.292883690160494 5.249074323307196 -0.4241931979544372 0.059258271440685045 0.1761899863334385
Ni 7.077227511296344 1.7182911180101448 10.618244657691953 0.6808965084525951 -0.8486730739113576 0.17979210186240005
Ni 4.158812644109129 3.0826817996115845 4.790036800411873 -0.8166453560518515 1.0006399260313736 0.78137573421628
Ni 1.2293136880446247 4.0472916371132515 8.646422009569394 1.1707217425845449 1.716544575128037 0.9582064394575109
Ni 2.1658824350283736 7.759505569178237 0.16567404188300405 -1.0238369329731272 0.49150802115101166 0.718532059417182
Ni 0.3568901993537978 1.4293143995360758 11.213910578955442 1.5056197564165745 -0.9557026991990509 -0.7475307606423771
Ni 8.41311756304001 6.150548050906262 3.5785817301926723 -0.26508562102458216 0.8427675070602001 0.08095375413624768
Ni 2.958008776709074 4.546222689180019 1.4651805259330355 -0.1600426871496147 -0.05059313956651931 -1.9386223251325256
Ni 0.2765912141863119 8.986962718289849 2.4027869127461763 -1.8097779179625866 0.1616570828245861 0.23440541833190598
Ni 8.137118235523431 3.61988328790143 2.995278336249949 -0.1360175278796109 -0.7373967575321688 1.6598193545218511
Ni 2.905272042067378 7.535305516050052 5.889493861800429 0.44930979051640685 1.3959074420903959 -0.03906328455004885
Ni 3.524933269500705 6.020149167829166 12.945661604229922 0.2544859911318649 -1.2126821461767308 0.24894834914308742
Ni 5.572199410125849 0.0003023768856242245 2.7014406106388997 -1.4900915788739886 -0.04405251023452413 1.8117309279238993
Ni 5.014189980527394 3.999582262849563 13.33664778444356 -0.6627128955650329 -0.05794083818084215 0.37655245614802246
Ni 1.9075753720961903 2.2930277795793015 3.649417881273876 -0.2940200446707453 -0.008211846386831019 -0.16059213189518148
P 8.744298374486313 2.6683703215856145 9.137810182911789 -1.2451873178932877 0.3667035883784007 1.3168118242088094
P 5.909832153903706 5.059169691112348 1.5992796197746406 0.00823704319781162 -0.6681533498543137 1.2989136037721503
P 0.9225160339710003 8.591758886015027 12.022448908619703 2.5776070238426834 0.0601329607361545 1.077522852532357
P 4.406669782453021 8.042131453975518 13.337387642780728 0.5339631049914287 0.9591901435270191 0.16021340839952408
P 4.8111930725400915 2.1157099299030655 7.128269464852656 0.07283549590448746 0.610613089546 -0.0011677950558560532
P 7.608657185477617 7.7105830110573335 2.07553516265563 -0.0677709368973865 -0.5251830448059536 1.56171479963793
P 3.5945810518490444 4.411926912500957 11.616423843969988 -0.13072465491178778 0.5376133001495064 -1.062142513421545
P 1.1524603288473672 5.944729571372253 1.128766480484472 2.9063994389976076 1.2680873624199127 0.2661546857190448
Ni 0.10285593320358119 2.158355180641558 1.6891370232110992 -0.35616823606471565 0.39168031292839645 0.3471061258624474
Ni 4.5653487165047615 6.006831717760183 5.726702050656992 0.14343258939675943 0.08460549195622204 -0.1766162752375797
Ni 8.15811918335478 1.0947238061880546 12.923977780939552 -1.8095292922868902 0.8008708668264143 0.924457368031524
Ni 1.061554256637361 8.177879374968521 9.816728089140668 1.178645368306996 0.6165898759547253 0.6124863953093129
Ni 4.5235582089383986 1.410427332668058 0.9880491010702831 -0.6579548120547573 -0.05389983534224911 0.057461327441262325
Ni 1.2412249477336517 0.8389938398737753 0.294299103108263 0.5258209355002686 -1.650067931562042 -1.4197860484802065
Ni 2.3974718807414193 2.962025150539402 12.75372029368084 -0.5849036005950379 0.38348440738116535 -0.8506402249400575
Ni 5.9174237437981025 6.718722490702297 7.911760143258812 -0.6963277554060008 -0.8678833282912215 -0.7686572582083472
Ni 1.2695509526422797 1.5808520922464773 8.65710262290629 3.7160987027489294 -0.8791807555819117 0.6708625212553608
Ni 5.279702620308496 0.01963795414933983 7.463214822571045 0.2053861482814205 -0.6066258227634779 0.39064441546471435
Ni 5.493425176488 5.664199185964709 11.195199056115248 -1.209443070414143 0.520047266241285 -0.9406648310293219
Ni 8.280034970218164 8.5249142936398 11.256497927737113 -2.5653210073864785 -0.7765752275038432 -1.0209303008492934
Ni 4.342536472182935 7.880042738022057 9.492987219606611 1.3185845998385162 -0.3645433475022883 -1.2420950521212093
Ni 5.367906601200158 3.230056065902905 10.781749673890845 -0.4820026527637376 1.1018251767231475 -0.21576234930942195
Ni 4.0116773382745325 1.1128112746047258 12.095261997940959 0.24092804994177217 -0.5000355990060485 0.7158835660507413
Ni 0.20993870925514355 2.9141319605397715 7.032667819668017 -1.0958846428689966 -0.04250547746237841 -0.7938550976302133
Ni 6.45335690350995 8.973920991824782 0.6786596451198799 -0.4354235194526178 1.328901408383492 -1.5849488304652057
Ni 1.347332581306043 8.95299357028781 4.600543915465534 -0.10954750661354037 0.46634566295277113 0.8374607501353061
Ni 8.504143115478378 5.160121293291572 1.4099337874170546 -2.0098112865725257 0.11952287265869739 -1.8121088800886083
Ni 0.563657168085266 6.165639322827081 12.52081840361317 -0.5610028827180403 -0.5138007711109409 -0.8498429258497429
Ni 1.2328337593879095 4.741646388846521 2.928463154392472 -0.6317552708412538 -1.3591128989698658 1.256638754263339
Ni 6.888531467565311 2.184861409764362 7.982462108852778 -0.4874384790673283 1.4067258728621386 0.5567991290493378
Ni 6.512269846879289 6.690745735691959 0.2795092889943876 -0.6943585474947719 -0.9589119501649679 -0.5277623754973556
Ni 5.918287677757029 6.68278651432568 3.405001773506812 0.08613401278560649 -0.5411732495866228 -0.9200818646716478
P 7.281814425399542 1.531405659278139 2.6233400616732774 0.1820238194063962 -0.30891315973249384 0.14092010738755087
P 2.213371230408932 2.4068924372084353 1.2598565107287103 1.2346799906040609 0.6679291496586497 2.600531236739025
P 7.9633847926980605 7.510398483829939 6.28972045905986 0.292230042649858 -0.024371229755512865 0.0016123387924423846
P 7.435034032093811 3.2209847593341783 5.498239310612316 -0.2879764095798266 0.8429001759833226 1.3820119150552264
P 2.2470187008730744 4.274340834148536 5.131869733756001 0.7093159401355527 -0.3899975259093348 -1.6778160482095876
P 3.834497350400253 7.665676826766758 3.9065733386203836 0.0073207020311293275 -0.15488145466364941 -0.4060589502475716
P 6.62396547882431 8.787632934234585 9.57703328855127 -1.23522197915046 0.3952225217537 -1.023695008078624
P 3.708344610823411 6.377257188830054 7.928104119420074 1.3468713625983515 1.418601541253802 0.2728022729425495
