# total energy = -340862.81025600043 ev
CRYSTAL
PRIMVEC
9.31244306166535 0.00000000000000 0.00000000000000
0.00000000000000 9.31244306166535 0.00000000000000
0.00000000000000 0.00000000000000 13.62970173691336
PRIMCOORD
 96 1
Ni 0.7571528383820784 2.069532156276813 7.876999796960462 -2.7734528367338362 -0.500524365717009 0.5869895365897891
Ni 6.540408127136357 1.9805238256072284 10.358096305065624 0.25202107453114014 0.48799075202637254 -0.05145497334618235
Ni 4.307396033121047 2.493574250547532 11.408387157012282 1.0691716523541845 -0.06544228876420988 -0.23914550412005267
Ni 6.245594805067126 6.4400013661738695 10.310678276300562 -0.2730768667601749 1.6839260177620679 -0.9282880546315238
Ni 7.792494032505435 2.625950628499838 3.274167439330155 -4.434538202452305 -1.5006675546176218 3.4719801708943177
Ni 5.6408168160867085 7.209861033097341 2.253194020592745 -1.2755800712525323 -2.8380996261799445 0.721113446991113
Ni 6.018482943969634 3.4890930374527342 7.556770024075528 -0.7364019977190672 -2.6780155442694333 -0.665594587988202
Ni 5.051581294556337 6.88011673714847 4.738024818360859 -0.01609484867933357 1.3900545828540447 0.03893112984755876
Ni 0.7090214764794054 1.6924899620782212 13.721293493684378 -0.7597671548075688 -1.2226040332761332 0.2561926894103266
Ni 8.780534927641682 4.159998684529481 13.367466288764527 2.9014264112630483 0.15951561100155107 0.8035175604206419
Ni 1.477856774667405 8.934087801089136 1.5138782356281726 1.865134026135388 1.5380470237073447 0.3331746033830198
Ni 7.335690763585669 9.152138655099215 0.6304076947419605 -1.149789363307252 1.4960254278599203 0.1785859973694408
Ni 0.26408039751642015 8.202139089821229 8.575658386814096 1.0877450444809975 -0.026055816546787382 0.43490544216561877
Ni 4.924801694876935 3.94167776967096 13.195105074089476 -0.9016928206414987 1.5558395718040754 1.0262267733615422
Ni 2.8574207129446165 5.202908494114901 0.2421644940431203 -0.07906142220954127 -0.14502821601865346 -0.42480666316872
Ni 2.4185159595664842 0.3992365397190792 8.43862578733691 0.3352659386944097 -0.8314513107164326 -1.0667743557666014
Ni 0.4201317994341256 7.357519130094301 2.999829385794427 -1.055252214059615 -0.6219688808784514 0.15122868840241052
Ni 4.5243759561804024 5.924250332749136 11.905639953562975 -0.2791945496221385 0.23145841988844007 -0.5311055809379757
Ni 5.3694987878320175 2.588505294996762 2.3474303567904635 1.4638215894338662 1.4511555639304232 0.8963241001304175
Ni 2.7198014295552966 0.8375946526901906 10.8946299176445 3.923086391189515 -0.525285631822089 3.726113920893086
Ni 2.4269623454126146 7.415442525863793 4.29249705548574 -1.3873484967767913 -0.9182805497968507 2.274750868937547
Ni 4.644040849369789 4.944152951534332 5.997082018596986 -0.1705099052295257 -0.021916083346800966 -0.5019225316161162
Ni 1.65256751872391 0.3937245046779276 4.234162049733447 -1.8541096500004262 -0.49628333105246786 -1.5802899915369557
Ni 5.910160606414852 2.0485512220857087 0.23465028374627078 -1.7478852942228478 -1.9066889667590385 -1.0811247109510027
P 3.9522101427602365 8.43883345481692 3.502860553257496 1.393507831509968 0.4119398345083809 -2.131728627605329
P 1.046122602437586 0.8181614465339562 10.074516583047314 -5.103109356570328 0.4105673796408865 -3.094158618225884
P 2.8840543000669236 4.082928905849686 4.594477233726064 0.5946120861320534 0.5868725513959505 0.2098138450354709
P 5.02149279106257 8.360580995869807 10.009639586052566 0.31556048984568236 -1.4685084533865742 -0.47311460624548846
P 7.027989020335573 7.234669381381896 7.898479878099033 1.0220950105813558 0.9850726677207357 0.10469712049977452
P 1.1348236224865285 4.159849685440685 7.505808610730033 0.2935171368923978 -0.40615279551295863 -2.5385290840046153
P 4.8442397500534815 4.253607362065646 9.933339946412987 -0.2494381442953123 -0.03648189697611781 0.462376651002694
P 5.690237951351773 5.873376456368309 0.5469924173680605 -0.004059000560722042 -2.4444030541524673 -0.4404083742617189
Ni 5.009647363503278 8.700177856565322 7.56377577498186 1.34748842735706 1.176814228635528 1.2112927220283718
Ni 7.060694320326322 5.413015834203534 5.948219629914907 0.045153970828819015 1.354816585587357 1.6771632451169372
Ni 7.9182585758924136 9.270434619160287 9.974229021355864 0.5554734682593787 -0.05456986482608021 0.1704929359486612
Ni 3.7767450908167013 6.788305361120908 8.327939020491796 0.1981317807118523 -0.06314989318560736 1.5418298877885446
Ni 6.0151956515730705 1.3178503781864672 6.324576428305036 0.8356573783779802 -0.09290964094654322 0.6622017602565692
Ni 8.879274761298264 0.33260228472084263 2.4849667594366407 0.28307048763777704 1.2597724147963143 -1.8549935952672763
Ni 0.5982788349759913 2.90343349405347 10.43395919112617 -1.5961891792657155 -0.6167863082362475 1.5616523218311105
Ni 5.0732234122039745 7.691109465022722 13.581534210882223 0.06164554072593899 0.8884143583650377 -2.440722262866771
Ni 0.019511430677852427 3.203024099407226 2.164614993547754 3.4048553522213623 1.5803249585399495 -3.171545223836164
Ni 0.33417143137472677 8.40623059169972 13.155183561979468 1.2439552452583995 1.2619344554446397 0.8232664609127951
Ni 4.5489142436165135 1.0032760519656505 9.4633195270727 0.5784858699941521 0.0904372681466507 0.6759427639917456
Ni 8.164721693647301 4.136233329866499 8.664578249274708 0.3119645449643079 -0.7418483655456191 1.136028562077734
Ni 0.8027735656385365 5.993767720115578 12.43489496065416 0.5732881278432964 0.07135402626295453 -0.17606117406505808
Ni 2.7992272563266805 7.714465072191515 12.638413747285092 0.42363578278907044 0.4555094915692155 -0.4369551256057958
Ni 3.143852836269065 6.400479357870697 2.40043585138538 0.8256308473799134 0.3053658087008676 -1.1827254519136405
Ni 7.838264690094993 1.5439564954345852 12.53450085151437 1.9697082479040533 -0.28730843697852454 -0.6999956911758912
Ni 0.22443453372068653 4.939394293135906 5.682836421615826 0.9441198794574578 -1.9710981862730441 -2.0521280450628656
Ni 8.084951306483076 7.11303956270901 0.8176948931371634 -0.4816298428053511 -1.722176319492518 0.5742273518281142
Ni 8.08897428188057 3.0329323271034005 6.373861601901575 0.7231114512577482 -0.9009094055082549 -0.4200233828474637
Ni 1.176245369171851 8.189986351641295 10.826167630075597 0.8315158454057808 -0.6891510351519036 0.8692699242261029
Ni 4.445304002244909 2.5792021643900545 5.0566332949108315 0.3057517312853767 0.67419184273891 -0.6275813419692224
Ni 6.988690510665595 4.1940542887624455 1.1804033749935678 -0.5970145249259589 0.6412950920108891 1.192466076240172
Ni 4.895430249497999 4.882551140760184 3.5312104236338735 0.64603157825461 -0.8061151459444892 -0.3537981931706423
Ni 6.82280796262026 8.212298965188513 5.968242313716192 -0.4908924990541998 -1.387188059939527 -0.8253094594847528
P 6.485827898421727 3.6360806385501108 4.986630729261496 -0.9713581463481206 -0.567662554126403 -1.0134987842719128
P 4.3149763617635495 1.9876757818694422 7.669555815584058 -0.9380824150141264 0.5434566463041608 -1.9967007173324964
P 1.532893313091473 3.4784396026038116 13.110860058039842 1.4981730703305423 1.7610444573126252 -1.2961306417103742
P 0.14634038630541807 1.22855336178234 5.6178765438779354 1.3732709356378026 0.5641216308526801 1.7171187024639523
P 7.791730412175355 2.0412037045194498 1.0069218734196308 1.5330583122435018 -0.1826028318383178 1.18105320641754
P 2.4480364040342164 6.2952208140792845 10.148785178857743 0.6218968899899355 1.6508024957352216 1.4650899146233285
P 1.798912561250853 1.8181893183638513 1.995115492621894 -0.4005799294108714 0.036715867363794834 0.8505304388350706
P 7.074290487178969 8.425200038192076 2.828926499700968 2.048358293607788 1.93786693502374 0.2021362738855551
Ni 1.2207495345066433 2.662697528774182 4.2080890716827355 -0.6253948758408648 0.8062275031526372 -0.8945909194893947
Ni 1.3814916139885118 5.006127260030469 3.21036696075196 -0.9073407629558954 0.4873114665711607 0.9522214255186697
Ni 7.667856294727477 5.2801365843265415 3.7063793398884264 0.3468767834604607 -0.48192783366174413 -1.7242229176089015
Ni 0.7419335127058592 8.304929836204455 6.3392425948641 0.01923930784558622 -0.032264516460660565 -1.5194049831261252
Ni 3.7167450202471124 1.2914775394695532 2.754385980553487 -2.7030475475373965 0.20517634626345954 2.153115835031853
Ni 7.061746626390945 3.6217022264812844 12.255691894070454 -2.553242736065706 -0.24563291161660925 -1.9030616544190968
Ni 3.1738202780031854 3.7070321421462147 2.3315917536514355 -0.30052442144816627 -0.5826513142257514 -0.5672915439402295
Ni 3.4131221270528105 4.370972081821742 7.819537367121931 0.1513832117024038 -0.10100938723554216 0.6353728129891831
Ni 8.091311705086062 0.144228324221733 7.393527553634799 -0.07859579542703239 1.0216774634279628 -0.19079925160618108
Ni 6.055732716168665 5.441800595670337 8.340819060473915 -1.1568596398904722 0.9623055492275491 -0.25326214602709285
Ni 3.277942703742527 1.8346723425619225 0.179593257947493 -0.9740524053508322 1.7173968958260037 1.0613225886234108
Ni 8.011997627631274 0.3006671237703084 4.461450847248884 -0.7268405792828773 -0.3047253469033913 1.664220054692708
Ni 2.827127335703755 4.3196977703897765 11.456540868778273 -0.8261005879274804 0.2659628814232129 -0.34138876376269595
Ni 6.493687600355722 9.161330036389327 11.966987534641865 -1.8745979997617652 -0.6618351209457699 -1.1302854889463696
Ni 2.298674129959152 2.158400800300651 6.2258161072737455 1.1830113585851756 0.44972965166264484 0.3697290054682858
Ni 9.046665925117658 6.004067282128609 7.574856650966767 -0.21747007602914806 2.167369259627074 0.7642897252682709
Ni 3.559392670035355 0.2801732303507065 5.269215882362091 1.3099505783126022 0.06797559670902485 1.7825039127379816
Ni 7.0757525407377795 6.086054030738676 12.29369131793499 -0.23788514935039032 -0.6913796673721061 2.7376201433059433
Ni 2.599549852453775 2.776635269487968 9.213010370338262 1.2008159908667642 -1.187302786871678 1.0421835538011148
Ni 5.656238221777107 0.4882104143493796 4.0921957179285 0.4217308524568737 -0.36895613185800324 -0.8512333784393662
Ni 8.988267594752628 6.620513762250373 10.277190731093631 -0.8817688280240621 -0.7696669304197842 -1.0503653182809587
Ni 1.2807775424053816 4.766397038600556 9.381746250934041 -0.5770591648499546 1.4752416583453498 1.8325584061922116
Ni 2.1859563192848843 6.174475677496127 6.547750057236786 -0.2167033730664526 -0.25199664905110797 -0.17267220298816713
Ni 4.740536384251379 9.164133081747304 1.5280806425233582 0.6253563092934455 1.176427791830387 -0.5757095928005956
P 8.722686031416586 6.737189361220788 4.983264281099009 0.07868269871388385 1.7585713131817844 0.5145530758959332
P 9.163714021810064 5.445693196865134 1.6285721467175989 -0.2389909808200594 -1.0643148384825156 0.5696752136810576
P 7.602836817354068 1.9799464541381433 8.43543627559237 -0.29948775265353583 0.047163802169996195 0.1455779178745364
P 8.160978091541299 4.816078922271014 10.895065739979229 0.4484631262453954 -1.8557124757111716 -0.7115060058083359
P 3.680491679454405 7.737187433232924 6.361186435666549 -1.2538907592045567 -1.670785880835684 -0.805059193876149
P 8.17938879145067 7.797699688170249 11.942344947843596 -0.3190019114270635 1.3412481028743028 -1.4388129832046703
P 1.6837921402697476 7.05461329501483 0.7318658305247661 0.42196687972707975 -1.7879788198096238 -0.2829671292906933
P 4.439269539148666 0.5625432660168509 12.73652033481429 0.7870884683303413 -1.797013933428699 -0.7043794220658837
