# total energy = -381165.7914482758 ev
CRYSTAL
PRIMVEC
9.27314405487604 0.00000000000000 0.00000000000000

0.00000000000000 9.27314405487604 0.00000000000000

0.00000000000000 0.00000000000000 13.57218366808141

PRIMCOORD
 96 1
Ni 6.318201184668372 1.9572454607998526 12.558192670870929 0.004880468020752885 1.1060903797574047 1.3266306100714442
Ni 1.8492875156327868 3.5838847833849456 11.865793883069536 -0.7932706858816532 0.2351708357430208 -1.3276323118630813
Ni 4.2409055986208966 2.554918152941041 10.191691826353832 -1.0072772288422331 0.5121889465391308 1.5975480072864552
Ni 8.219019562807034 3.5746487317283235 3.3629289391598762 0.5731225487997097 0.07070507982504597 -0.5902018728794997
Ni 6.132144818766293 7.154425512217804 4.836121834854616 0.11634781736482543 -1.3464376174950423 0.029372796735162313
Ni 5.216922575491193 4.47546978200871 9.010993373388356 -0.07200451536275987 0.3396270438765828 -0.24498730761281035
Ni 8.060050051211173 1.7968015192708564 11.079530474707237 0.26556204644036846 1.06214482741439 -2.2402361229901286
Ni 8.675406629405753 8.478528504183114 0.7798603022690279 -0.3697755424355051 0.6616726272259765 0.6468926407033246
Ni 7.431553427637642 3.41001332900576 8.341979600715145 -1.3380702193669538 0.6100836994050912 -1.2635583642013077
Ni 7.024749863255749 7.920637600803883 2.2156184420073224 -1.2361673737828645 0.18779980265822496 0.3379056903101019
Ni 8.235247565215756 9.143876602940798 12.168426654389348 2.6703420868845753 -0.9018550572509759 -1.2167923116903623
Ni 5.85980184577097 0.6344267993108901 10.73732085111303 -1.2917641372115625 -1.4384391448050193 0.053961798928436104
Ni 8.348565387749819 0.6845861637846209 2.599725058563163 -0.9061099758725879 0.31809765444523924 0.5662181083703927
Ni 6.047935395981366 1.3005213861793758 1.7609496890350802 -0.859744501234171 -1.3665816965430853 1.17605832430611
Ni 4.325087201973123 2.8778183082977145 4.2185063187247405 1.510665289260282 -0.9330332826259929 -1.9635553409287796
Ni 5.504723879923856 4.104534739522213 13.361746783971117 0.4388993938163603 0.661537644310009 -0.02265887505009646
Ni 8.219260664557106 3.3941284329336776 5.764608383641395 -1.3996622811471378 -1.383860538228191 0.1655546181067794
Ni 6.568919185311042 9.219489821021218 13.577477211420577 -1.9933017189532767 -1.2641504892593518 1.2444568674851666
Ni 2.2129153204632406 8.655172628688133 2.552941118590447 -0.6387232175186548 0.48012574745599895 -0.2675304830206489
Ni 7.4892231116261305 5.911768546055821 3.2950411775404325 1.3574702211601204 0.15676401639834292 1.0694899549255517
Ni 0.1307893535845053 1.2633360778028138 5.574597949038128 -1.0152959853816514 0.9993610593189499 0.4067210093116027
Ni 0.24937988592976695 4.537303107758065 10.184444864135305 0.09068949336677283 -1.0611040448547016 0.6955911343502923
Ni 4.033335538096966 0.3068594704614674 0.6146110173982029 0.35913657466442017 -1.0293444930549176 0.02820011658329982
Ni 1.2810756027216075 6.216521158147424 8.89979631894051 -1.250596404724001 -1.3158941974905467 -1.653967009506132
P 3.540254639766062 8.920403100056317 4.353508461734551 -0.6245099021327503 -0.13686599192283525 -0.15839486713354656
Ni 1.7760111298992227 6.463984285164115 6.390639278163222 -0.753109026061103 0.0587965013129181 -1.3017032507021453
P 0.6402345695443665 5.170287933140638 0.15969467147492453 0.23310392591166304 -0.13190761947629542 0.19264093280061015
Ni 0.7022561401216629 9.141836511209416 9.52609891658838 0.29251234977696716 -1.0490162604522322 1.3819358104016521
P 4.272016997524479 2.453367950439363 12.416973811966942 1.4410207894892666 0.9876669108104732 -2.263066233510767
P 2.5153774659291557 4.89957703353042 7.439972515287288 0.7840077725224884 -1.4922574761770557 -0.5791895809293961
P 6.62437258782771 6.585536659777575 7.785411975018044 -0.6250860863511944 0.2257711396956757 0.9812823474403682
Ni 5.522991974063961 2.9516418095410586 6.433662958149232 1.0552079910852405 -0.6116196764336435 -0.9690397826275892
Ni 3.687002147262095 0.694838552049241 6.333039142756487 1.5457914435394537 -2.310002235940673 0.33444909922006916
Ni 8.314505128979965 4.046457037187449 12.54817582046984 0.09552856662662902 1.7052294072255343 0.24062491687905654
Ni 2.5829786873917833 1.0092333795148964 8.903678057116677 0.21015734441781872 2.3764374847457717 0.06052993906425705
Ni 3.275645469061525 2.7221871286259343 7.128559003692721 -1.0033185013048014 1.6753981827967146 1.482682688004427
Ni 2.7631095141286197 2.079947705298273 -0.005932030366206142 -2.1756281572017566 -0.5905679979696669 0.9955833374440723
Ni 4.085636071574225 8.823146363334777 8.368622271412578 0.24620601051125987 -0.5139668643751599 1.5290396780024118
Ni 3.3699347996283286 4.412588590960963 5.331750993220901 -2.278339871840386 1.8741894514694366 0.9270189581111131
Ni 2.5719714651865515 6.566498894666083 4.150428457648508 -0.17738606352406872 0.44757301033095825 -0.5187658284257001
Ni 6.22631359845806 5.625552949287098 11.649982779265244 0.8766307354665483 2.214367225643167 0.7013992563916372
Ni 4.410196119748705 7.910594785598941 2.4889758969817968 0.6381727443318236 -1.5038096997910295 -1.0766216808743265
Ni 4.130944654299382 7.440872937592366 5.936405435655534 -1.34962758518725 0.19111729706723213 -0.2553668510749215
Ni 5.215253409529153 1.869298960888802 8.406786823820203 -0.30089388897244307 -1.1358341866787407 -1.348275956255362
Ni 0.09065889459936588 7.696144052053712 3.1249819127556613 -1.4902851829420334 -0.4831254535142711 -1.2579880692023817
Ni 0.8481264081732013 1.9142551641330843 3.525279439143292 -1.0932975988681106 -0.7014383371596887 -2.117765480557017
Ni 0.5514534866522959 4.782679777322206 4.767555279077276 0.17800338539309343 0.7944176550019028 0.3965718366927429
Ni 4.807244336396898 3.274616150051601 1.8420034608373281 -0.4146487487991117 0.8803868600748708 0.5452499907591577
Ni 1.4077374798077569 3.3678205227430777 1.4076391844788811 -0.11854996722246679 1.2141237637192637 1.0538990424658303
Ni 8.935128853099206 7.24160234115747 7.463778531163674 -1.0012778167256884 -0.32102074162930516 0.10245100477807517
Ni 4.206975163870313 8.193972800232196 12.205343041583138 1.7134481955909007 -0.06219112881676386 -0.05479920722806692
Ni 0.009051516086374575 2.372691595607421 9.124022801136753 1.5929678441149404 -0.8111480803827064 -0.04430319279274951
Ni 3.0058062450092624 4.5546624337632835 13.500536079085911 0.26149276146700123 0.9942918723261585 0.553298572095247
Ni 7.825022210611681 8.839587648060872 4.921545112219715 0.25650739243726794 -0.021154779700744215 0.19827164872382627
Ni 3.143122964819768 0.6435979389578774 11.148408608130826 0.18063285259614054 0.06179646448150647 0.4997473783416684
Ni 0.37065035695852644 5.516204032484998 2.418536166069278 0.949043027790688 -1.015668795340038 -0.9729530016390664
P 7.109395123819653 1.4328027886710604 5.9813430926113496 0.21788839451348926 -0.8123017343711753 0.7560948481623042
Ni 0.9996356752331655 1.3868172664168532 11.523720574695561 -0.09631866662809219 0.4455338684137424 -0.13232902328443016
P 2.445077759494563 7.4498586143546826 9.872882054918579 2.303353620275904 2.6291830961477625 1.700752088180471
Ni 0.20398691759208415 4.233477810089818 7.53074361493188 1.4673357732347116 0.9564951131933591 0.1619375901794824
P 1.0737280976592825 1.2423324061138084 7.408715528019239 1.503396523513011 1.9856971671331416 0.5051155846321171
P 8.582591728772085 2.0920491585230643 13.055151598120306 1.258042062368769 -1.7049846382045797 2.876711939235504
P 3.5333925130332307 7.109524947838923 0.3714608297645393 -0.7562313737401686 0.22326354278247354 0.7315459551783465
Ni 7.1999381041161 3.1213774415920783 1.2563969839728433 1.1279974642431412 -0.12479954767660442 -0.7517499409300472
Ni 0.36754292632586166 7.105481856953093 10.955589338139214 0.2877277839041303 0.6416871852429852 -0.23661425305776673
Ni 2.507235645292093 6.619402182518524 11.994729535121754 -0.6405836677661614 -0.7338396363085297 -0.1193107566478913
Ni 1.2579483810031173 7.3105574416781955 0.7776616397712516 1.5194402072394348 -3.532733024602658 1.2252903218590445
Ni 3.2225845377571143 1.5366156383657261 2.449018845793825 -0.28345872421513113 0.4490411102360524 0.5769097837562838
Ni 8.531403972602854 0.30727490732313073 7.776888100838558 -1.755644883563609 1.270446863791025 -2.178844607256525
Ni 3.0916848337562297 5.253124930578998 2.1392884098776483 0.42127936674175187 0.38169594802217494 1.0011202081019017
Ni 5.725777092163376 6.715036118999192 0.3036101607220292 -1.7835115280668894 1.1774806585749333 -0.6928228275765359
Ni 7.918319314745494 6.044235411432178 9.70625570812907 -1.3854952456181366 0.05492262017980863 -1.0643356644181217
Ni 1.7362571605699657 8.518922320464487 7.328368369807588 0.8951923005188196 0.21842421241230126 0.4842271712188822
Ni 7.628691200898821 5.5984568218366455 6.114811457564929 -0.17314605730079213 -0.3115179443451925 -0.10713735451015097
Ni 4.20185638825339 4.648608657993445 11.423381444830785 -0.9125598452629897 -0.3647955727224104 -0.9309581452645193
Ni 0.7733616827901514 1.1812965707685388 1.031039178180105 -1.0439848686759117 0.5037040489965712 0.7400303385002738
Ni 5.7297181784626385 9.14880991567305 3.9160905389799936 -0.5996169955458125 1.9768772548486662 -0.19468418848288405
Ni 7.372455679437186 5.5111687151661775 1.0114070045232422 1.3342724428874184 -1.5436548568124253 0.8872725314511106
Ni 3.9179127118218875 6.53825289733067 8.175177991499623 -0.8105266447486233 -1.145154692748718 -0.23395316128583576
Ni 7.6640682461498395 8.359396420214614 9.353582268581716 -1.5285437122025998 -0.5100071083964636 1.8407879931908553
Ni 5.250704639934041 5.207575246103768 6.253723158183607 -0.005014165385139752 1.924015116742312 2.508691688928209
Ni 2.5968791305978844 4.16199114119333 9.364155507636818 0.22192399803544363 -0.4645183799360451 1.012709712711714
Ni 6.0349159014774525 4.525683858033418 4.309412806275143 -0.3530235197881469 -0.4865373074092975 -0.6962637349372848
Ni 5.805183026235323 8.578808285924794 7.038182012678055 2.323231590146754 0.18721616224061308 -0.5031965132325333
Ni 7.0857764254567845 3.942254715434973 10.561900781646841 -0.28197622613233375 -0.9244519687148854 -0.7475266468773191
Ni 8.451970219098207 6.637095341716149 12.886639093793692 -0.0950994495090104 0.25841000877661946 -0.8195743567731886
Ni 1.418753975157222 9.017372369306619 13.109440293721239 1.457125151250297 0.3249370459645759 -2.429639265579732
Ni 5.113693933883242 7.232551752385518 10.086087405193242 0.5216079258601857 0.036443330428698524 0.28241845587607495
P 9.03539008855242 6.918423991473789 5.244102161239748 0.7500293586945147 0.30863008127443625 -0.623325652016662
Ni 6.475733358908031 2.176796423673538 4.106141775417889 0.8303040844858668 -0.35724655673055894 -0.950640454184795
P 7.051159778032917 1.4676419915565322 9.248683533697301 1.5925649522495668 -0.3391462475854224 -1.381085546586215
Ni 2.5359823924161184 1.9795751921142566 5.006697613773196 -1.7413446648908524 -0.7268824882644063 0.4689159947831085
P 5.470784172029038 5.8398367662361235 2.4619530273707895 -0.21133876632042956 -0.3237062588812683 -0.1321780995288627
P 2.0008663312745023 3.616016228154219 3.657458837048407 1.151676810137952 1.852933370304138 -1.3358241036452543
P 6.555046561537641 7.974866948281722 11.728456762341718 -1.1250458378139852 -1.7927304755619964 -0.5655545066444646
Ni 1.1228386695201982 8.66142272790155 4.779906179881949 2.03824485932287 0.221332901418664 1.2550904359396124
