# total energy = -381161.47960762796 ev
CRYSTAL
PRIMVEC
9.35502172046304 0.00000000000000 0.00000000000000
0.00000000000000 9.35502172046304 0.00000000000000
0.00000000000000 0.00000000000000 13.69201990798988
PRIMCOORD
 96 1
Ni 8.667493096035454 8.329580356982326 11.402166138250374 0.8408862308770874 -0.8901616800734475 1.7205418692128884
Ni 2.741292655574295 8.336194357328678 10.926094696629981 0.11125420489200195 -0.39815820734325624 0.13445429715754909
Ni 7.888622053834346 2.8821325073625856 1.8039784172401565 0.13879071974937388 -0.15090498651440462 0.347981072268233
Ni 7.674027210913614 0.9033106054360927 7.9779840276793985 -0.07106014917161954 0.6712098772924505 -0.6422862522795648
Ni 6.866436252074174 1.6080627461603878 11.092453176628707 -0.3712225592946768 1.4739805322447388 -2.3338553884091873
Ni 1.2126914637871877 0.0927774922700228 12.658121770922671 -0.7710887504679752 0.6553495132214262 -0.4324053014515843
Ni 8.27670577429834 6.073326866836082 12.528786724828784 -2.054634099314171 0.6906828984153975 -0.8104916777456299
Ni 3.836092135818737 7.277009444720107 8.923020836432086 0.5143733557849594 -0.2592006229987149 0.04737283285700873
Ni 4.923538569002029 2.478510095844432 9.514721281844473 -0.8886514140765083 -0.1746763779023895 0.3038599135793025
Ni 0.05619842189623369 5.138114701879347 8.186951825043792 1.4413439771566403 -0.17318590939979206 1.1609515505716586
Ni 1.5295554040011494 0.27593665575108595 5.183360264361849 0.6692589242136667 0.6095257700190923 -0.3883733600423505
Ni 8.70531544879401 7.852904580959705 7.664285826810848 -1.399350406333674 0.31866921067799314 0.13780855834176267
Ni 4.997012909483281 1.561942489148347 3.1591599586446257 1.4132844999162626 0.687306525743997 -1.0364417662213312
Ni 6.345427028185415 7.624866571847027 10.849350776062378 1.8041315183100863 0.33563514910837033 1.142346790986278
Ni 1.4653986651393696 3.9088274295851906 1.5437207778688231 -0.14526038663411758 -1.6550515008195625 2.554015609675989
Ni 6.474713428166431 0.19168439476201096 12.587101252634982 -0.3603820170357471 -2.2579170852096593 1.8310900491768012
Ni 4.249836680823103 1.3003573721968904 11.797906943980973 0.9697082694495235 0.16777193747307237 -0.596542727495863
Ni 2.9388332939244473 2.8958376141623097 0.06475265374447102 -0.8596876798543065 -0.7872291076732636 -1.1229275059194015
Ni 2.7044525800949 2.0914460727464235 7.8611360645590755 -0.0978710987168766 -1.1158248334363492 -0.14905173535574975
Ni 5.12654254002866 1.267474470899259 7.687850190986837 -0.7589451731269058 -3.036316253296119 -1.738182208002471
Ni 3.8836250011084283 1.4045068288530869 5.436868255572091 -2.31563423741547 0.04576229383677925 0.6124516854166355
Ni 5.1810074764027165 6.457668578617558 2.119511137865312 -0.3057946687081701 -1.04264943769394 -0.22448096012934243
Ni 4.509017557196041 6.4079185731834745 10.970648923008387 -0.5596054881498814 -1.1745017784522676 0.9411649105941919
Ni 1.4575217368626678 1.9752192830673982 9.672905343876234 1.0452398241289353 0.6684289721132037 -0.0616491402703648
P 8.026889274653403 9.048017958960763 9.592615870081948 -1.7273077271818125 -0.42698952975265175 0.23801756116319658
Ni 4.084617642468204 5.482136270106688 13.65558505681961 0.8563645290183446 -0.05267727578905766 -0.6120804181201459
P 9.126066905056392 4.657678207130796 5.916430991293274 0.9995124972951497 1.0857627239436463 1.76345358097475
Ni 0.8827557517430185 2.637349009395637 3.882481817455919 0.5187462880416743 -0.3828442026940052 -0.8125871268220779
P 2.0486374934184113 5.710623320261268 0.6875005451957142 1.3511471071555698 0.988698180288465 -0.2423249302892988
P 2.265346571244765 0.13268882137559465 1.8290891665041973 1.2503989440012142 -0.9164730642744667 -0.45394574662652143
P 6.426637971617774 4.779611560050662 12.972175462616061 -0.5197567315840597 -0.8204097081902902 -1.199770066100753
Ni 2.402566029632719 7.2980582435592725 2.122947237338035 0.19459702808571647 0.6041256820494435 -2.17395899702945
Ni 4.081511775261713 3.4632103256274736 6.974797339502546 2.674368691545465 -0.21604465643653115 1.002146849594203
Ni 8.649606294533015 1.453639402854555 5.568023788890023 -0.1678809522471109 -1.4117804045669107 0.5543663512381292
Ni 0.42579007095339305 4.73900141082363 13.491418458406672 -0.7418277967203288 -1.5185518910972107 -1.721822278587209
Ni 3.966080162427724 8.330094883176173 5.643056675987544 0.9299492443840307 -0.2873536883941632 -0.23639622350968967
Ni 3.3516704018233026 9.072041654702533 13.151595423921117 -0.8072400035775518 -1.6497869099865137 0.9674791230086885
Ni 7.647037973290949 3.3802874132228626 9.400324334411197 0.326036963896974 -0.7411881062538009 0.5565682439854543
Ni 5.23219815517957 4.732845806540887 8.61759341025407 0.15786444855137327 0.9792881998284746 0.5724347787040658
Ni 1.7410817998022148 3.0065917161431512 5.920990628872923 -0.818261808609352 -0.41308243275325635 0.3618629724566478
Ni 8.693743286943322 1.1350167185598097 0.010884567755275732 -1.015595004679309 2.370475353625066 -1.7600592105812203
Ni 6.080707978962349 4.208309739468854 2.924848471975705 0.10634776872932007 0.1831563903489426 0.874222640245688
Ni 7.408971380909121 7.173692584995769 2.414163450042014 -0.6353841258430929 2.096630498350615 0.47745874214679707
Ni 3.038361369857734 3.178415399822695 11.401290508218665 -0.8465873950269226 1.2924038276780903 -1.2275148403141891
Ni 3.066529340215392 8.903108672730234 7.541907174857762 -1.5199922230881628 0.5860474843914939 -0.7046933537618767
Ni 4.881310001019809 6.451643944638703 6.566418834948911 0.03249385886264727 -0.9879096229488985 0.3460146925704815
Ni -0.020390205311043387 8.809726846057984 1.2958211221715072 2.316226105363198 -1.915204717539534 1.0423882136127531
Ni 8.943980762565042 9.489172717564577 3.4637931434797755 -0.13508190343921897 -0.063643030771942 1.037962830851548
Ni 0.8030593863249098 1.5715033213321818 1.8924563415339657 -0.24806311832465663 0.8841825796718773 -0.6680780165316881
Ni 7.178052025110905 7.152784111482197 5.859294260719899 -0.07570613258406317 0.5556395615235978 -1.1649223622939484
Ni 5.149340727926904 8.65212279537201 1.6182054606943543 -0.3534585504430364 -1.463077255068674 0.8526181746020348
Ni 3.4107754289636825 6.638173722440545 3.954843845856291 2.084584108709042 0.3646695886675075 1.932690018808491
Ni 8.555401225950613 5.705066437367729 3.8958725955263116 -0.38488257328027264 0.13626563933467498 0.5134148485264318
Ni 3.3372262483087813 4.479801824407279 5.347952516262427 -0.09214653752827356 2.450740566334721 -2.261335881083222
Ni 4.694770868196261 1.0420558678643435 0.5057259249271829 0.0024608028356667296 2.199752818164102 0.2473825473178643
Ni 4.644553111676863 3.194927013134308 1.3516565692255365 1.3059208883279185 0.4204172758517727 0.7375852193938911
P 0.5548687894525279 6.572679215474764 10.266111947783337 -0.5182549502275526 -0.07456507700108449 0.5880272338256841
Ni 9.328518929802351 6.378057343896977 1.5446375699960402 1.3721753885807788 -0.617293329779653 0.24139316250364876
P 2.523489040208305 4.320242574184689 9.450684287260533 -0.0290830334088854 -0.8683625819204852 0.9484316194589344
Ni 0.7588410052257591 0.5596987871594887 7.333131155438348 -0.09348068295866481 0.6754743089957593 0.06582692579713825
P 5.78836355064059 6.6288093457125425 4.1578422038698974 0.14335365652970797 -0.4892163969033575 0.4949417294229089
P 0.10965301592601068 7.938119473682359 5.66197907839287 -0.4298578524393823 0.6430768665016603 1.004323802640864
P 7.365068264041473 1.6030858746126384 3.7150830590434536 -0.4844943088373398 0.6742836311217678 -1.2701401311838836
Ni 1.5003490262340924 5.176657391309289 3.556296533613804 -0.8105276731898879 -0.21116110309198474 0.8736333434011212
Ni 6.194998279148171 7.5500357532183635 8.507659743676871 0.7491477274205097 -0.40112011818505755 -1.2425892181488085
Ni 6.303161040116368 2.4926548886643523 13.404268011692984 0.28579302877526264 0.7496946010629154 0.14587462317934877
Ni 7.4242294213120905 5.458730005797535 7.407684129922335 -1.7176288093311516 -0.5815110299737212 -0.04324158429745456
Ni 1.1448675564165398 7.6235755788515585 3.966577849582499 -0.3033094403924712 -0.3080261291418502 -1.8886709329150637
Ni 8.27461024943613 3.4350610653132274 4.548722140321904 -2.3392305366781714 0.5975997080054676 -1.5392996651675233
Ni 9.079740837566813 2.951415798119416 7.3968397887603965 0.23711793216706262 -0.3603365085097924 0.24732546882768372
Ni 3.524560557977364 4.828369933183878 2.582383579360293 1.055294123041144 2.1826904633651765 -2.4923317595129464
Ni 6.340384671485722 9.060497557916962 4.078825013027665 -0.45196753985422805 -1.2144878319269021 0.6286779174675109
Ni 1.371268436730616 7.050870505013806 8.27019935670161 0.4089951500577601 1.3886209357313117 0.5087074157484335
Ni 3.255865624529122 3.054919758277878 3.5297067554179975 -0.9016367705925827 -3.080807136619643 1.1900173575893633
Ni 6.5332758640478445 2.9000941490386745 7.452197194205235 0.7271951344088186 2.3794582738499663 -0.39664871267726526
Ni 0.5329911356901834 4.06939702215206 10.709979662681976 0.3753954597254438 0.38843583784916974 -0.5963825477689149
Ni 7.049308216388854 0.5548744024655518 1.6671125786727006 0.18018856596987032 0.25961919859337224 0.21702296118940043
Ni 2.7516112445163396 5.533373723992073 7.688425524821775 2.0780043986089956 -2.6145275510181167 0.1737474383302169
Ni 8.192080247943183 3.3833558603425278 12.194180985948831 -0.3809688400481632 0.15256180539153724 0.2596158561592625
Ni 3.617792704302313 9.194190173121642 3.6239763736501747 -1.410175779083952 -0.4835185751876318 -1.60352813612929
Ni 9.203704230196944 1.4386620131027748 11.045024152079954 -0.8541410390044645 -0.1390884534954508 0.8367740084809265
Ni 7.281845990942261 5.18132554714073 1.1103475263203064 0.2221800799103077 -0.11599686178330991 0.44846184069381473
Ni 7.428616926492343 5.5369660523272906 10.010482237650109 0.20319094040231456 0.8809633014036312 0.3412185567334188
Ni 5.610889433850444 3.8324810974401067 11.128051840727675 0.6054456864124477 1.0946800810379342 1.0734499680145642
Ni 1.9822168393037078 6.488203369466909 5.806648876067717 -0.7583638467021391 0.323619612704733 0.5429758500130003
Ni 2.201947589141195 5.78482735243561 11.519411689793216 0.6303023404448113 -0.9906159661364681 -1.0260182568951621
Ni 1.009996208476866 7.035687304784487 12.920337416337132 0.09548202965940976 1.5291870022135534 0.7968180369132793
Ni 0.8186691755440357 9.006771668257702 9.463349115646515 0.4947077590352318 -0.2899556447933845 0.8892759350343845
P 3.228427345864555 0.4673450773727611 9.390548336728118 0.0760851131900367 0.8608958412297949 1.2129536546705626
Ni 6.11033533270619 4.51611801867112 5.424257686312004 -0.13128001319462554 0.8151404893715509 0.13742597819136332
P 5.021008540159931 7.801826162443328 12.767001126553572 -0.5592002822916627 -0.6723159658724357 -0.3211112444605825
Ni 5.925807529549496 2.074981234543342 5.37040737486405 1.720196570058328 -0.0023957539256861966 -0.4766984669420049
P 6.606759559550802 9.195443746030286 6.378591515636406 -0.859544726518539 0.5192139717067122 0.20396741355702294
P 1.0826098869611378 2.458331314023951 12.601121623666208 -0.5409698753265652 0.37941075153242393 -0.26355067243729446
P 7.888416243356806 8.265788463967093 13.675123955155382 -0.5084809015599243 -1.0137165567096733 -0.9474386594180456
Ni 5.319957613806335 9.374573701662447 9.884747939410975 -0.5845845266927222 0.8946066032186786 -0.1991684495064828
