# total energy = -340869.42856755893 ev
CRYSTAL
PRIMVEC
9.25955245138628 0.00000000000000 0.00000000000000

0.00000000000000 9.25955245138628 0.00000000000000

0.00000000000000 0.00000000000000 13.55229098250660

PRIMCOORD
 96 1
Ni 5.111041390154004 8.228001150641402 9.132563112664299 -1.1659862847820885 2.246677764850415 -2.771324220426608
Ni 0.3225250224834244 8.445526553671426 6.208399268834021 -0.7704914832036086 -2.564305421637771 -0.20564274437691682
Ni 5.256064498542232 4.971953654800949 11.97704017521005 0.29813586661133173 0.5498178126354982 -0.5298755651856165
Ni 6.68853576108058 8.692247325156826 3.8299860309235125 1.5103235896501472 0.6044241871264687 1.1203520318827414
Ni 3.2831502054721957 1.0645985085378438 3.0302514606809203 2.242125369593042 1.4723779636443093 -0.21400500029868302
Ni 5.094337157774208 7.239127260951657 10.9503724967834 -1.1402132895830428 -1.7621263775228944 2.5903427262417966
Ni 4.588626707983437 0.3362893470025855 11.34268491316929 -0.2607134600988155 -0.10140610845332858 -0.9512739740037358
Ni 2.06257453815516 2.210884787615909 11.779935788859849 -0.5506567635970259 0.3905662539286113 1.579736690136647
Ni 1.9827479376306478 4.244402850600449 9.995220970676794 1.6069441037893746 0.3583734712461505 2.4272851635252586
Ni 5.641900784037639 2.381103137858585 1.872153696667341 -0.23850067144720216 -0.31571758424883695 -0.4180004388801639
Ni 3.0505502512701597 8.274530401034125 12.666688853911536 1.818212678993501 -0.6730489873837183 0.7686140636752375
Ni 1.2059826128655062 1.6239217662438135 1.5701274711032027 0.05548594888244637 0.030519251634779702 -1.7143470532560865
Ni 5.565129835777723 4.699537625635984 1.0769405658211197 0.062225581599125085 1.2163475108434598 0.3710358972051674
Ni 2.299998719114332 8.960283586075867 7.942401370887549 -1.3558496548375618 2.905282294674029 -1.6336966892928704
Ni 1.1184520648132832 4.2046515925037395 0.5334252158306643 -0.5775206778674054 -0.5380100213672928 0.24288774477130426
Ni 7.013055291133078 8.126034960527038 7.550862127120127 0.37322647709858303 0.0828388869741025 0.8079737964197826
Ni 0.07610518644832606 8.840548315065258 2.369509252402519 0.5798534397656401 0.28189420794148873 -0.021572326854137045
Ni 7.181116165685902 8.174471678697056 1.2147078890137777 -0.5967139629664046 -0.5993693983113806 -0.29929337725454264
Ni 7.595675582468519 5.515146772370772 10.721339322133858 -0.5887499709243216 -0.912214803218745 -0.20237512936923857
Ni 2.9731959512142763 4.3514062371752384 12.463459273703668 -0.6107820110236966 0.8525747229586091 0.0052486499934490255
Ni 5.609807175707056 4.4761046282277395 7.565770006350434 2.041969102251993 -0.7513203095917964 0.7548296082966355
Ni 2.4652169111058497 6.986109993890724 8.726713230791015 -0.5465496834071878 -0.7651497592757209 0.8783870560360226
Ni 4.99768595068978 8.591623770128422 2.3678156802837473 0.4776595453036935 0.054412770422925645 -0.22682734887433195
Ni 3.2688812353517602 2.8197466502176147 1.1173566597741869 0.5692692364918905 -0.5998990455626055 -0.059474501216549194
P 8.622717346808773 0.3521611456290867 11.204925923573718 0.7617882990026559 0.0902691179999026 -0.3361683959040211
P 2.4786803001747093 7.165689751525846 10.984389314130217 0.25088901780922596 -2.0913196276606625 -0.4310480160927415
P 1.0231990501287156 2.643954049480129 7.728885354010769 1.0828064695287998 -0.7387877243424243 1.600374678101973
P 3.549112326672238 5.051632102488389 6.817398172810017 -0.9470182840511756 -0.23011450426603594 0.37083509404827103
P 6.325061294430633 3.505786881381182 13.134758297578633 0.27347615908112255 -0.9027742266311355 0.8200682656904715
P 7.064945822317322 2.9168515753655746 9.155588841410884 1.3024861516147568 0.6857620640750125 -2.609243676911358
P 4.135982752521164 3.662514063898047 10.481693774573847 -0.7323841348089257 0.01893103257654804 0.22510393842532198
P 0.13368293466564682 4.157177867774685 11.889546665367094 0.7661139229612031 -0.29729280188474605 -0.7620646925924939
Ni 0.4297163779702487 6.203112990416269 9.928354039575098 2.0906570543759995 -0.19870590804776744 1.1679932879097885
Ni 5.252851433888247 1.8819669702128552 9.561222049759952 -1.04588902767716 0.9573967990720222 0.09437696952068907
Ni 1.4115076360927508 5.044094826902383 7.8724982325811235 0.8403691820313526 -0.48094695780571367 -1.6718922265259852
Ni 3.2068977921420294 1.260243589442892 5.917417837273553 -0.3708484637847097 -0.9792846002840491 -0.6234894312880359
Ni 4.45889112047051 8.796908044995424 6.769166090746205 1.4855777501640353 1.0208146012070356 -0.6952376076656155
Ni 6.760343589298605 0.28775447757800793 12.317921334206616 0.9870372476462744 0.06618379491592473 0.7668338318463631
Ni 1.9462467823971918 9.008331403048572 4.278702084292932 -0.7547848711016292 -1.9754852595971464 0.5536233024245175
Ni 9.267052554336752 3.663264087635721 9.293741361979926 -2.900683876670069 -0.2868677498966801 0.9979333257334879
Ni 8.015355531682415 7.776162776230703 10.010209408012255 0.3841878612060932 -1.7383048496232643 -0.6084405073747134
Ni 1.1579440554451177 6.206270497756352 12.610243548942579 0.18998266924215668 0.18194154410523505 -0.2564158611647261
Ni 6.811910036151755 0.26895388255365227 9.926578983395936 0.022627250481212644 2.4879287453492442 -0.25755743096833705
Ni 2.859738656674565 8.600059222289172 1.8071303424319527 -2.5542593502556787 -0.8865299968581314 -2.3682675473404697
Ni 8.928393687896257 1.9171440094649863 13.006214414448898 -0.3494028923164241 -0.15481640575366884 -1.020297809471617
Ni 4.626303826361148 6.880347387326407 0.44685951312986844 -0.46017064449031075 -0.03608466153769914 0.47066614470499585
Ni 2.477143214490094 7.458837918328484 6.183191989561561 0.8514997447268755 -1.7275987760596698 -0.8093390521984254
Ni 4.484928981585802 2.511866535678694 12.388785614043542 0.47740217787724876 0.28462626216067116 -0.4712950365382464
Ni 1.367895144679869 6.3771833144228 2.3317126857999204 0.6100834422947752 -0.30162048272582254 -1.2557812913590503
Ni 4.41856577013015 3.258454979442863 5.893321704279127 0.1363970227062167 0.9468946139891178 0.32374148299457794
Ni 7.342537941227467 1.2690401641440041 7.503455997122987 -0.15703578200249083 0.2601529596096552 0.8871876850467882
Ni 3.4623966192239077 3.0763658831298444 8.398097274793495 -0.31931892844685006 0.5259752016899457 -0.9895065351223732
Ni 4.08324034252376 5.56827808356549 9.307401979513138 0.7606493003022061 -1.466088788201488 1.4212569765987781
Ni 1.7415088211168888 1.8029089125306506 9.661238178156362 -0.23854386598031177 0.08086119442244138 -2.2162441309509058
Ni 5.004908401497008 0.6766704901740356 0.15163905851869566 -1.4803324426046958 -1.2430417323051948 1.862657025349805
Ni 8.052764123042932 5.7803218316238745 8.274527623168431 -0.3882936558443506 -0.827281238499143 -0.9999107611748328
P 2.595739560565718 1.0002631390396055 -0.048880250726000225 1.0122808527044114 0.11641646581923176 0.6733436358060018
P 7.168800961104345 4.6483415608755125 5.4327071261824145 0.2881841547152585 0.5172825590119542 1.230839790922364
P 3.1362011102020397 4.947184352353079 1.051399942665249 0.5786594194575388 1.887050109482189 0.6063388876506783
P 4.2733667302479 8.526103177933612 4.530327640640626 0.13204671615732097 0.5381889701473184 0.19426484155727836
P 0.22612567522201713 7.389104229829458 8.033499624447499 0.328394408385557 -0.4100014798350874 0.4531566750663228
P 0.12886518959513255 3.8196394071645416 2.516118522102642 1.775872266354077 -0.2612747319189242 -0.4727770204004116
P 6.450148586680445 6.131434795930681 2.645637436091352 -0.8224177397592546 0.7652996545900239 -0.09219307449549284
P -0.05753237641096766 7.317879753407401 0.8403830789588156 1.0088080636644627 0.13640525023633282 -0.8318896838054318
Ni 8.33312484809585 7.409845627019449 12.315942567876482 0.5220198165866236 1.0527379322781936 0.24805026280885023
Ni 7.764273511055727 5.2397769460167 13.008464485661921 -0.49407475343692325 -0.6736277427053237 -0.632485464139059
Ni 8.492833606458776 3.470211681379422 6.936374160530637 -1.5064815901962376 1.058683094118035 0.05157452964318215
Ni 8.472323698076709 6.789816744323488 3.4546010021282587 -0.1416855247986657 0.3498664622164039 1.7604762435139811
Ni 6.656719939319506 4.027729326383584 3.4264121470097377 1.0124153213997467 -0.058999618462659685 -0.04877331274896116
Ni 4.780132769002804 6.678433589502776 7.369234156512493 0.6443156240047678 0.1278380773926121 -1.2214125840711934
Ni 5.09914286542671 5.512313349361784 4.887620430163771 0.6835306036413324 0.4688992826125602 1.2160549193037056
Ni 0.9582988479391429 9.083333776815948 12.600120080394447 -1.1429725974957348 0.15792769768914092 0.6833298004844361
Ni 1.4184985980920555 8.837057463841763 10.250573496832063 0.46480891459327045 -0.37523322311596663 1.0782815850752525
Ni 5.307566128529164 1.9317370639165152 4.132553940298194 -0.9758066690377776 -0.7653729310301206 -0.28723104677336986
Ni 3.5605478737836838 6.841522084461394 3.3051601613296095 -0.4261847744631692 -0.4494733126774646 0.5043311410576088
Ni 9.217875071981378 5.814609953853577 6.013842185326215 0.09332153167298121 0.9516956349221867 -0.2357148811719489
Ni 9.109103110914049 0.2073223023319664 8.79847198338176 -0.4908768153249159 1.0676935251467612 -1.5879732191138265
Ni 0.1736777189882922 1.2960410187002593 6.237319628585582 0.8871766293031945 2.4946799480301487 0.26660411455163757
Ni 8.357227462776896 5.473339893659699 1.5530787833772157 -0.07855080112170988 1.2295413838259146 1.3908104871834628
Ni 1.2664289703906213 1.947283852256691 3.807136233670951 -0.5454662205350218 0.9184615554594053 1.541844543076564
Ni 4.29758045955675 4.410176615730983 3.0309024072088024 -1.1508892812396503 -0.5739352745089922 -0.7340679502692519
Ni 1.876670506287554 3.189721322594069 5.903824814472255 -0.22092820978107755 1.778777098705698 0.17226776846089686
Ni 6.874486090709771 2.906740144235454 11.236421364824626 0.6656182421372859 -0.6811129953387753 0.04348018267082189
Ni 8.423479559604745 1.8550772302844032 2.802885005448431 -1.7409505147762276 -1.0878291195543717 0.6222077363621349
Ni 9.22983841357489 3.9954134887973938 4.537577870104805 -0.7448398440737752 -0.23374130238534582 0.5384841327902339
Ni 7.024231570779648 6.9767115482890105 5.559975968958103 -0.21265877068343375 -0.6518697822029419 -0.14631711003340606
Ni 7.973835699093166 3.3118177794455037 1.0759322005738028 -1.7700844560277063 -1.162995834695197 -1.4887530625682233
Ni 7.392317294483443 2.1039739965642887 5.034310257969052 1.0310321651699856 0.015411192348747655 0.5665819194677145
P 6.212900337215295 6.355756710361354 9.180660931219515 -0.5339579627851062 -0.4562466268455562 -0.6063234610317105
P 8.909985697890141 0.2537163632608629 4.416285142394482 -1.1191495269342082 -0.03247097604451182 -0.9338069275672239
P 1.4672316219362163 6.490057257166542 4.446912963593291 -0.4707152527753764 0.3990619501044482 0.5012039082825368
P 5.657012373418917 1.5277983536414517 6.321140799979631 -1.1610855050463615 -0.6270408960847201 -0.5150798949336807
P 7.163421161208191 1.0904233999498454 1.0962837706112492 0.444011518231945 -0.25182078559487603 -0.7815863075651894
P 6.252975679643098 7.351306737271627 12.646022459095313 -0.20525785023367232 -0.2547122482100581 1.2166028213873756
P 3.1617945128061176 2.953704593587075 4.160038143485394 0.4710512959585565 -0.13067837505488464 -1.0720911399938244
P 3.544436252752173 0.5222646774230324 9.35076909278962 0.10371855863658912 0.5981895190706666 0.6489091569127211
