# total energy = -340851.97122954845 ev
CRYSTAL
PRIMVEC
9.45136929525695 0.00000000000000 0.00000000000000

0.00000000000000 9.45136929525695 0.00000000000000

0.00000000000000 0.00000000000000 13.83303432265122

PRIMCOORD
 96 1
Ni 6.8007892726109995 0.14347745225083045 13.115389727324144 1.1222258518666868 1.504674876004802 -0.5510516850425994
Ni 2.854606430626627 9.171495061774822 6.787828610300449 -1.1058944616965147 0.4381195782275422 0.8094771204381866
Ni 8.43615965078849 7.754007093168653 2.112414996567244 2.638494089136043 -0.328394408385557 2.558753124360974
Ni 1.6849806140617498 4.716790762081024 7.678163637486268 -1.6621382324630147 -0.5071439279160556 0.806652763615514
Ni 4.10983329623013 7.814316278761616 2.721787287197797 -0.9004556058002879 1.4515885377027837 0.3436945290777371
Ni 5.168849741380736 2.0759364927724464 9.734458295201625 0.5899681596021388 -0.4171319202322816 0.13888919300045113
Ni 3.8871495912064935 5.897134431092605 4.0918256028732465 -1.2914995706962662 1.7510819467832746 1.6030347414326394
Ni 4.843070503298324 3.6455631481816146 4.083663400604309 -1.526760395049932 -1.6714008887118634 3.417355284460585
Ni 3.609685751455256 0.18420340127450727 9.230091659304872 0.44682353375944334 -0.06690190402887188 -0.5106007761164045
Ni 4.781428674676272 6.955007260594137 10.164720527312104 -0.22995226765655882 -0.8038209505936736 1.0619941607691388
Ni 3.424240440294067 3.7586960351190504 0.4579084315741973 -0.2457357557430606 0.6977709156104305 -2.892212091753632
Ni 6.865587858479259 7.2135778137131314 11.648369024059521 -0.471979978420413 0.5481450529187657 -0.2138707887136639
Ni 4.689514111145231 2.5001895444723314 12.015235253461434 -1.5384162341213052 -0.5767303207556261 -2.3316254706374036
Ni 1.1728109279180863 4.044845682981858 10.330564644302903 -0.8911135024637555 -2.0873776122937793 0.38836153296780856
Ni 9.435689179449186 4.847333070717603 3.836937303116893 1.1447667132816801 -1.2287016615334387 0.000516020404470079
Ni 7.764554820973347 3.521910887546487 8.692028057510207 -0.7878559426239851 0.30690152861910375 -0.05192908476912347
Ni 1.195872268279602 0.7251043040431594 12.247532891032503 0.0738917050831437 0.4926130812897322 0.8144455201870554
Ni 7.190280189126601 7.412132173678183 0.5409368179708545 -4.022080033546609 0.21960666275617663 -1.9123088840489775
Ni 6.304904295255407 6.5178058333634 6.309703700433922 -0.2643970795979898 0.95354965741179 -0.3483515682337742
Ni 9.20892248301728 2.5559242674689946 2.5083857716696705 -0.2935428479240106 -0.014073704484246729 0.9297540976540891
Ni 6.416732893270757 8.70834017526838 9.451946479267153 -0.5982154872125955 2.610805879192155 -0.5640820358639962
Ni 9.23462075532997 5.411693216482697 9.370303663565988 -1.8988388745870008 1.6797307487337974 -2.5736804350947673
Ni 2.0368361792168765 1.2389232540774315 3.2569464832985715 -0.29287976041871494 0.2208058252706004 1.1609487223581814
Ni 3.802720511923944 4.126203067339206 9.56550184239892 -0.6105493261876002 -0.2903575082174935 -0.0026279245411503127
P 7.525624212637642 2.7666803448138473 0.807056179510646 0.2776480310706251 0.2032189654267726 0.4315979750589406
P 5.082246847228045 0.3922790703707836 1.5561886989640847 3.279622830772397 -2.7956183170872824 0.26191159417197474
P 5.885575406804845 4.261111908454073 10.073907048269634 0.5389325331815622 -0.20276825104259916 -2.031170468974592
P 0.27783055286846114 2.8856447264246667 8.578818614483867 -1.3099873450878083 3.0940987115222263 0.049935451377862386
P 3.7131782420120585 2.2605122779855784 8.038251345040935 -0.0748026469331873 -0.8744157300931006 1.3360979261319312
P 2.872441163930799 7.6603440263724965 5.416614544321321 2.5652389891956338 -1.7906514815457806 -1.1876766252713287
P 3.0018493082873046 6.041664765850105 8.701587172117435 3.0935230415244144 0.24439055456907588 -2.5368092731000313
P 2.1759886850130226 4.4182314667204 4.373105905426934 -0.7730870118449267 0.10715278112911868 2.301223718417095
Ni 1.161733923449358 8.083680295279322 2.6480855117309523 1.403107559383261 0.8965184755294109 1.0479469386474531
Ni 2.3986345845606567 2.219568947474887 10.840575637766825 1.3876125490714555 -0.9608019680988291 -0.3848275516726211
Ni 1.4930705665041362 7.437168850160828 8.85257468217616 -1.3010617604634045 1.689251029519407 0.15492953429276543
Ni 0.3127316231770551 9.048343723696727 7.168845429370091 0.0023831555201958956 -0.6024441805819625 -0.25177784817208254
Ni 6.731954952179477 0.8454958423730724 5.516240479819969 -1.9621738872002208 0.5231953249519635 1.2910802237706602
Ni 9.320940108412643 1.5228329274870922 0.4053635456152436 -0.8888293344152692 -0.19402572896327874 -0.9037535598252693
Ni 2.929224988886531 7.613616458033425 0.7184921262903249 0.07511246486412225 0.22140257831433482 1.2688916034887632
Ni 1.1607604324422942 5.196258711482538 13.383750953590884 0.2778750594797666 2.590776471345106 1.0552840957388148
Ni 5.376656991597396 2.656278903517591 0.1641759503621909 4.402695604020412 2.1704234730723653 2.5738298161884385
Ni 8.348309175927715 6.182943829671391 13.111060055184959 0.9233291679643518 -2.495420168630283 -0.3299882352352382
Ni 4.111109231045214 1.0149541628697105 13.832881898774202 -4.495217779720548 -0.7352216042577209 -2.8047328777940406
Ni 7.427934862647221 0.2283573618347094 1.579275558021902 -0.9491916375534104 1.7228512340723556 0.03375267097041284
Ni 1.4266368937987695 1.346130132651478 8.497120980842496 2.52822615941671 -2.829252717312276 -0.03187679410393865
Ni 6.302087787293222 4.117318780478622 12.051187316002897 0.2860084872201784 0.883182420542137 1.7858944264767698
Ni 1.7661017141940818 0.36844555316191707 1.1162482649969685 1.2657756835676006 -0.4395609386597591 -0.6922957514284722
Ni 4.149670816567748 2.11646396304711 2.2453778008048833 -1.0131473144697647 0.26850647378067305 0.822900335822628
Ni 7.346898824835894 3.6237682912661815 5.828037362602863 -0.1464117266297414 -1.5316647743300846 0.6239008077938416
Ni 6.488487686723474 4.894438693816699 0.7693007957638643 1.6567746541582564 -0.8370118355233456 -0.8429986492343997
Ni 0.24083978487382984 2.807510258896531 5.638441010176602 0.15048872491259246 0.04868152436610326 -0.42904229851662246
Ni 3.571473866585745 8.934331859442233 11.70479369699323 0.49182298128826907 -0.06689007695432996 0.2767309185729943
Ni 9.021095426867936 4.736922178052347 1.3348782778562382 -0.10428805798681393 0.2576888143398788 -0.12943344690418998
Ni 3.06522073743647 4.156230066654179 2.5475333420702433 -2.0989881999495146 0.3934656869635933 0.49079274025154185
Ni 5.1368663086826345 5.0912445505166355 2.593983985297596 1.6359970552912728 1.4905806026952653 -4.46626510124194
Ni 0.30688689658707097 6.268185726687993 11.375830292694507 -1.1010872701158585 0.7946009746573025 0.1860997892479827
P 7.375082807195747 6.9687211970140375 9.552567643921568 0.972724430568028 -2.7512493040536037 0.7422810822076635
P 1.832091172556419 2.496153809909066 1.0488051860823355 -0.60150727058999 0.24084088954460459 0.9324663543789296
P 7.798126083663552 2.0994514988459922 4.432850844290561 1.9023327466728723 2.3172249789413577 -2.378187120447027
P 7.225817336568936 0.6885700371712581 11.065679838391521 0.06511267333893302 0.018522484284219713 -0.6094401522838214
P 1.3241462483560331 6.262165204634598 1.6719433956622929 -0.09841797235928211 -1.7158431781856387 -0.7939252887465166
P 3.2039195775205864 4.1078296060019985 11.968908423167989 -0.9133879975912398 -0.005835118624538337 -0.19236119677666227
P 5.211352547776531 4.1268930172762515 6.192108822191293 -0.939823308964633 1.3483384340621811 -1.0432009393220356
P 8.362798124605668 3.950265833392642 12.30321090581516 1.4830495844255427 0.6586891191176204 0.16531113463740563
Ni 8.433173018184293 5.553492105599019 5.979757353759136 0.8478024983809463 0.44139953453039465 -0.05294904139320558
Ni 6.55371158419676 5.334806329662644 4.459341141325503 -0.1389059051709995 -0.2986017505041567 -1.4542671129762115
Ni 8.88910705877426 8.61905309231951 12.174453015645899 -1.7400637412959001 -0.45613169853424673 -0.25500201153633506
Ni 9.007286976758028 0.41031511783466906 4.048957028497128 1.7911651879574058 0.7782199621961178 -1.1748254803402733
Ni 2.903384946038833 3.14448936924468 6.246278398481453 -0.4491046164841362 0.7146023853454725 -0.4493732967644906
Ni 9.029639464444497 9.434365987789098 9.86173610098539 0.46946183998424956 -0.1383852567808391 -0.47089985798235673
Ni 1.5901172234025147 7.843331981593524 12.679635304687404 -0.3580515691303575 0.05194091184366538 -0.43082484433834195
Ni 0.9752773158051028 3.198929254688258 12.692015652941317 0.21186789935102224 -2.169545955563419 -0.5421003893865826
Ni 6.269386050551073 7.221649282839662 2.875777497188018 0.9730159936665177 -0.23704516994759822 0.2662392750130511
Ni 2.290019452005518 5.850142224421516 10.548932854240856 2.0536714782905854 1.4502631340231409 2.4060406523241853
Ni 6.210674146319214 5.049403339950886 7.904610877645952 -0.28376674237385324 0.32728652003335895 2.1035873892844226
Ni 0.8850970784856753 7.518611296839181 5.136786917183029 -2.329445946487582 -0.5782030486464107 -0.36134386672838414
Ni 4.709966873662575 7.485815046407025 7.986031586175604 -1.2254913821262572 0.004441066490489126 -1.1548300110549532
Ni 8.650743532578593 2.45923676259264 10.5632923191635 0.3751275507760378 -0.6311569751356227 1.2324220478078194
Ni 4.293180403473181 1.4183007863402217 5.247063600408477 -1.4749066436034342 1.2318756883860462 -0.14304281015750847
Ni 4.94433247077098 0.501524609238264 7.205890070168027 0.3899363336540962 0.6327088930037748 1.5122066656054731
Ni 5.920857367284164 2.7017872452555824 7.540802166115739 -0.3044636086015724 -1.2914383784410277 -0.08628750764433527
Ni 7.999232313258771 8.498292950598573 5.386735931499658 -0.04618909696155271 -3.8066023053571403 1.2513949893658964
Ni 3.3373256509643547 5.556072329336188 6.280280643598088 0.570965650357707 0.705631806415746 0.5329606318688433
Ni 5.295006614801029 8.375689791922515 5.173610395946349 -1.8529282280978152 -0.7351652970984888 -0.8679491485321503
Ni 6.372538291823852 2.7982101117999196 2.7505600898463882 2.3472888882062732 -0.3148904603618512 -0.8203379744120904
Ni 7.758487042074947 1.0564929296274408 7.8857289326565105 -0.08142066647033719 -0.4782802096068278 -0.06835971952132097
Ni 3.196566412438103 6.272136398930253 12.798654504238426 2.512873331109724 -1.6471451014882923 -0.7106356873882407
Ni 5.022221202705099 8.450450120717427 13.492478557437128 -0.35643177413874744 -3.193947502790764 0.5937970464299258
P 1.8462965801643527 1.3202900898037797 5.595476031836677 -0.15556202567044175 -0.7785086970811302 -0.7482671245877694
P 8.31095736563726 6.586772472960933 3.9603003518606017 -0.7404633122726344 1.679991715704668 0.21823086545457254
P 0.1663875707083363 8.640772338282938 0.34108100449441847 -0.8226861629292929 0.341828936623908 0.6980249406027655
P 0.10548011345763296 6.756471803367088 7.183743622325771 1.2366669391271026 1.2466919274632724 1.2689381404559825
P 4.953358528166573 6.275633405460483 0.5594076284087686 -1.1538892444082385 1.6766958185622156 0.017189367295092975
P 4.884429694045043 0.35204931821963936 3.652252827160254 -0.1359830750972497 -0.7386987641730439 -0.43702583094273123
P 6.393756615230247 8.50385980693994 7.016169904807856 2.4374191666354665 0.24874291800050063 1.0870230787133084
P 1.9359333637662446 9.358717230308127 10.449376858872814 -1.8453581290600412 -0.27686101639295546 -0.8343659132600663
