# total energy = -381172.05518176086 ev
CRYSTAL
PRIMVEC
9.16988753237649 0.00000000000000 0.00000000000000

0.00000000000000 9.16988753237649 0.00000000000000

0.00000000000000 0.00000000000000 13.42105731006775

PRIMCOORD
 96 1
Ni 5.506682485164021 6.829988946309266 6.426888028931564 -1.6980043502320044 0.47964829359894817 -2.0503768666997138
Ni 8.830372388755746 1.7294407772988225 9.861793078755067 0.7173462666391969 -0.5689113389318395 -0.3274448999880941
Ni 2.8355217741098584 2.504543855680252 10.210297403110713 -0.7967483600176085 0.3026682072640465 -2.2858680618966307
Ni 6.83587601406656 4.693973698258188 2.016030938429422 -0.06788380832616697 -0.5163091393550914 1.9559615877419214
Ni 7.631143674999847 7.1749509431343155 11.609442501607878 0.2716416769755451 0.044678059633664995 -0.5623275150667348
Ni 9.168411120539117 2.126130109355806 5.88383170400602 -0.9165957058952601 0.694382715864488 -0.691511307853964
Ni 7.182974594672684 0.12118831584678424 10.706715680351518 -0.4931026193316411 -0.7956237594948621 -1.0620733507465063
Ni 1.830713014544253 0.342259630986927 9.352155491734019 1.5574940766883627 0.11469202692895732 0.02124451120107309
Ni 1.0302918768514662 6.611525547166279 11.16967487218295 -0.02854567284817664 -1.6630617727185486 -0.28453241689528413
Ni 0.6862652085486033 4.07488708533255 10.276476480999184 -0.5596718226114425 -0.7451177803255103 1.184215663305922
Ni 5.78811550158013 6.333732976076722 3.7731693608386956 0.31022107991063996 -0.12974866415176364 -0.42987276483771775
Ni 1.7527139517038302 4.555627605961755 12.362136208984202 -0.2816535526855924 0.10973725402684327 -0.418290459316757
Ni 9.024884041820766 8.862201068172524 4.667159113311332 -0.11521961729765319 0.8956011059214639 0.6422353444369714
Ni 6.629617735149368 8.869711206012438 -0.006219017683796721 0.9806549982690144 0.2940789229331387 0.5492585976979186
Ni 1.7473403976449906 6.4140336806727225 0.23014308481661008 0.30754687551258647 0.657974609549099 0.41272119275909563
Ni 4.500883377751395 0.5301267835894292 9.94077607052128 -0.510521843249353 0.34823638281214864 1.4263716721175241
Ni 0.5670841810695323 0.6527153412532523 7.486896760114909 -0.6023778461204012 -1.6844741769560538 -0.3224011669165996
Ni 7.036513151963157 7.150137227633941 1.7803703323206552 -0.17771207940491976 -1.4129039766483924 -1.8855544987732686
Ni 1.8701710403380856 0.9299641380156951 0.334843025999232 0.7769092138044943 -0.41675396806757253 -0.17921566053363971
Ni 7.4497082814705005 3.368714051081318 11.424178680058796 0.8460754883875106 0.7492053201313226 2.0103825856949635
Ni 1.4040381504524493 5.097219499857954 8.390576332679654 -1.4449502064506599 1.471759099113388 0.8139850356108692
Ni 1.5542867566880867 4.534729432412105 6.223867637280884 -1.464709391355458 -1.1757513345886523 -2.2199344353182995
Ni 5.302304033178675 8.46229310561272 2.3380691335621635 -1.6083432981297463 -0.0920722326469124 -0.010367716387569243
Ni 3.328467414964857 4.045213329471792 7.410624387085543 0.9539715754405571 -0.46545554703833386 0.014364753362104292
P 4.394356794984266 3.8214038859323836 9.228560080425723 1.070662120856782 -0.9284045256047301 -0.8318742571864642
Ni 3.9224285362160587 5.8448037459346445 12.075502032393736 0.909163675097247 -1.2598744875918173 1.7131255221441595
P 7.15796831153539 1.0003980436913698 6.119612435640676 1.4951759353754315 -0.2249332171754126 -3.8829154753975836
Ni 6.745726850325179 0.9755751583035229 8.004036232077148 -0.22767504158660787 -1.3374302717901096 2.290739016835687
P 1.1242832234437936 7.261157055262556 8.129617841011967 -0.5976511300686933 1.1394249893537924 -0.2670077777479595
P 2.062509430072141 2.197481003778723 6.254910457341276 1.6773329379255824 1.4569683139574585 1.1893843519910547
P 9.07422720630987 2.687895755691333 2.4969741135717674 1.2882486678591363 0.7000985353023427 -1.1147030611270803
Ni 8.739627182328656 1.220906327740706 0.8705946185642449 -1.0127652485399978 -0.6062378432964398 -0.8088708543127553
Ni 0.9594728359019496 0.34995224958754206 2.4936995467553653 -0.5665456669131405 0.968491109212971 1.5010424214585374
Ni 3.6939974693905495 1.707469726914899 8.042259991017191 0.12868936964931385 0.21948916334170587 -0.5924767849566054
Ni 0.7351067801929655 8.772592927792013 11.17484210377366 -0.1792449711096784 2.026488233007574 0.9647696944973256
Ni 4.497050364787922 6.005359305689284 8.550985174234734 3.347783804019351 -2.3700925163643505 0.10692472427871264
Ni 4.55356438128046 3.3018288918574705 2.865690703894127 0.4064569570169387 -0.037982907001676516 1.1197930740554778
Ni 1.241107589842452 3.1354871331077323 0.634371898353419 -0.3432222174270089 0.23960444603434217 1.8283644227155222
Ni 8.302361098206205 6.030246380289438 9.588043511052101 1.0975203787002068 -0.8352796833235874 0.5775872694392827
Ni 4.3172472112286675 8.251257315322396 5.054987583103713 -2.440182845423533 -1.6369954146488 -2.7946780646612
Ni 6.6732847392930426 8.397003506809073 4.852705367394563 0.20316291537785658 0.031102892052391595 0.048854559608857796
Ni 5.6815155597132225 3.697023532256449 7.389003626403066 -0.31546690169061153 -0.5631749506686946 -0.6740234354818456
Ni 5.265743691826128 8.069088330795257 11.804799618297855 1.1093435965873797 -0.8409947314304936 -1.742431213086812
Ni 8.642774830844933 5.582985118822046 0.8516477970687262 -0.29134095517668535 1.300346736674251 -2.28103130262962
Ni 6.154415826553506 3.9338175364568073 4.814925431008184 -0.3671190786492645 -0.37202165815720445 -0.6934830868683541
Ni 8.735904208014853 8.240290129905379 9.234076684729132 -0.06113491963810762 0.7402414260698155 -0.8287004874441728
Ni 0.8911195776937675 4.858068834577183 2.3393712575832475 1.2365728367513993 -0.1136227051241785 1.073361779176132
Ni 7.737184253730936 9.042233468918589 2.6746828648323207 -0.012021449940908329 1.043529012085416 0.2976098189045326
Ni 8.437561919099597 6.6547157171613875 3.5618007036331227 0.5195528431033697 -0.26032650907304195 1.0109569916866654
Ni 2.895997181990482 5.000348808599286 10.217638815021136 0.18743650578153526 -0.37747496796229185 0.14914686617271733
Ni 3.0495652874911365 4.3577597740818295 1.4083516655194768 -0.11276729910241867 1.0670859734697493 -0.6440574852473746
Ni 2.041868013371719 0.47932652398095754 5.208430061145995 0.11995481798979343 -0.8456934224577436 -1.2397296372128261
Ni 1.7596647264079261 7.697854606361717 3.7767391980317093 -0.5632623681761784 0.0817903911049301 0.34405371218936875
Ni 5.016331922463717 5.6515391975658735 1.1114490489373914 -0.5554940370846692 1.3654416694013711 1.717679717173745
Ni 6.639035209583546 5.502721093775935 12.786711168844823 -0.41633462114196684 -1.2348573967221894 0.25215245790268187
Ni 5.7549388487049065 1.231268300584543 3.705795446612568 -0.7328677593135637 -0.03451963104342442 1.832549150220831
P 2.5745742863071404 0.9195654856219683 11.60273197795556 0.1561988879234923 -2.6132661678071893 -0.571743666174312
Ni 4.236002008223007 0.4190721103884187 13.340719090378679 -0.8410492388175129 0.06647330113188551 1.08016388969963
P 7.298230910313559 5.7473828614276306 5.331286379524013 -0.19501971744543187 1.3701753274316144 -0.06560915335937732
Ni 3.2924756066356 0.9475244725253836 3.1397217871424967 0.5632950211863267 0.16512730076137366 -0.6280582816056409
P 6.188628676713114 7.315827924373138 9.939943444738784 0.3127394754571195 -0.3989349376082807 -1.3522179716222453
P 3.6243521740375035 2.290555361623808 1.1565988238853564 -0.25833493256430995 -1.1875478130029484 0.6235462526679003
P 8.5503148554605 3.5629139279722746 8.616130805805064 -1.425833283115551 0.7984745986800957 -0.432328682577378
Ni 9.040280282886963 4.184182974116349 4.3665812058302995 -0.7625390611257512 1.9587970003081876 0.5741648740212951
Ni 3.3526667480045793 2.7411819717935786 12.322154582615694 -0.11107551322229257 0.023290595096824403 3.998531299692391
Ni 6.58120072929498 2.1890447073040944 9.813128485938924 -2.231557364269208 0.34368321622382747 -0.8819776016007586
Ni 0.6280263362225028 6.86657679732423 5.994260073892664 1.4531345420336652 -1.225160995370032 -1.6748888472604637
Ni 1.7861840409781709 2.9487148650694373 3.9693581863224208 0.5942382477324024 -0.6061815361372077 -0.32800360070504153
Ni 6.986408886813843 6.193415357973718 7.732099551127479 1.194727104360207 -1.0665344718416534 0.8942803302275115
Ni 2.920581650304046 7.124470712598631 9.38539908478779 -2.1078618482900606 2.46247508116283 0.38929304364314243
Ni 5.615758296648482 1.474362017478455 11.855047850680487 0.4893824901675765 1.1832353016705235 0.7431465155317524
Ni 6.1993207655059575 1.4264126758851594 1.5273162836541985 -0.008050381108302265 1.0552334450065375 -0.7898066385924527
Ni 8.934698198529492 8.204151603376564 13.124908539681465 0.7666623392655055 -0.27603826338134396 2.3054313287405392
Ni 0.8377590855029956 2.186660536561265 12.069879057395646 -1.347200720913312 0.025591475315859154 -1.69059365959023
Ni 6.638118220836303 4.459398806826156 9.422548132916067 -0.6254596676405293 0.5805064999686066 -0.005837432617383495
Ni 3.9550549958429366 2.7272437428354968 5.296056588843714 0.44684153148157246 -0.28860041631707073 -0.08971093150358744
Ni 7.837603691441432 4.0675878549045015 6.484061360333369 1.2930599732048504 -0.6074781434614441 1.4847933065895267
Ni 2.597847460712148 8.289422386982617 1.5143518967456882 1.8939334668655836 -1.4558377998974412 0.24919903170131275
Ni 4.925284109750038 3.751245076880881 11.226928898594513 1.9339526875709985 0.9176030641138518 0.02549994404331737
Ni 2.874658853842156 8.690687492888339 7.144363866481304 -0.4205836262263079 0.1460692556886581 0.5029851685526756
Ni 1.3068923625696087 2.7182297434501064 8.240435014127444 0.5462414081381496 -0.3050135675677714 0.03036575677605093
Ni 7.796275008603224 2.3814472862504568 4.056728874159659 -1.97416474101351 -2.090366005498142 0.15636472407739524
Ni 3.3454225369013657 6.20057704008968 3.2392260700832445 1.6404892867346712 -0.49160906550525013 -1.3850275619530985
Ni 4.9806060408711605 0.5798844269922864 6.3368323980424 1.1228729985323822 1.955432454711329 0.5949267891589948
Ni 7.974097466468436 3.3849906013448674 0.560923850665559 -0.6664487084583812 -0.426790012147336 -0.8069458693759006
Ni 3.053920984040537 7.8071229854831 11.561328102040079 -1.9065850941913232 2.630919876333211 0.8309016088605496
Ni 2.829066173329273 6.371366194263543 7.067770547390404 0.9454385982688814 0.31527175496066995 -1.6405301672749362
Ni 4.91662773597607 8.285341787057389 8.317217232900276 1.0769039880014357 -0.18713800070450998 -0.4783933381459245
P 0.42678581973022023 7.39091096299733 1.7621983663165564 0.14713266395616595 0.5291212035180952 -0.06807355573946985
Ni 5.281011554467711 3.5545693303723707 0.5266064637887663 0.6740440043071358 -1.4471806384430754 -1.5517309489523403
P 7.910275049660377 1.3080752780535512 12.238151994447076 0.3527391557785086 0.60348702002418 1.108712133650968
Ni 8.23268829319074 7.994262049020292 6.851959996693189 -2.088528695179087 1.6890013754024462 0.77116614067313
P 1.7147781272304194 5.5213818147823135 4.360004562535078 -0.29575759618714226 -0.03738538262699368 0.004442352042069769
P 4.466624678154425 7.388141656980658 0.23450886824223027 -1.066763300023008 1.2669244524600634 0.403144347703938
P 8.646268557971926 5.1864975242894555 11.774561914357545 -0.08722261786409495 0.029038810434511283 1.0614506295608428
Ni 4.224668027307094 5.208651972422827 5.193613356968055 -1.1417742063122596 -0.4015330373527601 0.6858862483577026
