# total energy = -381169.5510232757 ev
CRYSTAL
PRIMVEC
9.25803099240346 0.00000000000000 0.00000000000000
0.00000000000000 9.25803099240346 0.00000000000000
0.00000000000000 0.00000000000000 13.55006417349301
PRIMCOORD
 96 1
Ni 0.45763280122062217 0.3375876173314492 8.52131015979012 0.2107080747149661 0.2740911669573022 -0.37677819900558335
Ni 3.7004997699311812 4.883750187350351 4.804933792612819 0.20005368032491352 0.7609326358705799 -0.12207340699469299
Ni 6.400261944246221 8.549893404491078 3.213546784747376 0.7312078551126374 0.014249567940478684 -0.8754817094637698
Ni 0.5550476542984264 0.8829374842280965 6.0435722316917735 -0.4063733961641969 0.29736479277326205 -0.18797540900414078
Ni 6.255614468957059 5.429372240356415 4.209489646143584 -1.8088947440266847 0.09527814117871979 0.048660184209864586
Ni 4.91778270905817 4.145144479556619 2.1872514689390137 -1.2031940041806375 1.5358872970518644 -0.1581639820696631
Ni 2.798387977838813 1.8201103652648825 12.335097676832854 0.6149564541163602 0.1842118281966505 -0.07388502021492438
Ni 2.1866450679129357 6.703156942264366 11.716184421949766 -0.6424592875223194 0.17613290784325794 -0.7724828026020245
Ni 7.563292822108842 0.5421410333754476 7.413945044515258 -0.24126229335273933 -1.4438759995498747 0.005039619306436482
Ni 1.6779995904512224 1.345062282057161 3.7948178116620688 1.1474745991311464 -1.3763904551033908 0.4306908898636389
Ni 8.124042497658587 6.830251190905534 4.239706933304124 1.1375460271635247 -1.6770431745993053 -1.9136412297071559
Ni 7.678684919651348 1.722317784525033 0.14462618181801654 -0.7241332076540432 1.1894617421962095 -0.3618092364005769
Ni 6.4582172178835835 6.400734103823777 2.058403749239233 -0.5087791495266335 0.07469363215914879 -0.3109281332799936
Ni 4.299568435510485 7.197572826182848 8.429698240500798 -0.35286462561277937 0.15553400064598374 -0.39672790265463287
Ni 3.313791817881241 8.56699298762338 10.878655727839325 0.7347886304853604 -1.6291934021058778 -0.26914307892340744
Ni 0.37923024046577125 5.966930548420281 9.958809251692688 -1.0081398339528442 -0.7053420430894691 0.5961483202709217
Ni 1.9587123463551304 3.8406015520324917 11.5990175598775 -1.2976522205612233 1.1689050010907802 -0.29272060913303133
Ni 3.7874789705418874 5.6370854223576705 10.295122038164733 -2.9948955242574873 -1.1348065167451746 -0.5580309445739099
Ni 7.7250954287159 8.34485579342931 9.24650931299052 -0.3646793588595203 0.8110267243134937 1.7979169048589425
Ni 7.474452757280706 5.582111234680569 6.08373449567999 0.838448310859556 -0.29327905273966265 2.116577630896503
Ni 2.404282859073817 0.9372275034192877 9.830625332810765 -1.4327423515305584 1.6635744506889094 -1.391146530366643
Ni 3.9509665387786574 2.3593814090512595 8.185214011241895 -0.8917071701836965 1.0987357391645463 0.7141503854097185
Ni 3.7150996847117117 2.821903376407328 5.831039318787065 1.341744325784431 -1.1942028564256209 1.170125760871759
Ni 0.13163531281355217 4.767423028683665 4.105601577837785 -0.5921808509827414 1.0005514800826254 1.1384320293129038
P 8.581565128311112 3.5376232317359553 6.010360897327666 -0.10601352531835291 0.12531428252949386 -0.342702597478113
Ni 5.070743896124704 4.1489124981461405 9.22029056938972 1.48565179793508 -1.2041160017742747 0.3687820681739842
P 3.354934507345209 2.870841327916448 3.6703732114737786 0.2178914798372828 0.6076720046398051 -0.17816819310573187
Ni 4.482581190983868 0.22680416758713523 12.601220701790256 1.773160266739553 -0.3059821021286278 1.218050866687812
P 5.446851402756948 0.5913474677816107 1.067906461637514 2.35591082554733 -0.7776797734219317 -1.3774975721246405
P 8.345031696017028 7.465879820637224 2.2997578382398634 1.1848311854027336 0.6035849790546249 -1.4786054326112599
P 0.20889913576370733 5.78288089348246 12.160518987538964 -0.2549585598929093 -1.4798873846474772 -0.4158581957261806
Ni 6.440302928029222 4.636625567669503 11.128857717002132 -0.8017622682924321 1.1621885083025534 1.6327170989884203
Ni 6.272325214790198 4.793521417882344 0.16585669835239344 -0.8704991686475139 -0.5171275214913288 -0.39808210268968214
Ni 1.8243783175247585 2.582823985606809 1.795749708472232 -2.1502459696832257 0.33365180012975443 -0.3287011409926984
Ni 8.342689414191108 2.425983683579564 7.9019775161057915 0.4510925934484425 0.3693150578593188 0.09892885055742962
Ni 6.33661298158538 3.271306713932063 6.707972969955445 -0.3603527064597084 0.42746389828590897 0.02437431507930641
Ni 1.8752511974987691 6.53354055755029 3.8870120610970442 -0.42048232476175323 1.3294498246877944 0.7020497454914425
Ni 1.0611092153268828 7.654826973938331 6.005794836471765 -0.79990284648619 1.762886909838003 -0.6853067217051487
Ni 8.50439018245791 0.4980079999202869 11.285102727640421 1.7249181439037131 2.207380509912689 0.4294796431643571
Ni 2.0860010136458804 7.268730051929936 8.926429557955496 -0.3572797239613395 0.6400560773974655 -1.0752186298792126
Ni 4.262628892089866 6.878374435692596 3.2877471252619714 0.09978219969666041 -1.027109947297444 0.4370885658598666
Ni 5.1726470425985775 1.0476480383510482 6.7701406476670885 0.7190663346540971 -0.49966895969524916 -0.6346428768016941
Ni 8.079252144007219 6.185068273251517 0.2140299365064911 0.1680115642877042 0.31165344148179225 0.6689393360907189
Ni 2.8416785304791174 0.4060414980462507 7.4432670800846275 -1.059073644688234 -0.8241678896811419 -0.5435918863304444
Ni 2.51128718059149 0.5466098849065586 1.041715492129511 -1.5641372930364934 0.0547272163395509 -0.46906049078077283
Ni 0.17859574891549415 4.818360714874204 1.8393124472219515 -0.38163886953199433 0.5648086296173758 -0.9352896827603377
Ni 7.634301919361009 6.961928164858281 11.159494392963916 0.4065826839615255 -1.1376956653675117 0.9787205002504629
Ni 1.4816645284659917 5.445046086725113 6.26224321910472 -0.012620002756855684 -0.36190796676197023 0.3968544009301681
Ni 3.257614086182916 7.069330581706051 6.3009019788695015 0.7642151632765936 0.8087844652465361 -1.0901863069326385
Ni 1.5415547305682438 2.8119232190621077 7.51785996111076 1.0182743512836852 -0.8280032042668322 0.8061912505980631
Ni 6.9662979554584155 1.4891820495831705 2.5327648865517642 0.00982469939990566 0.6174874480683301 0.20052419220342885
Ni 5.716584133974928 7.4489561400926405 13.386230438026889 0.9398968425150458 0.6576627347356351 0.0008788030605275188
Ni 1.6176927769570086 3.333798422726343 5.246218762812857 -0.8356753761001091 -0.38711763325837845 -0.9120957611423776
Ni 7.488756415071397 8.707678025673436 0.7139275005400983 -2.242220243299693 -1.3122031217922046 -0.43032553610442015
Ni 6.259734292722016 7.934567636594328 7.621518430249433 -0.6589408301171104 -0.9467449757851308 -1.2607594612999318
Ni 6.748150972596248 2.1774796172897743 11.350061701678209 0.06506330815823633 -0.6372363485604832 0.7008387559024769
P 2.9799749965485933 8.671497640789282 4.342835843073459 -0.6000548544141794 -1.026860293180483 0.8422877392103043
Ni 4.558432238413726 0.9999228888940829 4.266102505295735 -0.1760945984061548 0.7786017710155688 0.21156965138431305
P 5.24546145588258 6.0831280946539135 6.2674064229557676 0.7901048865591619 0.32328614062471417 -0.4012970100825541
Ni -0.0031634691696304663 0.3714099817371004 1.4130819611212286 1.5179283985805985 3.2453212292770495 0.9288686097253422
P 7.403351079719214 3.5286799738551737 9.650450163818189 0.8873699762609233 0.22737885050242776 -0.8576259122292713
P 2.0128162791245785 9.108078605472523 12.682873757205503 -0.7869496287596318 -1.0806747678977775 -1.6892965380453617
P 1.901895810522464 5.125282956347979 8.704358095781048 1.3900224440645286 -0.7164720915643596 -0.8108261782669133
Ni 3.299182645069778 3.6232692758923832 13.72255618574224 -1.151870928426629 2.7838634905441992 0.03082701268318562
Ni 3.3064224252589822 7.769061817614276 0.265172225180637 0.806483070806869 -0.8060845498168699 0.05905438295999507
Ni 8.864833100752387 7.201572295545682 7.780799149230482 0.9045698850789776 -1.096399377721886 -0.5056177210795163
Ni 4.309354174206123 6.006980790234215 12.537643951770688 -0.2048197342549892 -2.094802701113257 0.08041947889933247
Ni 0.6524995394999604 1.6331259145214627 12.902886233300567 -0.684175436314183 0.2742184365637858 0.5168912371108065
Ni 7.012477013749655 5.747293022577983 8.881376276225646 0.5222517300917715 -0.08553468863871076 -0.12066289980041153
Ni 3.8887340548504867 4.8403300222769925 7.421356098276713 -1.1932587473447966 -0.2441470710997021 -0.5826441151368998
Ni 4.090568387209614 8.962088715698151 2.405542877083728 -0.12132495886444265 -0.7469352931502232 -0.14559180183160733
Ni 1.7371121179551454 5.8203944348208925 0.23737498730584777 -0.016150641617933476 -0.9283749579183753 1.097865677854767
Ni 0.6895761017783804 8.254534443651977 10.545973941099001 1.2145045440974505 0.1633010461859123 -1.3407449379856393
Ni 7.155235850728589 4.158920429584158 2.4732524121115578 1.4890291990477451 -0.8767634043896707 -0.4176862500738548
Ni 4.444308491108972 1.7145040064180146 10.798507102450609 0.7054921955140881 0.4849776762316615 -1.4632654598200798
Ni 5.538663295514412 8.44745329222312 5.240013104678812 -1.014851184534749 -1.4673483716402018 1.6942351129975595
Ni 1.2556574773421436 7.86985400037625 1.5018081521688948 -0.30430162910241143 -1.9629025378361291 0.8676825251343251
Ni 8.549356438696993 3.5408265104385954 12.18406864082193 0.45790190306079204 0.9681825768336165 -0.005122923048862145
Ni 6.121558181054663 1.8412186757909506 9.06564349489038 0.5426593472138461 -0.4665850326570868 -1.0332037189000076
Ni 9.071389028887081 9.11376303646507 3.7347230070762087 -0.6766482746992024 -0.1639152827311435 0.7654606056479204
Ni 5.759856170553367 3.0679170323762777 4.120560704218496 -0.08716348249138536 -0.1289019998807522 0.8910512817672526
Ni 5.208531170492893 2.552522450364782 13.421921073074715 2.3544969759189387 -0.3768093093538349 -1.9584468160576207
Ni 7.224097084804421 1.3507004228950448 5.349551349262707 -0.4409899577968017 -0.1251834133785844 -1.1990789535709994
Ni 5.385572496014823 7.036334959462671 10.335053777182733 2.438303883233265 1.8812435301027408 1.4194343215677425
Ni 4.032437210984534 2.0523943613609563 1.6495848419132364 0.634648790338965 0.12149747988656492 2.851383487773044
Ni 9.342556754899597 7.906950930322723 12.691572603069666 0.6531864441318364 1.051043575294906 1.7928320341368673
Ni 8.832383702334022 2.510648376457148 4.023190289689167 -0.17628563137103834 -0.9668571731539737 -0.47845427329084694
Ni 9.245041915087722 4.519798475332462 7.96062158724453 -1.5375130055807456 1.6716168613774116 0.1957116013061339
P 3.806189451056442 5.900874497716994 1.3313807639451332 0.13476617197101307 -0.43448378124716786 -0.2224323051304298
Ni 2.3481143854064244 4.6707506696866465 2.6039156316771987 1.4466545907362764 0.5249405897778443 -0.044777047105374494
P 6.741781447314697 8.955432191457694 11.116811167152783 -3.50057392337161 -0.5396105330851932 0.42171902538233175
Ni 7.785170791436802 8.138105446645033 5.783777070876725 0.6723954129601194 1.9687181160766416 1.5508110082412325
P 4.572235962534063 0.23028240980847026 8.76995402234699 -0.5573285191902465 -0.6598818538741409 0.4699801743815648
P 4.118481350471059 3.7683611366663037 11.523245205710571 0.937372019210663 0.31493648310843825 0.294341432565906
P 8.849057416043431 2.7812698786446464 1.8023210588281107 -0.5726394385157041 -1.0586707528228607 -0.5303090531786093
Ni 0.25557627611911526 2.8246622696252084 9.900760471942906 0.30751293695085746 -0.11286551524317982 0.7595776645045821
