# total energy = -381176.1744171044 ev
CRYSTAL
PRIMVEC
9.14602751827298 0.00000000000000 0.00000000000000

0.00000000000000 9.14602751827298 0.00000000000000

0.00000000000000 0.00000000000000 13.38613576763016

PRIMCOORD
 96 1
Ni 6.5343701308133255 0.9852375097475171 0.5826458463927261 -0.17458073286478967 0.5530172934094023 0.3690072968109129
Ni 4.124172405919805 0.8645639096123582 0.3391337814365266 1.6622061095864726 -0.8713214074384928 -0.452625228042885
Ni 2.4605283136827354 7.849989588377089 7.080128219491231 -0.06588169029447363 0.7894256011039501 -0.22192116982196616
Ni 9.30306469175461 2.2415083955044093 0.013673310964905712 0.08031483500066812 0.22917785138437952 1.488704725828791
Ni 2.4766161758815777 3.5069344546899774 -0.12041934057340341 -1.7847592844310618 0.4444714885874991 1.7458710920062965
Ni 5.82854375817475 8.143083182478339 9.689099301704875 -0.11589915986318106 -0.6740141795104649 -0.20286363896988288
Ni 3.8439747104543525 0.2323831788143283 8.556605263180392 -0.21791436265541825 0.4050852734803927 0.526223570255326
Ni 7.262595124557621 3.4618628316564957 1.0130158241706686 0.5729243167459747 1.2586974365645807 -1.3688807769899072
Ni 8.856180646900926 0.34211721557482244 4.184626732439491 0.8886359874575406 0.1580526533027794 -1.870192671605218
Ni 0.48023228996421213 7.392962599135391 2.70350442143322 1.5283992162049356 0.21759323187057364 0.5342119877774413
Ni 2.1038515370878237 0.20134887863632292 12.68588023778737 -1.5727975398146525 0.023780647359365498 -0.11965811268498103
Ni 3.719049122180341 5.4993599399480715 0.45107841301990886 -0.2828208335208161 0.018972427337444746 1.026348129430755
Ni 8.622618545154575 9.127781076609182 6.332325239491765 0.036487296292756516 -1.582237859291946 2.0887996894522867
Ni 1.9585303077089693 0.9061307749456716 5.569113947129373 -1.2195739882005576 -0.8653893582247741 -0.20312434883043728
Ni 4.079667836585202 9.248462908169001 5.983000039721998 1.5842065529825426 0.1451043206722275 -0.3607874800042819
Ni 7.563161023045712 8.14516847672583 0.6122872065975172 -0.7492950516316514 -0.19132118554792213 0.9515897054719418
Ni 3.1689887422128766 2.079166409131783 7.171434840243636 0.3931826085055357 -0.4459452449195481 -0.6219629673411804
Ni 8.38152011682957 8.226513244432766 10.298449718903843 -0.6209520095781628 0.1294118496376352 -0.7735634372607129
Ni 7.7553556428561 6.896433917547588 12.117370491346053 0.1891501460385323 -1.2670362954475791 -0.5161710711153304
Ni 0.7280512192236718 7.310127028962046 8.674376828821128 -0.2753638630221386 1.3955711417968997 2.1138314356099337
Ni 5.719797492373594 5.154435808563798 8.395730299602931 -1.9679730103805009 0.04577746334543084 -0.5391305081249811
Ni -0.012628834635680139 4.530539549385843 12.759423444121019 0.06937401971844827 0.1435295199859399 0.445913106130032
Ni 4.5322224184276765 6.930493723589935 5.6207716244945125 -1.4264341499243436 -0.31304466540236414 -1.1858840521472802
Ni 5.247039336001704 7.646536208835732 7.584691686151053 -0.6149844791408183 0.08195879836199432 -0.0938735475217093
P 1.2909617676899272 7.666017247200449 4.956444436586483 -1.0505103284992552 -0.27960052681130554 0.5762590375461624
Ni 0.7299801164026006 3.8025614983813805 1.7945182567328704 -0.21098935340081082 0.4686015488664833 -0.2736427665659739
P 2.059447574054635 7.32292232129643 11.677007564029477 -0.44060686342577027 1.683888222545597 -0.5221038916599976
Ni 8.936034612141457 1.357864958130252 9.147121266151917 0.05439117315637084 -0.7363523754280544 -0.04004955972271812
P 3.3455985313314915 2.0859801995457325 12.113327947234689 -0.03609366039876365 -0.808434280995969 -1.2821029599727145
P 7.245839602358486 8.84709864169146 8.090231948537333 0.8056942563569867 -0.23259407615478003 1.7184027113826985
P 1.5534619001339132 0.8839763527715638 8.02758531924956 0.8776072404472047 -1.6317038272325575 -0.259024759542483
Ni 2.6573874074677724 -0.5154957132125669 3.7069150876270696 -0.22444033669939412 0.6384902755722424 -0.5575547762684397
Ni 0.5001477646304879 6.493450804220022 6.725448935280757 -0.12186643319020948 -0.9946572260853773 -2.845166560329055
Ni 1.5606049475343087 4.065281135482997 6.568563468855731 -0.4017706072848629 -0.38046901759360924 1.008912450452811
Ni 4.033169433277122 2.1265977072347937 4.409566874154661 0.24754684080987044 -1.567051895580127 0.324113521622016
Ni 0.8313720615703921 4.900148808726156 4.043616940377597 0.4994871827017462 -0.2405732377055147 -0.31875585685452845
Ni 6.821546245185949 1.0417142289503885 10.285826371884603 1.2170139407828653 -0.5824571959370742 -2.570050294541348
Ni 4.927065567368108 3.1957866024986115 0.640454227185223 0.6479920444150905 -0.5732336204562772 0.4398064790116619
Ni 1.5590226847938882 -0.14589834370787452 10.205509617657567 0.3962319368548208 -0.03626875252404722 -0.00803315471712165
Ni 3.4248945889005435 3.374710336549749 2.391593790556587 -0.779046057641839 0.5628021407103081 -0.013941292671440507
Ni 8.374532551894998 6.687831324579314 4.538100570238476 -0.6349665786897 0.15126211274350726 0.38540656410454266
Ni 2.690047871317724 7.996115668167255 1.2595790038679333 -0.47729470576510696 -0.1373617006123312 0.18906941339926792
Ni 0.5122260084166113 7.398422777493953 13.460963988319357 2.111516671433828 0.2077657042571906 -1.1531767917222462
Ni 2.66009463157855 5.732318403885939 5.450994832447391 -0.8024775491919017 1.3687437371914104 -0.1483217991682607
Ni 4.122004797425703 4.0211881373814515 6.623392988523632 -0.1631092418900804 1.7179543109913704 0.6485936825548314
Ni 6.310283313454693 1.0659146174541614 6.871732326742225 -1.0443425091256466 0.6112705206243408 -0.30791531459559873
Ni 7.070116977897794 8.327668307490866 2.9592465542304036 1.3264076954273607 -0.20552627340371055 -0.20138114088708542
Ni 5.780956977605919 5.046640729612373 1.9066805637684028 -0.32508308462413693 1.577647411707786 0.2934027228017205
Ni 5.144795895682854 7.662770407472996 1.5273179808073691 0.0856241630287235 0.09780373581405091 -0.6699127557475817
Ni 5.961755647274317 3.3848441349103613 5.457086086696639 1.9045408100677845 -2.128049636091845 0.548039894799469
Ni 7.278335437715215 5.782941665551995 9.943516175131613 1.2494561204719707 0.08311656611552137 0.37947348644955936
Ni 0.21061014598285369 2.1049764984581802 6.691233646772588 -0.1788348801554533 1.1582938012338375 1.0900045299391357
Ni 3.297563595419996 7.077881955161477 9.410052176486502 0.15792898324072155 0.8132507285480058 1.4603120336187108
Ni 7.776391505879031 1.8840084764433829 2.3343012457095225 1.906735760836574 -1.5711880292356877 1.9913209410778219
Ni 8.351365664487568 0.5997480030303697 12.228328266572838 -0.3591484017389621 -0.8057899013945864 -0.7662262801693512
Ni 7.373124865702026 6.720674708977291 7.74855099846955 1.2978401682023133 0.7071431008539498 -0.18218451335397656
P 4.1454277736003675 0.7955461576368589 2.4792730968416477 0.04281915204805529 0.03069640064259229 0.5324705796063023
Ni 7.623332737318698 4.376273505208541 3.552050893257726 0.8611061574683879 0.23893493077114336 -0.5630872760508948
P 2.5879873515469 3.618918414191185 4.70050109118647 -1.0683375864886635 0.36811332424173376 -0.2962077963506834
Ni 0.34818011713912744 5.838540366124344 10.905563932403199 -1.6391314871551963 2.085606893546602 -0.7788943625553231
P 5.9786575059118725 6.567140346992092 13.184660671321367 -0.6217781050238841 -0.7957998800614101 0.5879750404315099
P 5.150475578699045 2.5508910644073297 8.068788172692305 0.8517599403667976 0.7148697800742463 -0.6055899252997957
P 1.6393522434592842 5.832833245025949 1.3103769546573534 0.10715406668069934 -0.04984520565690125 0.6422623410201649
Ni 0.2961126977464106 0.26195960222457054 1.5691363618942176 -1.0705232812860723 -0.12293369811245926 -0.3635092498108191
Ni 5.1648439877464485 6.062901564305015 10.938895714664403 -0.04276207355787474 0.6532849173829136 0.3183272539575421
Ni 8.258999933762095 4.591324047494713 5.855617828488005 0.8119368948325888 -1.2879205950957562 1.1846051854348567
Ni 1.1215224640539116 2.16689510396481 11.250966401020559 1.257415998748996 -0.6972476961171089 0.4244845039426109
Ni 5.798169801175118 1.8957885597362247 11.879633228091018 -1.1508381162867407 1.587924368153762 2.4302928400033306
Ni 1.6211607949581486 5.211772254342389 9.09383102289565 -0.24383776738939944 -0.33931902571786077 -1.3872981031548302
Ni 1.9207389224869023 2.878565788112799 8.94553916381686 -0.23764243721196493 -0.24403239989870879 0.7201302571422372
Ni 5.965112239330585 8.498067944004015 11.8561133040259 2.1160040177812207 0.3959077207461827 1.7984648069426123
Ni 7.469020963004391 2.920911894980701 7.967602013141041 -0.004781480549043379 1.02300723798298 -0.6004909135103336
Ni 4.012846960391489 0.2396871962969863 11.193031805049925 -0.5553441417703661 0.2237404824188921 -1.6443734522804259
Ni 4.94767156710318 8.246561336496361 3.790658858321361 -0.4309320593401675 0.8654672626505611 -0.5081880529098538
Ni 4.062189778221366 7.539920967419074 12.632495790448868 -1.3807083657524544 -0.19932914345406316 0.2764496398871497
Ni 4.228455410349139 2.3633060424071846 9.960958563988584 -0.38349160647001695 -1.0535781687913017 0.5138262250322376
Ni 6.168336968186909 5.5038049092650905 6.157461427004053 0.4188460747099109 0.5325783088287602 -0.523294312423673
Ni 2.1514291716292546 1.443197393784145 1.4829295660207629 1.1412304179936472 0.1441309010153647 -1.2831332010094418
Ni 4.4846173458040415 4.690073705346277 4.187330298139307 0.5753241844367188 0.10178406061803762 -0.11706489803650806
Ni 3.721207584647042 4.55269122775173 9.823053848229424 0.39762316077539267 0.4830076969894843 -1.3550734387931695
Ni 5.942302046991806 2.9598465336279274 3.183544644822005 -1.6937406898596443 -0.5846650022216704 -1.7432197704263785
Ni 9.032077045882241 3.605885325144369 10.036456276377887 -0.7930505994510471 1.7531347155472452 -1.7467907756070882
Ni 6.364546694026456 3.5544755051218035 9.912673941529034 -0.4018788507279531 -0.5753118431415447 1.1331635818251131
Ni 6.5274465880705606 1.1035139361008017 4.520564891902012 0.05332622222696623 0.40159191561515356 -0.5352566269918717
Ni 6.565173951100819 4.460535855656485 12.139030113437753 0.702106823981623 1.5046057133297635 1.3059753957149378
Ni 1.4455204847440688 2.0974950480439376 3.4028892469730763 -1.090275267102019 0.6563599567638115 2.377953921390298
Ni 3.348214295168256 6.311627779482681 2.9693931570293777 -0.6810836847627366 0.13633094535497167 -0.6700706214816847
Ni 8.468306770840266 5.953789457407807 1.401006769382065 -1.2843706729609687 -1.635371763002448 0.3691654196553319
P 3.402203294917981 5.962340993027999 7.664231942651719 0.5542830474957035 -1.2965119363091928 -0.7049640909247602
Ni 2.2988814253926058 5.269566001491043 11.555541003318629 1.8358658732988902 -1.1407061700590615 0.8101152682428177
P 8.695009352035663 5.033863729332793 8.097005496430716 0.22736470943504067 -1.1831219160211108 0.6970911159345866
Ni 4.386763998637804 4.052348652737595 12.010335447271675 -0.91825869541998 -0.2288911733818961 -1.3275554358785588
P 8.36566090531576 2.4895120745173744 4.899579925821797 -1.0002205791057677 0.11992062231774829 -1.678700250586754
P 7.9237065692313635 2.9660658322607945 11.678720614961737 0.37127295291663803 -2.1079965740957114 0.7761898191399665
P 6.180665813123828 6.153593572016054 4.061206580275729 0.3264357419972894 0.9241840597654793 -0.9574137683528866
Ni 6.583749532752808 8.081951135328218 5.47517052667718 0.5900278091954806 -0.16863942767969023 0.7977986556589938
