# total energy = -381175.8306848082 ev
CRYSTAL
PRIMVEC
9.19923613444556 0.00000000000000 0.00000000000000

0.00000000000000 9.19923613444556 0.00000000000000

0.00000000000000 0.00000000000000 13.46401195580050

PRIMCOORD
 96 1
Ni 0.40837801158146053 4.199193732798089 7.246869398375202 0.3352021753360098 -0.7216765185834346 0.05831159125669957
Ni 8.849242030267034 2.215277261231446 5.569792529321105 -1.7423306829532057 1.0247450466096932 0.5088840505356139
Ni 1.4120827520297121 1.7714969091749944 3.7682407956564923 -0.2511859802243545 -0.33583492382400226 0.033220709726342786
Ni 0.4942446019118875 0.22696447469936323 5.895244946375551 0.7002070358557488 -2.8959486759779285 -0.5997265245404833
Ni 0.8212682485040975 5.072265639943913 13.398226599253412 0.0692709184816807 1.5709044365569977 0.6877618681138606
Ni 0.11716883124463867 7.983005155595204 8.004974771415382 1.1035652993427059 1.178119577710513 0.4032528482573442
Ni 6.1233243684986665 3.266317591313861 4.351810900698567 -0.054562151516596345 -0.6616906249481055 -0.49745626831464645
Ni 4.786574161461601 7.7398693436333454 4.990516627722988 -0.896860689360178 -0.8641066348576085 -1.5727417468760527
Ni 5.475771736049967 0.11339346472064522 6.7488494299393205 -0.06781567409239288 0.2800656393731822 -0.054373689654874095
Ni 0.4137190881015156 5.0490191701433975 2.434401226943481 -0.3435793436561115 -0.47530004393258135 0.5899339639300938
Ni 6.109111548616674 6.264192271963363 11.963420813961235 0.04651948371777795 0.2616084611092591 0.7363541752002674
Ni 7.839340684334957 8.736063827672757 0.9349974853449322 -0.6889628304004973 -0.5593162390442367 0.3588905200918851
Ni 4.69144486023203 8.980220754849437 9.67122689926874 0.6280744795555571 1.1716982475652014 -1.1309681168356909
Ni 8.504298271616491 0.6382724430008334 12.500486940318877 1.544651930618372 -0.39939876461857665 -0.36381161154258634
Ni 7.010130735245665 7.680911439022542 5.727361646051665 1.1788883375557373 0.849389383252092 1.7727298640703535
Ni 6.663466719431414 6.151897196041366 4.272521764229386 0.8809298770625346 -0.22964759193194642 1.5884948959452514
Ni 3.7549718174054982 5.524233312191286 13.109302509181115 -0.2456701926124479 0.009389925855332215 -0.20449397548445425
Ni 6.364666329407458 8.013978983778161 2.60430375960659 -0.34157439741094076 0.17612082365839993 1.6912341213877065
Ni 1.6738930134158074 3.4349855864830126 1.2837304093737214 1.7289159522091966 -0.9809733008403815 1.076127000626095
Ni 0.011695908865997237 7.376306330975585 13.069529611601958 -0.41685629797339174 0.8778412108348816 -0.46687273910083466
Ni 6.95553326857924 2.09450968879727 13.433919635591364 0.22740224754119545 0.8165239999826388 0.8276399073901424
Ni 7.616461590418502 3.475296639378089 8.501419830619032 0.5259759730208942 0.6310847271367905 -0.51207144712466
Ni 6.830653637577263 7.920855116033557 8.36160891939022 0.3598942787660512 0.67545168328794 0.8840033737815356
Ni 3.3570496576543762 0.8500379397008253 11.486686958098131 1.2807472172757686 -0.21401837003512172 -1.4022475253758107
P 9.051579229816829 5.69520111640283 11.549415629614845 0.7988150127386501 0.22654864129164856 -0.9182998330705604
Ni 3.52740111304256 0.551485009129832 5.024123277297678 -2.030724125465793 0.3572095328450364 0.8004551194452343
P 8.036581507046806 6.8293473460411835 2.706939637550534 1.7613123662620311 -0.23327387583062406 0.21600891810258926
Ni 7.588063548363024 4.299824177257067 12.153949873963763 -0.8103446106448045 -0.4717534642319037 0.29445661798753164
P 8.45417163372848 3.3413833584575903 1.302299987505625 -0.12947895543014476 -0.24543776488666766 -0.08389998124876519
P 2.574056671081028 1.0468454783890888 9.043480222293134 -1.1209436427201533 0.0653075629585585 1.4851869424835196
P 2.3645072703742867 7.852559986710635 5.340150156972778 -0.7844965392334489 0.720861735991623 0.3661654564867436
Ni 3.137693871190868 8.252883147102017 0.3036824246591482 -0.19901624019933467 -0.9353735007233955 -0.6048630744361002
Ni 2.820605399661799 5.95519912826352 1.925677027300683 -0.09678609318281395 -0.9020540606356594 -0.7047704868567153
Ni 5.0876375635832725 6.959534936313005 7.075095741075201 -1.209165391272724 -1.1392810075767605 1.5631422761130755
Ni 2.1928219257415145 1.2060474595397481 13.240697959162 -0.7821079843966143 1.53663805917496 1.8882387304736514
Ni 7.7283794976575475 1.190408758051471 2.7513710283259627 -1.4207137025007985 -0.05175964907079473 0.5025835622388829
Ni 2.6047453229427293 8.077113341609953 10.027969598230378 -1.3817586613938397 0.19564243863109532 -0.7631185877783051
Ni 2.6665273930575926 3.6751132482174205 12.174401615815963 -0.8236765518670203 -1.582785761375616 0.44445503352726684
Ni 0.3774943359129645 1.8857054262202642 8.541111774919896 0.7912850229101921 0.6750235946115859 -1.0392231856212104
Ni 2.803430425733203 9.030871749199116 7.391123540673919 -0.629840056096412 -2.5955317266419042 -0.9738467170979292
Ni 5.333422755561967 0.3329451949145652 1.2632501498893975 -0.24761883169838647 0.8853889412751526 -0.8713291207479767
Ni 7.260993905589967 8.717849340056999 10.865444141094416 -3.3636840201893747 -2.608562591683933 1.3343254076125406
Ni 4.96829587275538 5.741160500306026 3.0410623346948045 -2.1371300011265584 -0.6467759126198023 -0.6641141467879337
Ni 0.270703162991223 8.931657987110253 3.4097208042668927 -0.08557685473055583 -0.6186894387962313 0.4520670415465698
Ni 1.8399668239851388 2.0538306664554105 6.272802757018086 0.6959153504589305 -0.10462178717714885 0.7074169233406269
Ni 1.826250762856303 6.6028621515462556 11.901311251038736 1.9732689686721174 -0.4823818904800274 -1.1521072128071512
Ni 0.12073445518396582 8.064308004861905 10.400881794607278 1.3485204681660001 -0.6222504166746122 0.33591359958073763
Ni 0.558254727027022 3.6677814569902694 10.43724821503284 -0.08181635924685908 1.0807465016759774 0.015614052388173108
Ni 5.987451650274049 1.786454867186723 9.020510649501324 0.7148936913336462 -0.10269243136491993 -0.13989757966030744
Ni 6.016116470178444 4.5095575626872 9.929641722584645 -0.9603872491589137 -1.6848189618899823 0.836040986969644
Ni 0.9262526914421345 5.83473513062294 9.278172055374942 0.25107953655347726 0.7903226589969228 0.21614698634235036
Ni 4.540880961844602 3.953518931653428 7.995697341738367 1.7482437060035312 1.3478910621121172 -0.004083426040754258
Ni 7.776243123447844 2.2189845534077848 10.829091519523107 0.5069544376130689 0.9839521809630475 -0.001827540127042014
Ni 0.8455588316098595 7.172892820793949 1.955203815634167 0.13917329989977323 1.5649451336497693 -1.183621995585981
Ni 2.3635965459934987 4.035180551130742 8.671874317452316 -1.4601616240837758 0.1020959354315016 -0.6161471319903518
Ni 2.886048765772153 3.574492002994613 3.7990324789632934 1.8145784246750232 0.3289793343547495 -0.6078111013208306
P 6.755376288001634 5.784286519468992 7.979743106449472 -1.2628142869464314 -1.6702858012708135 0.1584941117155722
Ni 4.227840154230145 7.774863238022408 11.711307467421488 0.7486466194143753 -0.23244109551668357 1.136288757717656
P 5.085613731625966 3.5505187935367015 11.77531483276577 -0.21680056076594922 0.05793646730546797 0.12650033241779507
Ni 7.802976103756627 4.370934272847879 5.625371554486825 -0.24967340023457002 0.5367632934443853 -0.03727456808074226
P 3.278524977710887 6.642630449507327 8.518532249741675 -0.44222768685864483 -0.7059719633639842 0.011384330577541684
P 4.01555858038104 4.0689969432901 1.8153524277662079 -0.8035592122918548 -0.2976468427900551 0.08874188272209878
P 8.121352468349437 0.6427331526194602 9.495791026049634 1.0187692886422324 0.4763804214809537 -2.410167530008365
Ni 0.47461435184963213 1.0271499137500295 1.3064654016432085 -0.10794056713773668 0.8053111619859551 0.6590606435244263
Ni 1.8279066253668264 6.197562204387134 6.764628879740992 0.31440786429847783 0.9504417079104277 0.611778827719327
Ni 5.193704756618468 7.036173772841732 0.7794595599606146 0.6165222559415834 0.02861200730973782 -0.512081474426989
Ni 7.591936426790415 6.0577522130819395 0.6003458321209109 0.7725856467284758 0.8016419406644839 -0.21456215835373368
Ni 8.469617151257196 6.270705331171423 6.908842545400563 0.45125431583728737 -0.7195543300341092 0.061746070859545275
Ni 3.7092240159342036 2.655405516528577 9.8674374075296 1.191241974025084 -0.439634729320488 1.4081433220349555
Ni 6.262223635423076 2.4863235557317944 6.683172403230259 -0.2269618175696672 0.3344365008145789 -0.5206018531931743
Ni 2.791296633225534 4.120540263548226 6.301843825681816 1.2442033567134638 0.4144356043470411 -0.25210900625925614
Ni 2.8734366129836664 6.054624472784283 4.407807571186385 -0.13172018605583766 -0.4149318272571693 -0.027128995006308117
Ni 5.72421550728167 2.6162443681546974 2.1223456575227857 0.23420770049880307 -0.11965399891992295 0.6166631523948218
Ni 4.009873452428243 1.7743762700960715 7.625370130725118 0.28147357546430235 0.37142490511347004 -1.020653650149139
Ni 5.19970265860103 4.8247969877461845 5.795853639028616 -0.11085619812263489 0.44390661722296454 0.18840889699713356
Ni 0.09522773305658613 6.54435500950776 4.663247361525049 0.43066440750107765 0.34884059205505086 -0.5468193921288067
Ni 8.598535246937615 3.199126370331288 3.5216331919642365 -0.39633683786380125 0.15832441890692736 -0.5959423749077026
Ni 5.146687460555772 6.727318617684431 9.839675032693439 -0.11803446103862898 -0.25577771336009497 -1.5024657841686253
Ni 1.1396565721039278 1.3711645495474438 10.739366769543162 -0.26521597595485935 -0.6117410325028562 0.7308900667619026
Ni 3.5198485401473394 4.922272094198998 10.519459948833095 0.6478002401192585 1.7913186828161343 -0.30320453938349073
Ni 7.623968167132874 6.116710117692743 10.005632012963417 0.8192902498738664 0.8725892184073231 -0.08095632523940896
Ni 7.8042363991118595 0.624004427701823 7.326967147703688 -0.24417535323447626 0.7668258614265632 -0.3279843174313319
Ni 3.9601055847508437 7.958967551484106 2.652760736129824 0.031043499569365893 0.1735569195859656 1.1088607434136903
Ni 0.40104714027792654 2.9627060007732187 12.878071428746303 -1.3450358520515093 -2.2136874259673234 -0.9574633906438995
Ni 4.360723120699651 2.46629681859063 0.19922141825915995 -0.032031060293615805 0.6468661583407633 -1.7660092575170683
Ni 1.025107683320384 4.270469414639955 4.826605557577123 -1.2320165848392848 0.37014115330503994 0.4848810027527971
Ni 5.438514829563189 0.6773894350410988 3.9662828718387133 1.669109007353893 0.8201320290488714 -0.9704322920997416
Ni 5.822214970196148 4.643526039024716 0.6962267109455369 -1.2850142200822385 -1.0929638696777757 -2.071733477998619
P 6.115035856709881 8.670500871492198 12.852597823869132 0.01633190439080413 -0.2503737687357043 0.07752904472541487
Ni 5.735788146382995 1.2413817256670845 11.387713296073295 -1.3239931724485972 0.5531846722252022 1.1049567803735938
P 4.216451499852211 2.598646229362301 5.466483267289547 0.4998995876488165 0.5338036965954291 -0.014788214052768079
Ni 3.3254134844672087 1.7475604966617613 2.19054051517146 -0.02185334842966559 -0.877983907060333 0.5846732297517866
P 2.270721057625473 9.00739529849436 2.0559142934478194 -2.0218142245706727 1.2920860393273554 0.6303036259963919
P 7.4054587103969665 0.3849907934675509 5.00878723067938 0.8548069547232375 1.6604873271231533 -0.5554809244585466
P 1.4591184465647473 8.737554103932228 12.16811393789406 0.026752585503495862 0.18817698349198558 -0.5939073467555449
Ni 7.026128206944556 4.879412852884949 2.5397435201685146 1.6196047299761784 -2.513515335569097 -0.048869729117509385
