# total energy = -340860.6695877252 ev
CRYSTAL
PRIMVEC
9.42140677072121 0.00000000000000 0.00000000000000

0.00000000000000 9.42140677072121 0.00000000000000

0.00000000000000 0.00000000000000 13.78918113934391

PRIMCOORD
 96 1
Ni 6.365413466904685 4.668608647123826 11.839846359322209 -0.6030478756042323 0.7094390959769782 -0.823594276565859
Ni 8.712267104573394 6.061290449361605 6.398414771299043 1.7278216907037534 -0.08708017874895971 -0.8262821078106672
Ni 8.465887890454155 3.8693624281885093 12.4202050297266 1.5386347778900147 -2.2854849675255995 -1.0604203885241157
Ni 6.639680045705695 5.2823944695183895 6.8410748678837034 -0.02106376264883469 -0.25053266291107174 1.5192705144307899
Ni 1.6459574862715647 2.168544089031153 9.356428485235016 0.6395549693913308 -0.7235423681475798 -0.7865457084529938
Ni 1.8138186945604444 4.3179250362505766 12.425886138139811 0.22018156142304018 1.5082646502385895 -2.055803179921608
Ni 0.27388218539593623 7.936951259385271 3.0225889795661467 1.0557888032893752 -1.3608357951982435 1.5727258060364528
Ni 0.09046717631207897 3.7388759414173927 2.956662684174025 0.251490913059283 -1.490802488898084 -0.4486721569324079
Ni 7.036179958757134 4.838853471380439 2.7365324520615006 0.6333732660606511 -1.6165428032214029 -0.4219141721122734
Ni 2.851916423432321 0.8144175106066189 2.7320780108380074 0.4958958658060621 1.1017084486396254 0.07443806450491695
Ni 5.766475781921765 6.635713633364132 0.3714710032495522 -0.603292901735503 0.0273375114726884 -0.5026496395901279
Ni 2.2844556591932506 2.259441823642542 4.9164086094167185 -0.8287933042682952 -2.2133724658300653 -0.5533749338591374
Ni 3.405471190958455 4.088070969986683 4.373694112769924 0.1649007865728644 1.5037783323324618 0.049751360391514315
Ni 7.45078781603775 7.819852591942801 5.25245135383204 -0.9656873212155884 -0.6074904847566183 -1.6875947248629066
Ni 2.637786685429871 1.255006781935517 7.154102999310974 0.6864868580561789 0.1881456160334179 0.26322465655644345
Ni 6.976749723482607 6.392226791189927 9.802080820678773 0.5731210061378129 0.9989319422013313 -0.489633429836118
Ni 0.4662249197407545 0.28552798657267103 12.238381296282862 -1.009182930505378 -2.3234768733883406 -2.634396522027902
Ni 0.933261022623097 7.051320159785378 0.7485609336262014 -0.6746808665601864 2.971919375077288 0.7248045226894549
Ni 1.0974808571114687 8.955480725944973 7.843658603117766 -1.0013145835008948 0.1435583163413463 2.0507627892842226
Ni 8.599474020124022 3.8306969739135153 7.488118256942673 0.8200489824167619 0.23871638700243406 -0.09292609600677544
Ni 9.263664369899487 1.8073273451463434 4.723125618654589 -0.7160470882117991 0.13773888144609184 1.9067439883666901
Ni 4.279448010115325 8.590665004591097 12.340545149369404 2.098588907628567 0.08255452296446426 -0.9185572004970051
Ni 1.8263397444462794 2.900559147706637 0.23792821205182532 -0.4781663097367829 -1.5974742166257263 2.2993941214075235
Ni 4.334271177373168 6.818451243285617 5.614913607720541 0.1251049947321652 -0.3212961067778789 -0.04632716520131376
P 1.091130828802174 3.9011502553629316 10.466622588934857 -2.8342470852030734 0.8505252966287481 -0.12072872004134048
P 0.8350343755164553 2.5477180346333452 6.668199586796296 1.54487587370372 0.414229658983822 -0.1762594061187932
P 8.526740758183731 8.508284221896034 1.4241464751525443 0.028470596635867092 1.0710837817752328 -2.0975242138094776
P 9.146311324468366 3.0737528723502066 0.9638061662159227 -0.9080277617205911 1.0332348292482592 -0.4667796651663961
P 8.995088320918676 5.511871679502802 3.8761665683145816 -0.4749606583152917 2.0864340174335876 0.4991537106217274
P 4.489941085020761 1.1514466763334872 11.322062789844637 1.9617972205870926 -0.01879142167489022 0.1765892786543862
P 6.657034277375904 1.8583913710163402 5.066765785664295 2.5054006768817625 0.2872004506457505 -2.496901638271816
P 4.507116309958215 8.88211622973655 7.320538748722708 -2.0017974151291136 0.743227505281333 -0.034328598078540884
Ni 2.5544354978151365 8.118115494339913 6.297450263321956 0.7355504483520494 1.812244120114892 -0.24367964454498037
Ni 4.152513393778339 5.6821259251664005 2.8060153285912466 1.445208345208053 0.9404794544913933 -0.4495345049327032
Ni 7.5797574562839465 9.329538847553179 3.164354774782201 -0.24237763790410516 1.1597670433452543 0.5446552945979523
Ni 0.283075594333933 8.595102487282015 5.798654597486151 -1.2585711953993615 -0.06514146969433943 -1.0730393628397068
Ni 5.185410505993346 0.34031629462466195 3.0299244870462907 0.2151727953545391 -0.22682092111642874 0.7938229588406974
Ni 8.841199059191641 1.1303521460894055 0.05719359325579357 -1.860503469341912 0.7480395819579956 2.7523222254028084
Ni 3.389643227220154 4.638120974113622 0.6406245844786708 0.8665998335931074 1.0852958116095566 0.35261651415771533
Ni 2.497690363531928 0.8544971180703739 11.38145251306912 -0.3507720047498088 1.0285520790606093 0.4629140115634028
Ni 7.84418808619044 3.9128045358059547 5.162117961499177 0.12238862424226665 -0.12337772762841333 -0.5433206349469288
Ni 4.280625685988711 2.16952391535781 0.8999742495970295 0.001382225059507297 -0.37239035435053286 0.061232107337604216
Ni 3.8079913830746426 2.9964125423932324 12.51526796836698 0.03624201305116984 0.24164153106902897 -0.17917066622831723
Ni 1.6110323305704435 4.254613181297371 8.321771454194822 0.17177128844045259 -0.16181931943406325 -0.8371954122890615
Ni 5.92149561248725 2.086775697790249 12.873014808058445 1.7922643345588551 -0.7981249286501609 -0.27821290243515956
Ni 0.5240092352146383 1.0342537948211463 2.7488735530738824 -1.3184768706160583 0.19444044790319415 -2.177233039795031
Ni 6.615250337388185 9.04199750630737 12.918642682096893 0.7010958662186054 0.5333691801611717 1.3286725802021375
Ni 4.092696880817341 8.818012976596428 1.0649760608653294 0.4805782616123852 0.9156125160463845 -0.7865495651077358
Ni 5.43054609439029 2.7355903113627917 10.069894677834329 0.5501728819820718 0.6349472954159903 0.3303911271006116
Ni 7.805390732217627 7.953956898996958 7.494310005614586 0.1306333807495621 -1.238535616904725 0.30150349753198397
Ni 8.84298912651919 5.6015540526128555 10.7270038981183 0.9875039028700476 -1.4382134019474584 0.6345423466680878
Ni 1.7132828606012687 6.161684962215975 10.268362268861452 0.4360979198118231 -0.16571479783372753 0.4376601220926204
Ni 5.934233354733787 5.396402915469096 4.637219345464958 -0.23910076692504628 -0.3874235945345715 -0.12827825025382422
Ni 4.006594642362378 0.6694729326731227 9.206002532716434 0.07152577595412841 0.2990079848036399 -0.2818854661907404
Ni 2.0836101050425886 6.5109270978202005 7.876656138949329 -0.9309771714279127 1.2225706089350363 0.9374702353514242
Ni 7.884097166187728 2.12454611840147 9.42049311060649 -1.3918687532446483 1.1163429107233482 2.3047816109716823
P 4.254839295065061 2.971982834075723 8.303334702861797 -1.0896270919950588 -0.5276016815497753 -0.26882297657982734
P 2.6987620314502796 5.450396998912077 6.263901575181647 0.8717618374100212 -2.1642816218406855 -1.1307040645410267
P 7.091747417166958 4.106744198635083 8.988174892471553 -1.188235325988276 1.435191070181367 0.6485034368338702
P 3.0138892523542737 7.032147596566662 1.0941249519426692 0.8063524587662758 -1.925370345218626 -0.23751928137053932
P 3.0132391752721643 3.071538841708242 2.406170816059392 -0.9569193452149714 0.6827446174049274 0.4233786724729418
P 5.5875161562021 4.0768500742650655 -0.0061710215765401755 -2.239420054846737 0.1503640264092701 0.09366888771007094
P 1.5218775562516653 9.318789022180916 4.2473850778568805 1.0605741404931606 0.16623493200325565 0.45623377132974974
P 7.359079840425472 0.16278401206354018 8.583958847097692 -1.1931831569118547 0.8523407525709321 1.7506044929262237
Ni 1.506388763164899 6.579025027522846 4.95326703783159 -0.836344634252992 0.6453813462651208 -1.6468504530660089
Ni 8.7237894853186 8.03822196308944 10.461576483352575 1.503262826148624 -1.2930915977737343 -0.03473251838517889
Ni 1.0199897846427008 4.306883147261714 5.154299135840596 -0.34937409596101765 -0.8268222965848535 0.9329029276957159
Ni 4.6110155862117805 4.29859230911308 6.507431755827992 -0.8272485854889946 -0.049303474220818315 0.571205791392971
Ni 4.710825971832952 2.1851257653284213 5.375463838440302 -1.630820653296656 0.8832420701354788 0.4693615669609594
Ni 0.4932549363866991 5.105093011428452 0.18901226697488396 -1.3568840096393469 -1.9266944633466883 0.5585485076402767
Ni 5.302273638261139 6.980348700951673 7.847836997116537 0.2482387246705725 0.2268389188385577 0.37363656805280815
Ni 1.9777700189496843 8.585850665620699 10.01643384602682 0.5500304428669366 -1.1587673984361462 -0.4360534397271329
Ni 5.107137456744649 3.1225651819502898 2.977442539424738 0.9005620494711652 0.22145580014977342 0.768654944215502
Ni 0.12028404514480318 0.6879991873725251 9.987255748587817 -0.45145820431797734 -0.17388756345250697 -0.4051132985048507
Ni 6.238827442626222 0.23699926132289884 6.428075244775782 1.8180093047334431 -1.257490046520041 0.5481993031954688
Ni 5.080616196076008 5.428030578724739 9.6922780908071 -2.1729171860284966 -1.6582134434873117 0.2110623727305913
Ni 3.0880828323775615 3.806597014840554 10.550281856558067 2.997554044926257 0.42102508463910077 -1.94797162755791
Ni 7.508559883682551 2.402308039194687 3.0576818363116383 -0.488495716687249 -0.8766014248905096 -0.3257484861222777
Ni 1.740520148200929 5.443481686183556 2.446614089832848 0.03791760098137986 0.1710722054908989 0.7663581777615254
Ni 6.658136581993392 2.3728190353251137 7.105840899878936 -1.073149920275642 2.164344613868137 1.180527415821057
Ni 8.724637411947436 1.36547277885908 7.5318580810209115 1.8026423353590695 -1.408341811199007 -2.119274461002376
Ni 2.9579260948509933 7.877737716471447 3.1441128818704507 0.2491859190751902 -0.43139485790919896 0.9440514881133678
Ni 4.361206979949242 -0.07300836702431318 5.1281829956723985 -1.5623038393721802 -1.1857274719647577 -0.31122818101891564
Ni 7.461377477491233 4.89371432426623 0.3012636205224991 0.3732689003007443 0.5270730627398149 1.7312011486989474
Ni 4.0684367578256 5.639183152119271 12.20856913815363 0.2641487110326096 0.3819903393341421 -0.20874786566480177
Ni 7.437899331279419 7.035727731221755 2.585153995296525 -0.7058575492733069 0.13832046498117467 0.45085116686159776
Ni 2.1989187051575128 8.065666521642816 12.633647947159691 -1.6098479076997307 -0.7783875981222336 0.5442598589317466
Ni 6.568633215616092 8.765036405108054 10.511245198847783 -1.2192914239631323 1.0850453861616474 -0.34160653620045683
P 1.8990635849795827 0.8197537955241033 13.639499968477574 1.2551613983868641 -0.8731224652029737 0.3246279993645893
P 6.0034430104609084 0.8778546702727532 1.2232745410623187 0.7869234035073867 0.1312458175225804 -1.6067965224679166
P 0.008526373323311236 6.81346731898945 8.38397440954565 -0.22610075512095254 0.13546731180309574 1.3281650444380997
P 3.60382007225754 7.106237541113092 9.25473287607573 0.14126180699768576 0.024641452697764014 1.266563983796851
P 7.833174461422538 1.5265976811521946 11.79883685898883 0.5807615534022063 -0.2897129326549591 -0.43863174197727034
P 0.1902210334913269 6.978398469705347 12.417902437858958 0.6405157906427034 -0.17782880748844213 -0.8238524153232523
P 5.4703515389107205 7.406460096163519 3.8595095207614167 0.1794113214842136 0.9284086393697881 -0.8355691895395481
P 6.175666330184808 7.0697295890381415 11.926346181152027 -0.9928327712821289 -0.5458405731553051 0.1165257377035864
