# total energy = -340859.78821209027 ev
CRYSTAL
PRIMVEC
9.39331490457649 0.00000000000000 0.00000000000000
0.00000000000000 9.39331490457649 0.00000000000000
0.00000000000000 0.00000000000000 13.74806585366856
PRIMCOORD
 96 1
Ni 9.519655173705615 2.2924009734295336 13.421741586813537 -1.0577356426031008 1.4534520732740839 -2.5152179200825007
Ni 1.6784538994215419 1.419254762943933 6.837270998527349 -1.50295095133516 1.232833167203309 -1.1715599222151243
Ni 0.09536281341407483 3.451423335236419 6.105818249453522 0.7569559106110189 -1.481752462880674 3.54728521138522
Ni 1.6034670650915877 5.087832756333913 10.274603421803558 -1.2006928350253385 -1.2084544812486284 -0.5609434902350146
Ni 8.95939089541298 1.2603104783770844 5.41089516341687 -0.27299022058363953 -1.2601210563849845 0.11842089784377025
Ni 0.4572844256754841 9.206256609182931 3.45824382132022 0.20511361134632414 0.04045810801504645 1.1910743380989681
Ni 3.105401787420746 3.073069996895417 4.823605378290875 -0.5799125751383496 -0.17294036904788926 -0.4125864669534442
Ni 2.3020854812829947 1.094631186893716 2.900223606001582 0.744519227509563 2.1023046659172566 0.151229716843675
Ni 7.764392136827474 6.099239171567428 4.943996679751068 -1.5628304012996117 0.08442062963892558 -0.9027765406239806
Ni 6.714670389358975 3.504504958786284 0.9267444663651843 2.887499259658995 -0.9017393576087179 1.685521901494278
Ni 6.052563788906079 6.6280358443226275 9.387825632465441 -0.2465384541500141 0.172455973212303 -0.20557023926776855
Ni 9.68610471702602 6.828498581568718 5.878109262469555 -0.9154006571458944 1.196520963035836 -0.5389908972233233
Ni 4.209416896085178 7.18029701816216 5.093919624509512 -1.0576672512590106 0.12180318405244185 -0.7377754810278262
Ni 4.470025029825657 3.8504983266566994 1.6882079178066383 -1.5049566689112792 -1.4774173258404297 0.3001909493681475
Ni 1.296399594936734 0.6569243085200596 9.29630468492146 -1.6991168665698932 0.12288510426271095 -0.5491063883907704
Ni 0.04214686545848313 5.710111700823011 12.010324605977196 1.6665024229689815 2.15282915702937 1.6475891310042465
Ni 1.7967157363517838 6.372340414372022 7.615287349813002 -0.39969752680591814 -2.702529727360713 0.6833670814802748
Ni 7.8750547818533025 8.57660391235148 2.691320975150898 -1.5788756276879325 -0.5154203089922349 -0.6112738630584506
Ni 5.363028708402642 8.33655774533382 1.215695989045561 -1.6844952600019762 -0.5703727539687145 1.0414608167024775
Ni 8.144539598349864 3.9388800282990064 12.812400055192112 -1.1561885819653765 0.4664109689730677 -0.3200637770326746
Ni 5.417106023351602 1.3003072140124274 0.33521923546700116 -0.7189218386564328 0.3800260165189197 -0.6726540659381448
Ni 9.088098098718634 3.9298342658713796 1.5741815266485841 -1.6883881672984793 -2.14776588357385 1.603453831247929
Ni 1.9201345032641308 3.589627180093818 0.6993060068556878 -0.0987262476283203 0.661571582871738 2.885296081360089
Ni 4.756173587284431 2.6863378214978804 8.109709186011711 0.2072198590560496 -0.10651154800069398 0.05794880860064213
P 2.2288551968740857 8.167656546776021 4.217755341886844 -0.12171345255211297 -1.2119403829146997 0.47483981646671125
P 8.357645737701445 8.641680799265913 5.007980184789514 -0.27581046364125406 -1.54381195121558 -0.1309974489572002
P 4.65339193361559 4.596440264250375 10.239449879426452 -0.5392930018447744 0.0160753082953078 -0.3080181587220502
P 4.816741682957679 8.412427551281839 12.25362367800907 -0.02355953248749491 0.5022266931200964 -0.24791322301035368
P 7.884222657377045 5.324779129373257 2.8384390760247227 -0.9671410229429795 -0.7155156411883613 -0.950450706771492
P 8.698820334932844 4.602771358618205 8.304203410852285 -1.2621041482532844 1.5635613659283654 0.6988181259280224
P 2.8995191073701467 7.238253772241555 9.115462704226589 -0.8468601890723351 -0.18366881120898693 1.0758300382109667
P 3.2394162137498776 1.1810778656283478 9.683505586741779 2.3522200069593038 0.6575894582955385 -1.0387542164045915
Ni 3.3227161319307656 3.008566102201218 10.835482962234313 -0.5935921295079712 0.37099373111332234 -0.22270458495521
Ni 6.4052358038024995 4.382319646869528 9.176709936580542 -0.14410261888059053 -1.6847767957981372 -1.6734336028711763
Ni 4.475764345343082 5.025883843343052 3.892008325352365 -0.35166726287056854 -0.03742266362283232 0.06268452351341462
Ni 7.27352567038874 4.149910245016625 6.724508947579844 -1.5195538499991637 -0.5437806053024828 -0.34808365928436824
Ni 3.000224838405026 5.936349694664542 1.7162676286309446 -1.0637887907757164 -0.31604514279158474 0.04644903549115871
Ni 2.0696572927999206 5.777320870261921 5.0667400673087455 1.2511054831499355 -0.9015249276050668 -0.633724992973115
Ni 7.662850400749958 6.433631795306877 7.30015477932548 0.4063751959364098 0.195001976833619 1.1052915380051933
Ni 7.1183856784316415 8.625186137975245 13.7673131948366 0.932907041460774 0.155820421538151 -1.0595279586168334
Ni 4.232693530867794 4.829742031036428 7.07986932925382 0.5053346426214588 0.13573624919376623 -1.3510360354990023
Ni 0.769269296277755 3.2336017517117663 8.666079935201282 0.09714116252938754 -1.495299348327173 -0.38364715821127476
Ni 6.036679693095989 1.00391994311013 9.163924695417258 -0.5751737749017836 -0.12878270069406852 -0.05095437956067999
Ni 6.989593935290215 1.014806795294574 6.9836329375367665 0.29045598146857077 -0.15201775996260916 -0.14383522415181682
Ni 9.556946634596247 2.9112607512273994 11.038390779397238 1.288780629103206 3.5409227595023016 -0.6765644567361445
Ni 5.412230892822071 2.408577494410727 5.285141218374192 0.6573593445626034 0.06282927662139501 0.6491423559694498
Ni 0.4402186508275998 2.456990640362949 3.686475076622958 0.7115288886264713 0.2303603017282549 -0.9094963758463175
Ni 3.2135564173186655 0.5443501238742704 5.059948700501711 0.6586443819226141 -0.07116067930522584 -0.06915264773626154
Ni -0.0874865187146302 8.784196175747695 7.325175752719529 0.11180827762325905 -1.7222642512206339 -0.5327971097077856
Ni 0.7075777601202445 7.3879550347639755 9.720473917593457 0.4970904003347955 -0.04260935003009436 -1.4890739362427514
Ni 7.38114488132677 1.5713043542378033 3.144168938111358 0.6580651123803763 -1.4842610882351406 -0.7374288963216848
Ni 4.387899276030494 7.284074363230095 7.567403047500112 0.5163816444642397 0.24964408965853138 -0.5102269377167534
Ni -0.04575014112539661 4.589780403854541 4.426354568660257 0.51602631800735 1.582709656722042 -2.9083779028802166
Ni 5.427786222604158 5.752174965777231 0.7448072251313106 -0.5333100447884621 0.8365554647122174 -0.03449314868086318
Ni 3.1879878136551136 7.9605339491340965 13.649134958410622 0.47357277682882953 -0.13469623796502608 -0.7147198847599433
Ni 0.6266186560587379 5.597297986642533 0.7626874003971338 1.7840512026204436 2.804997187199021 -1.5528812605067
P 9.083082068462815 1.4326684168864574 7.622120047206415 0.21264488672636278 1.7398693658969067 1.0464186749283848
P 7.617396149049766 2.9175730589650577 4.83215611301348 0.3476198322740723 0.10187559189057939 0.9569473702394294
P 5.325051535510746 3.7649721928004762 13.36654364937484 -2.405966347442824 0.5336517443985971 -2.972793807262441
P 3.2610959849679073 1.323912614823047 0.978913059688709 -0.11874202862861487 -1.9418891688092554 1.7023412870444619
P 4.587328748617147 6.838436708929496 2.713015775673065 1.321151332124428 1.5656115635891745 0.027086828914463026
P 2.548960588368032 4.0920004575126585 2.9899156750983584 -1.0469480650692937 0.33724594523891593 -0.49674432984928635
P 7.528892334311342 1.2603198716921702 0.7949712850155254 0.7225118700005363 0.4748889245370918 0.6981786925718105
P -0.42807309442165836 1.089323963870238 11.251912103275611 -0.6025053728372011 -1.5033803255630946 0.8519041792541457
Ni 3.547657848290456 0.7009038097517825 7.463453804766106 2.0243822424081652 -1.52442146250411 2.140521029085978
Ni 7.70844555217644 6.032866007171153 0.36286470109602376 0.23185642665780712 0.02206340755794265 0.9436329125187104
Ni 2.4645240790617615 6.828122848965287 11.29824369060482 1.090746807421799 1.3894737706499103 0.9840226291896667
Ni 5.611012226667804 8.847018667041535 3.5897023266145047 -0.7831947897028899 0.610399173762981 0.16203889164403706
Ni 6.631558337479803 2.5229880721557905 11.044164850180481 1.6632777453840968 1.5227479314564292 -0.06518389289650064
Ni 6.384842916751225 7.824631466472719 5.608166052196806 0.2058353200036971 1.018951836966684 1.2808415767617878
Ni 5.707725798791217 6.009655125594137 11.63085064514646 -0.6472739353021434 -0.05684709089603112 0.8543256442114447
Ni 8.29120682009957 0.3356278446732335 9.356714033569759 -0.7815863075651894 -0.3786057391326254 -0.12666205480663992
Ni 9.004591527605857 8.400441681232357 11.413712894960053 0.7262044883607751 0.0666386230651562 1.1601555370329246
Ni 2.4546235249613266 0.08966670714604476 11.330660960297429 0.29397864990984857 -0.8241792025350516 1.465382763273399
Ni 3.1770539948952408 5.3011925151928105 13.143742669523206 1.7993232982881655 0.29960473784737435 -0.004982797926572064
Ni 6.5519218121823775 8.609489908466871 10.870994389916186 0.24705807409891 -0.3875979153289067 0.6904869803545077
Ni 7.995289214951563 5.108657735879135 10.56298289159521 -0.6657758507610728 -0.3671663869474322 -1.475916058704555
Ni 2.270552122539959 8.144182652376603 6.466925461296992 0.04181256516041186 1.4473531594651976 -1.0245355017020485
Ni 0.1505410248910905 6.531049866061726 2.9993465634445036 1.2950199251446988 1.5007421166092991 -0.03241106934085386
Ni 4.968105562250286 1.180317007106398 11.286240912588182 -2.0879859353017394 -1.4234753244063356 0.8544364587576961
Ni 1.3205685946525014 0.5232208009202683 13.546629468205303 2.0361041588307836 -2.599662975201458 -0.2691929583247364
Ni 9.345953991138973 8.00961402045741 0.8460934630384919 0.12755834136866417 0.16704071573400264 0.5600040091398807
Ni 4.421330084420862 8.598142783843223 9.654771435894311 -0.17690115346785018 0.5110229512554876 0.6136824724999431
Ni 2.890999370587325 4.135115773756488 8.66877393796789 0.5928251694349597 0.0301487556692384 0.987636314682854
Ni 2.9624731050751896 2.2852432673341525 13.043697288538858 1.1925612070571396 0.03506239092077187 -3.259952091816347
Ni 9.55262570965678 1.3191408107594598 1.5775217894930953 -0.5834447566613242 -0.750369772753069 2.3290435688428404
Ni 2.2114963505955245 8.452133094149524 2.0207322111755226 0.13276379682900363 -1.7187174144096402 -0.7299269315176848
Ni 6.377431591148527 3.643253615918659 3.2094862938919877 -0.43404155150342666 1.1335618457047962 0.5225111544007452
P 2.19239974102609 3.6046189109707574 6.67615685817568 0.6219673382165546 1.0198897753999208 0.8580398598382385
P 1.603889764270449 4.226202750143505 12.371981326753186 -0.9204991547147244 -1.5528198111411449 -0.7374777472817493
P 7.552159575778872 7.039397291875136 12.218428805045589 -0.1339267067888532 -0.8690688639588904 -0.3133079463660798
P 6.924441901855096 8.221790221615496 8.336400876971886 -0.02821862852606108 1.3243963214242869 0.09534601830217773
P 5.160180069124757 0.26714212371416274 6.134799444487746 -0.04368098582771832 -0.48466580141819754 -0.5497818171912402
P 5.685482428668038 5.411686080547094 5.691066754486548 0.9549791907694649 1.3863249406082834 -0.3718612213199402
P 1.1636156928838428 7.674855057429613 12.88111309437626 0.2116660677528613 -0.04294796431643571 -0.11529366506869822
P 4.40683619924347 1.6684781988004205 3.4769956962260054 0.9339395964903464 0.008857450390629906 -0.38804220195517686
