# total energy = -340866.1095241832 ev
CRYSTAL
PRIMVEC
9.26703424439939 0.00000000000000 0.00000000000000
0.00000000000000 9.26703424439939 0.00000000000000
0.00000000000000 0.00000000000000 13.56324134285669
PRIMCOORD
 96 1
Ni 3.1901302410236805 7.398031063990186 1.8607408016891522 0.5808314874081932 0.9856277688932573 0.6680847013999075
Ni 2.1624531993569542 2.3631308282821903 8.56235238060627 -0.8901781351336798 -1.1346787329180588 0.9356146701999241
Ni 7.080922415447464 8.96150949790809 10.27680007117719 1.122352607252538 1.6359091235631569 0.3524897587718639
Ni 4.164568170329497 1.3962547990088363 12.868979554057884 0.7503944553434173 -0.5045160033749053 0.13725011473513135
Ni 7.717660345877062 5.920773117697327 0.7124014125191279 -0.3540609599137257 2.038383184672947 -0.2975928496236681
Ni 5.534532392877429 2.704639578277701 0.8612892932563438 -0.2730521841698265 -1.636462939184098 1.3104411447957753
Ni 7.560287568485774 1.4291620379981465 6.110254315716653 1.411319662880408 -2.476815151934586 0.083017835754128
Ni 2.2712018474953815 1.2253150833240107 5.790188556511727 1.3154763932268376 1.0387565303974367 1.495898672474069
Ni 3.9367195966797732 3.9933226425110058 9.86705444042305 -0.2651609543472079 -1.3366383720164334 -1.614332940054278
Ni 3.759089082191714 3.116346113501042 7.177802772689351 -0.6587505684831751 0.2983847493973442 -1.2020799451808521
Ni 2.3463111609305716 8.257668971724733 11.607869623840008 0.47996273951557333 0.6611879742800741 1.2548184132251485
Ni 9.064382846266392 0.37728969633784426 11.845144624834122 -0.0729059441311067 -1.712447522240528 -0.8102857323824109
Ni 6.471883650700503 8.812449250331898 4.413288885453629 -0.22446939016511666 -1.7747800617311627 1.520266302685156
Ni 1.5320631874595096 8.399778943535793 5.46555229596365 -2.208692800966209 -1.0933173963624525 -1.3847349704133443
Ni 9.50528980673764 2.56735773136482 10.691442402883723 -0.9300636584747078 -0.14081392082698974 -1.454827613465372
Ni 7.717669612911415 4.292703454335465 6.358014039378326 0.38145452143533015 0.09290167052674322 -0.2304891139966353
Ni 1.3496972184168075 4.336202913590836 9.58794989976407 1.3197984176409594 0.924691338419201 0.15398182566751545
Ni 5.635283590368777 5.4350229779894494 10.02033304203696 1.2192176333024034 0.18679475843247828 -0.6905921384738042
Ni 1.9084437877272749 5.743559619755176 5.989418674670945 -1.1718430006731817 0.916629644456989 -0.2917425614904782
Ni 5.081782162502396 4.468953180704852 12.32288341334339 -0.023856237792307302 0.42147091392726765 -1.3552711566262725
Ni 3.460162355050577 3.6074155309278337 0.382483869092986 -2.088900219585893 -0.016045740608953012 0.1803469459246055
Ni 6.972386909099167 6.790808637976513 11.414199726292898 -1.7789061680843945 -1.3306438449958953 0.9617748735350596
Ni 4.347008275647028 1.3567586985941813 10.000421892025011 -1.094891682828108 0.71592084704658 0.14784691641437117
Ni 8.637255965878813 5.4281931736709135 10.296168172976023 -0.38042119507480937 -0.3540193080425129 -0.6129191119713573
P 8.809956418090804 7.500088913325379 10.871277544844482 1.3502171391421327 0.9546968836423558 0.4301859252027624
P 1.425603496806399 4.1760500258934945 7.283542414773194 0.05402556228683599 -2.350187292799991 0.9452035994399398
P 5.847220666033527 2.5874949970149945 5.693089497259097 -1.034996292024056 0.5943675742214152 0.2323382513902321
P 8.618082471801403 2.5600553082942548 2.2654952077404906 -0.044215518174949654 0.2181668449858565 -0.6440204613618522
P 0.09846594681977375 1.104649029006971 4.790984477896157 0.6855381209896646 -2.5089701394005757 -0.8347765184349235
P 9.404093791597324 6.033877271981904 4.205256011362013 0.28383359105604666 -0.639839333400969 -0.7037692992857105
P 1.8784834656623803 8.934292218011834 0.3388833991631619 -0.810767557114836 -1.8738194697245276 -1.1300137233422216
P 8.020961113233055 1.4913531055445448 9.231847424068652 -0.1934279474782798 -1.4539894338347927 0.7951450200862307
Ni 3.435539844773303 -0.016524048955741766 3.8517028968172466 0.6474888795264268 -1.4251889646633327 0.8052196307134133
Ni 3.4749062067070096 6.00742915593699 -0.07953432233899035 -2.330758237541102 -0.4371410163643568 -1.199131918296122
Ni 2.926075364154797 0.9157498007450451 1.5828845305575878 1.5864151305980874 0.9492152917024944 0.12197647640551251
Ni 1.500388464039216 6.873609589925115 9.996665036298099 -2.4063391574012107 -1.0423727869937853 -0.49694127635144086
Ni 5.383405596640405 6.788204601323177 7.956875863864799 -1.5604485313309964 -1.2367461291044701 0.17226828268152913
Ni 7.571528481156579 3.947932708247519 11.726357925083974 0.17111745690653754 1.1571578878571813 -0.37449223118488406
Ni 5.196693388485908 5.178937750664584 1.1679845752960276 0.4864987408618783 0.5114001320892483 1.8509963011824249
Ni 5.581154842709932 4.2748922143080215 7.13513271300862 0.473025646076108 2.8627526488419344 0.2694757796724778
Ni 3.3541752831494955 8.130432590051056 6.622863101091306 1.617360671137008 0.042901170238900305 0.15752609137534807
Ni 5.924415062198256 6.8313982484448825 5.731893350207544 -1.3033572413658006 -0.4092936551347855 -0.17561020257056853
Ni 4.0469417032804085 8.286674789251217 -0.06250985352815912 -1.1853433491524619 3.3992747728097905 1.030472950232406
Ni 3.010748257042808 2.956795583036679 11.692586071789481 -1.4026267630921003 0.5492058900831123 -0.8882973731711992
Ni 8.672359492009905 8.119599426891805 4.15938511801558 0.5154694170626155 0.8942327648190277 -1.1516554699817134
Ni 2.7987926473093516 6.4900377709990265 8.171269630336663 0.16550113916102466 -1.9672132493963412 -0.5393683351674001
Ni 6.310915263980053 7.8704552082977175 1.3412744108929033 -1.365153448736991 -0.3078677491871149 1.7222547381389373
Ni 9.136434038364925 4.133922087722444 0.0965059690540066 0.6051908900891642 0.24138853451795844 0.11785731203081638
Ni 0.8942660350033053 2.133845864307672 12.75967395715481 2.1973213259044737 1.5534505027466086 1.0580973968178937
Ni 7.4201422079576576 7.4699525176077675 8.660360535928982 1.7627074468373447 -1.659973620711528 -0.31623848974931346
Ni 0.4650948468373413 6.875500064933231 13.01814822593601 0.2756633965404285 0.18814638736436629 -0.9868660121757326
Ni 0.023387214597950474 5.787216618594557 7.905200100199328 0.6387116475544291 0.24306103712437493 -0.16855149595157423
Ni 7.72932754212813 2.03379896142719 12.956882935121527 -1.1769494686618116 -0.29160860701577523 0.7681697770489673
Ni 4.848271430862679 0.5094589203978946 5.796590223843131 0.48702941655436766 0.9881831883252594 0.7529100226764194
Ni 6.241532977775332 6.0611779551873415 3.2810027798941888 0.6229767533176754 0.06536824099316484 -0.07441466746614926
Ni 2.244327447870206 6.738357223535652 3.7935568897661556 -0.13821582108251035 0.010086437701724564 0.9100036545000393
P 5.366697133701028 6.907860548895684 13.035509088093873 2.9859848520314185 -1.7958353397395652 -0.9830291549281457
P 6.721166874809893 4.182314541116467 0.10977265543448998 2.716353520617683 -0.6163826450399256 -0.9555767151441479
P 1.114212608459792 7.734248337369842 7.485959466046584 -0.1334040015161638 -0.28531351803568283 0.17033789842803568
P 3.942270550257525 5.493497964760091 6.431838015148686 1.423932466548412 0.6309219763066811 0.21463980566920454
P 5.253046224389595 0.5699272462579756 1.4141170077252248 -0.47256670416181845 -0.514774704988436 -0.47828509470283437
P 2.7811945490720387 5.203606596113625 1.9410628219481907 -0.08109362214822163 -0.7381891715264771 0.9514758056018967
P 7.039322698234561 8.632103494778262 6.9091292058986795 -0.3715040950908376 -0.29210997213222595 -1.347632666244408
P 4.744981065958469 7.452169078683384 4.004126151160326 -0.7850938064978157 0.13718069494977664 -0.6366264828906262
Ni 4.947447232513931 8.677002276221012 11.35285381227954 -0.3361851080745694 -1.2434852476005165 -0.6509626970076402
Ni 7.372259441453077 2.577644139497215 4.109675819039922 0.6220401004360191 1.577324995371361 -0.5537806539379881
Ni 7.4254244175391575 0.605990837148091 2.758152994855474 1.8753446481198024 -0.3190721025433666 -2.706899317183319
Ni 5.317850595623683 1.2678137028692025 3.4902561224101616 -0.7192825644299612 1.0199514818757918 -0.46207737459472037
Ni 1.6991200157502149 4.323979695278558 4.0037063545041125 -0.1097663074925658 0.32567135302743916 -0.8529735010589246
Ni 0.5961844613952079 0.525540931814974 7.2837045878743805 -1.3296768530969356 1.3644134852471728 -0.20702188411263053
Ni 0.9068043324836029 6.574784800161867 1.8218822732380184 -0.9940437608710946 -0.5502680127990395 0.21512548705637144
Ni 9.334591033946007 0.8964020864217891 0.8468818349469435 -0.6966949089374324 -1.7891283600330348 1.3425501095151782
Ni 8.215151818110835 4.780918625181376 2.607167057540624 0.9534920647009772 -1.0709094609808976 1.0412790397089744
Ni 5.452889820223015 9.113229384343738 8.361304070306895 0.09134049668721043 0.43444470047911626 -0.029988318831974156
Ni 0.6109301664585113 8.787984279638636 9.397970135296523 -2.191491606596574 2.2091296313933118 0.4975575697792011
Ni 6.020245464447893 2.8932978636464357 10.465044120110322 0.19396736492151753 0.9347813756653515 -1.364335580821386
Ni 3.657021965822167 2.9450820516138436 2.8713247984908308 0.7256059355448278 2.27849233825785 -1.8526207241597255
Ni 8.972370462170403 3.0573707068753113 8.309493007939862 -0.1452706710467627 1.132787686542933 -0.9317407890668147
Ni 2.0820431422715573 1.9655194523105362 3.7127066485489664 -3.279431540697197 -1.4266205549035367 1.1592813619580875
Ni 4.165921157345109 5.146910879938858 4.225776932234424 -0.15709491737520043 0.009833441150654033 -0.267430724217991
Ni 0.17748038853153225 2.9002481394115676 5.77598775306841 1.89411498674877 1.161392494763819 0.36385017809000564
Ni 1.3365009614974106 2.8065306209945318 1.6847718664606772 0.7238740404553855 1.0586252442969057 -0.4189522612704721
Ni 2.98851664162874 8.800022157263843 9.04809232657636 -0.35087921975163444 0.8211393872674632 0.3940912363627342
Ni 8.15384111882802 6.656686849778178 5.845214353095992 0.649942740383558 -0.13565808765766313 1.1145547084746739
Ni 3.0265485506155407 5.768840089471548 10.983404027004761 0.883609994997859 -2.1636961816508604 2.194938941715226
Ni 6.4008796334839175 2.2880863840874746 7.818693261212757 -0.4899015958958402 -0.6871111219037392 2.664345502981508
Ni 7.119037727743446 8.566520692658479 12.929431199256129 0.7438952207723188 1.158109196026857 -0.6094887461335696
Ni 1.3441369978047022 9.02925151903224 3.044106800605134 -1.5626144286340637 -0.16726928680504097 -0.9329420084637674
P 1.7807440543359216 4.777823435707305 12.501646359429449 -0.6283015079646986 -0.9116854130778362 0.6694286170223116
P 6.168703354791105 1.1737069690093194 11.584757640162357 -0.19662485714902267 -0.34346441534480204 1.3689545676506358
P 3.7390537539194275 1.0577485681438623 7.622094054106501 -0.38952264315544527 -0.8282430881917799 0.4142157750267511
P 5.647441939440581 3.416876037585337 3.05170206196127 1.066311300087254 2.3380488576652447 0.19942967358766941
P 7.345709388030274 4.882763332726439 8.479141825739243 -0.8861859832551512 0.3710127572767159 0.3029029489826719
P 8.489150222841033 7.982326847013277 1.3335762854554434 0.06641339442822755 1.0526821393395935 -0.06963292980678976
P 4.050704119227933 7.093794326164487 9.81033370325553 2.0134751085773583 1.01167792901309 0.09796468687194741
P 1.8641195624144415 1.0347014537066856 11.037603204124695 0.8387856395943166 0.6272710098176552 -0.7778440669139378
