# total energy = -340859.96136370406 ev
CRYSTAL
PRIMVEC
9.40424587426472 0.00000000000000 0.00000000000000
0.00000000000000 9.40424587426472 0.00000000000000
0.00000000000000 0.00000000000000 13.76406443272663
PRIMCOORD
 96 1
Ni 8.802900678686555 3.213223886276318 7.546657077661922 0.25740470744055666 -0.9759143982602355 -0.8627298091147398
Ni 4.497768624521844 1.884074810342651 7.806660962594006 -1.3238376207073395 -0.833011970335333 -0.27099838696459133
Ni 0.8776935556114985 7.238259884420877 12.998369822924765 -2.1997420195308246 1.6311772653051264 0.08500864093191166
Ni 8.867498442882178 8.610800150338326 5.406951356670338 0.4250863991926679 -0.2900721157665908 0.22529368583862489
Ni 5.4319863993352335 7.780442865811216 2.058869645624527 0.07272956645424249 -0.7192925917322902 -1.1509232198013792
Ni 0.5859710305456258 8.77066292418625 9.050670580296163 1.3423251379885657 0.5361853094537282 0.7039677884497618
Ni 7.191201038586709 4.97444162987685 5.052264584899129 1.3926172013748983 0.28889429340840567 -0.6721943526929068
Ni 8.763920079969006 2.0549311474959597 9.782932177194136 0.36672878518938135 0.19475129427539364 -0.20201928869171656
Ni 6.255187052831208 0.5617203019779664 2.088407441164202 -2.4819730419864414 0.038328206156237214 0.7165176000903144
Ni 1.5480893217100966 4.312269876704307 9.287604909929327 0.7826165486019167 -1.3651922723947263 -0.39399559132513434
Ni 4.358378893715683 8.722814121707385 8.469565306512049 -0.9869372317333004 0.6225170400724376 -2.107430417179596
Ni 7.224285175206334 0.5978194397915227 13.426982430271075 -1.3529381376177216 0.19152764513177337 0.2633879216071851
Ni 9.196214449534356 2.114271938306031 13.426211282117917 0.009751422959809013 -0.15666245782347213 -1.2823693262602236
Ni 4.251048236740193 2.0991593153532917 2.808117191232666 0.12729068952957434 -0.3368139999078199 1.0465351459015912
Ni 4.348871201241993 8.621727883923318 5.953026755384971 -0.036472383894421055 0.25377559532840166 -0.35579079812063885
Ni 4.852318094304807 1.4765606283818236 5.461814786069209 -0.10902480134085095 1.4591491236588612 -0.14048841916677096
Ni 1.8844885971565408 8.25911897551528 6.464787942133235 -0.4880627429148884 0.6527365010786113 0.31085074307483884
Ni 3.462210697288592 3.9349997491404984 1.675458545572766 -0.6216711471323746 0.2820451316970562 -0.00470460456452093
Ni 1.932741782203526 1.1543053385737863 2.3840872728501825 -1.1753695257692016 1.4189897778311562 -0.1257259161456157
Ni 6.659804727094809 5.5068159829288525 7.374896052065519 0.025321509483924132 0.3705725844155037 0.9929800954932705
Ni 3.1416575759649636 2.8831818809705405 11.012517562733935 1.8819027609532943 1.3566125011455152 -0.8582288359205928
Ni 1.3035131019640545 5.322925361138023 2.1453905875596804 0.6290669253758133 0.4886661808268422 1.011993917591612
Ni 4.88532699695827 5.354871584019452 10.509427090585811 -0.02013405174571371 -1.3999242765592728 0.4329971693993124
Ni 0.7086588208638811 1.2329812586874243 6.796557507387001 -0.5473829779417605 -0.5129983298143036 -0.12616223235208596
P 4.993127866222271 6.848792450093096 6.85783463240116 0.29967981405968386 -0.4962645619993904 0.9358792367152204
P 5.713107518144341 8.39284735036777 4.051383873518977 0.5323705636933284 1.1071291054345642 0.0965652354212595
P 8.316804619069792 8.322945591557744 12.770050722841695 1.1009949675123685 0.5162471757689044 -1.8678863920695445
P 5.55039525782804 8.379211194000954 13.472858221987348 -0.25287262389815807 0.9128136131450085 -0.24878354143044895
P 6.38510670814676 6.66935944079735 9.800894286615252 1.5469697801182714 -0.14237817999031607 -0.22227341095506237
P 2.2019947428506184 1.5508259572292298 0.055826424165741156 -0.42922561817202204 0.05823728637533842 -0.0055720947711387905
P 3.3203288413533234 0.4006283932078746 4.457519393049891 0.10001514164307292 1.2406876302507213 -0.9301369349148045
P 0.7798179273333847 6.102349250573637 10.069362933165108 -0.6532170402594557 1.0726346712021206 -1.3157818402823984
Ni 7.605467469010553 3.8086725157091688 0.6701719450492667 1.3261788672460062 1.9481186946587352 -0.0331893422677751
Ni 4.0483961446377785 6.676506667582714 4.376958862083901 0.6402594516575232 -0.3468091634473189 -0.12129127741302981
Ni 7.267168535918525 4.063461746361667 9.632518789496126 -1.0706832039027043 0.3640190995677021 1.1746316191619126
Ni 7.705368771827572 8.46984931473431 2.722958924509617 1.0079035495723223 -0.9281630990178854 1.3816686727831946
Ni 2.2184897899315796 0.8778957468955583 11.538318347992558 0.3046525846839269 -0.7963439254903382 0.6405209328490259
Ni 4.3814287000984855 0.9973390724230885 0.6131229689333973 -0.7869668551508124 -0.9400002008621294 -0.8046611871067819
Ni 1.1953830840980955 6.1302422435281 7.377551811071028 1.4900846368954532 -0.2077572196167583 0.23544388689874937
Ni 0.655689406563132 3.075451685742634 1.5934798543446274 -0.06778122131003166 0.33950157404231207 -0.4404608247662091
Ni 3.4141455971570114 8.9190243054572 2.502017455233285 1.4290744157606676 -1.6671068893222 0.9178987409774
Ni 2.9383377824128654 7.952089159609224 12.324315805221552 1.462175826300327 0.44597584104716737 -0.8405848975865846
Ni 5.0353247169932365 4.226023538745644 5.615559157619031 -3.2335862002283084 1.2627428102785478 1.136217023939456
Ni 6.397840056919635 3.0794296817034357 3.5592766200058903 0.7478053544600025 -1.0025160600081637 0.20093042650291199
Ni 0.9453618060510974 3.2540477171648314 11.447159232043532 -1.9529497974987913 -1.4522297708312086 -1.3080471906423021
Ni 6.482957885385872 6.265033298152626 12.424683558628773 0.7864958290516648 1.6173712126599695 -1.570874611760327
Ni 2.2020511683252395 3.253389419960916 6.97350779579941 -0.6830639484175591 -1.3684233777375143 0.6860101755300766
Ni 5.015509971155389 0.6937718998096271 11.914711059426002 -1.46237817211912 -1.2902775253637069 0.4036297719807887
Ni 6.4263349216033925 9.083880733809108 7.0924705643680825 0.46651664131299647 0.8478230672062367 0.18174999691971924
Ni 7.831705409504671 7.005072206302568 0.573125771248086 0.02153067498292421 -0.22141723360235413 0.4191468937797813
Ni 9.140795229210465 9.36126836704744 1.0079066233950817 1.0780458149153627 -0.4253334822064675 -0.05424667715870657
Ni 8.666388647086082 4.192854763914087 3.324847581445913 0.08272138755963172 -1.443508588908127 0.012899481670487462
Ni 4.6655027520794405 7.8382695730522824 10.407849010747963 1.201025792884725 -0.4700974166857194 2.5682939739718735
Ni 1.5480517047270157 8.758286936752645 4.113955022751118 -1.028673692240138 -0.18992404809007937 0.9490751665802043
Ni 2.4926141498876446 3.7930426592390676 4.614787535489812 2.408531537066839 1.2052915101396144 0.04106874501585185
Ni 9.406596831659888 0.45832908355562 11.423017592726808 -0.840088160455824 -0.23453011683522834 0.5395195160332837
P 3.2048541075408243 5.058167629969095 6.5813281769915 -1.2705538216825343 1.452036938094112 0.05147888460558231
P 1.2517709417363185 7.629974933487739 2.3816647391397745 -0.9869871111346292 0.37444440866608414 -1.183408594023594
P 8.021473684901887 0.5018641584996871 8.376823455999896 0.9398587901882588 -0.5856512773943398 0.08648599680838653
P 2.794499843357391 0.6573106985339175 7.28617263577098 -0.04671874421277761 -0.3485857957317674 -0.12414880146648295
P 4.848274268623614 4.48200710861096 3.652088061936742 -1.5023796522127224 0.1279560910277151 -2.431333365452703
P 5.01988294543854 2.2382293018032655 9.947275133726993 -0.22206000939267564 -0.24721876804649037 0.6182083853947546
P 1.0074862536091531 2.807129745426793 3.693504360308779 -0.6553001480407294 -0.5575375498772592 -0.6495840714925587
P 0.010073828069056807 5.32235170214604 0.39403507649837516 0.5996131388910705 -0.3049603457323328 0.3096083860273055
Ni 2.4245086020197304 5.873177185399209 13.772597866572331 -0.06771205863499306 -0.6237221161241323 0.751697233315241
Ni 2.6257688657481517 5.828281316092192 11.168244349292118 -0.3972441801694191 -0.4511404159672424 1.228344535304336
Ni 1.610383045692016 6.289202209782084 4.959302675035954 -0.22695333292923492 -0.32272075503954745 -0.1160847935114259
Ni 7.0021851028511115 0.858199494554415 4.853498327148969 -0.7960310222356097 -0.9223128108846955 -0.07968620027773374
Ni 5.276421365804299 5.4548387165568615 1.6994487765325905 2.324994338474131 -2.1615829919625997 2.2792191891215454
Ni 8.443084831272271 7.745477880037549 7.727779089498 -0.7115731116008455 -0.657396625558442 -0.27200677362444764
Ni 2.3048489788394853 8.8195273852083 0.5571883959412987 -1.1621764241176953 0.19529353993210882 -0.1431101730603342
Ni 6.909609707489092 7.246121833884779 5.405107184074799 -0.7211887803137386 0.42201650201809254 0.9852619009134064
Ni 3.9855005489265656 4.055402307736591 8.404021475191941 0.3737738649616208 0.6665415252825037 0.7458513160574252
Ni 6.63865457835759 3.1461716139346683 6.345591948269461 1.8061300367973538 -2.340231981359492 0.7105685815957311
Ni 1.9777599067055562 3.681846857252018 13.3610934631312 0.3142445992477362 -0.7574421062188181 0.5028316736939469
Ni 6.74856199867412 1.9653086853057884 11.435487622618115 1.242744255669434 1.6124195250816489 -0.5719619528327052
Ni 6.615369665830531 2.2075150351177357 8.390436101752286 1.364514272491095 -0.3972426375075223 0.49659623430719646
Ni 8.882968427174186 6.543398972951058 3.5379703607888855 1.626093680134632 1.4949805315351736 1.9657060687231955
Ni 9.029796916384589 1.0528617394504518 3.8358103477282848 1.4303720515261689 -0.38091741798493756 -1.0880409784548615
Ni 4.538235094071089 6.519625039643949 13.806182309066932 -0.28462394816782594 1.4621614281226238 -2.309076895912926
Ni 6.360524009703412 9.657878278640094 9.852537702262401 -0.39790983877787606 -0.4813889304391387 -0.42193988314388625
Ni 8.84505050822867 5.201714037405692 8.5389912104861 -0.3557126365845357 1.6429570315488737 0.3431566542963961
Ni 8.093387952306738 8.029166357941925 10.483592687030448 -0.1921871330926432 -1.0752685092805416 0.17232279006854836
Ni 2.0019194140892447 1.5443652403850905 9.039507740566915 -0.3470829859339958 0.7508084029523844 0.7711967368007493
Ni 0.052236823555249196 5.362705320746043 11.970964436349712 -0.7244965045307329 -0.5071200166566556 -0.232350078464774
Ni 5.905753492747243 4.165027600680014 12.998507124913008 -0.7115047202567553 -1.2864339832479006 -0.18103137358613985
Ni 3.1399083862517037 6.494750809581724 8.966049296006595 -0.17385876709710055 -0.19470244331532918 -1.2068881652027732
Ni 7.840968591588335 1.9360896936977232 1.8220321797227963 2.1691479487940515 0.001504866680300634 0.5042046427820736
P 8.829683970640135 6.206059272927592 6.190002463699523 -0.40908822399219874 0.07890201381354153 -0.997336058469121
P 2.5897694129397597 8.287595031707497 10.202021104848946 -1.0425779610260562 1.1690613241629866 -0.28784888286302684
P 3.373989467718183 6.503901140716145 2.2205568431518734 0.01057931817774307 -0.21829437170265628 -0.6312968431475966
P 3.880793676520965 4.5120160568637235 12.53036377047159 -0.8596306013641261 0.435593726481895 -0.3129042831697579
P 8.411618224925125 2.5683841580582856 5.218521305446225 -0.1676626655887177 0.7800716706928759 0.7699826618879901
P 7.880579274772491 3.7652625172338454 11.885806169626663 0.691337501280261 -0.0883014527505705 -0.047206482482473534
P 5.770341757901884 2.5538922153263806 1.0959143765865067 -0.05218413820272303 0.6635569887328829 0.41418312201660284
P 7.495964431262142 5.772053330632062 2.289693096356203 -1.9488473452946438 -0.9316909096654857 -0.41279164098571486
