# total energy = -340892.6778316182 ev
CRYSTAL
PRIMVEC
9.08358273389041 0.00000000000000 0.00000000000000
0.00000000000000 9.08358273389041 0.00000000000000
0.00000000000000 0.00000000000000 13.29474151366679
PRIMCOORD
 96 1
Ni 6.36499371040302 2.073836478288249 11.38956578462675 -0.32438297323331877 0.10297988069835168 -0.4103514069753384
Ni 4.80767700673701 0.4972534952846413 6.161753993094616 -0.4504480178859081 -1.43702452384568 0.10387591015005981
Ni 2.806472857342407 1.5027607047496474 4.753800459821803 0.4667179586905252 -0.43955991021849455 0.5324842064530572
Ni 3.6453054041173787 3.858179169452872 4.760527761319881 -0.059569889143832905 2.084008695821546 0.22105445094629672
Ni 5.101621749483182 4.583912025500631 2.7063708653913228 -0.5437376678796895 -0.8886521854074566 -0.164014270202853
Ni 7.11527040745511 5.987461837781993 2.5994007764071605 1.1644582781733364 0.31239469052319097 -0.04904225013963166
Ni 4.871725349787172 4.827688139872666 11.47204562574571 0.7615286175833659 -1.9340213360254048 -1.1705265958546036
Ni 5.7727259379513525 7.829031101236508 12.40808886003369 -1.386881841553018 0.791390695250121 0.10661593478904219
Ni 1.5991284357692441 6.807118941048399 0.4141913965015896 0.9299667278855274 -1.6999835854455625 -0.45813844455163033
Ni 2.7107318935431284 1.8730892961284706 0.4296807220680535 0.5777325367678954 -1.1230437197822918 -0.029463042456123453
Ni 0.7656379440996196 -0.04261653754845316 4.648466324118499 -0.7002908538188068 -0.39852073288899753 0.1994805814302629
Ni 8.505530937949153 2.1535721690121643 1.4350080765915774 0.4246441694489268 0.9257861141452766 -0.29635640611340575
Ni 7.157790659024791 0.7484554386800071 4.83705240548753 -0.8349822066878265 -1.1078644409386922 -0.32849288163663426
Ni 0.5276853147267991 7.358546924767471 2.687226306064628 0.708515041500812 -0.04248747974024941 -0.3345804825916109
Ni 7.44844714476002 3.7443527920934065 3.7525734346207638 1.3781246641856781 0.17375078076432657 0.47062243595125397
Ni 7.714032941682535 3.821644999016373 12.547883384196703 0.29006645933963593 -0.6753164432616563 0.6895266733237674
Ni 7.792969277110973 8.71400824915952 7.055612160022044 0.6862405463733279 0.42907315175455785 -0.34384905237773034
Ni 6.718717512234871 0.8188822736447668 0.34113758936123667 0.06835946241100485 -1.0938958945737418 -0.40314717591741545
Ni 1.8345658210361802 6.756032870801042 9.245694882155158 -0.006499491681414614 -1.3794744933453533 -0.10771456716985967
Ni -0.07087556396017577 5.016099816449956 1.2095953334165654 -0.023488827150559548 -1.174630590720648 0.6430997493197956
Ni 6.710996466767188 2.008116755983905 7.025380179403755 0.626496850655792 0.4765357161118954 0.38521347425713015
Ni 3.7093174128359285 4.2314417581094155 0.5725527641186546 -1.6900215891368444 2.1246200415850054 0.056558356011018725
Ni 6.06576232240721 5.857566602266843 4.795958276433646 -0.4296989582640148 -0.9776352376060841 0.13595453585215939
Ni 5.254216858673323 3.2105197084577504 9.129020801555555 0.036567771821704766 -0.6625416600944912 0.8468748443603543
P 0.18919649814012318 5.651278434536138 12.412356327281595 0.6307183449363073 -0.9002530028711786 -0.7522063117411756
P 4.091163987335955 6.162402560913901 12.740390848305028 -1.9719859881946362 1.612003777700469 0.931489592287957
P 2.3912622828390835 8.250218673290108 1.6751907255671226 -0.3141139872071429 1.9404012714098196 0.18379299549167702
P 6.310083451753433 7.763774641660225 5.800708823442819 -0.2769923997644972 0.7684855085171732 0.10593202134814014
P 4.674711520200592 0.9374802571032606 12.43374725666024 0.3517369397662394 0.5126895403246331 0.5516659215878306
P 4.128106919003097 6.125305208337407 8.003168835639777 0.005759013970964275 -0.1552997731479906 1.5208396586901227
P 4.797130966986444 1.0594273575781483 3.749848359749817 -0.6198711178091582 -0.780029761711347 -0.4887345721709325
P 0.184319522479418 5.443037296481256 3.627895809125187 -0.7123922650680311 0.013531715937847664 0.5712060485032873
Ni 1.5149781237543942 1.2213785571585412 2.6153551814182663 0.050705239664351386 -0.6595306411823092 -0.6183708791145479
Ni 1.9453673652888939 6.3019445614722045 4.8714455754337544 -0.2679721985437578 0.16355507117824736 -0.2132835487516262
Ni 5.944196732414254 5.68082732972011 9.285566360950277 -0.09693213184237501 0.6959166360105111 -0.09847762195262395
Ni 8.76743788379589 2.2569070081184823 10.46891740664304 0.1068481054045063 0.4253692205404094 -0.43942287041999806
Ni 2.3414569977810715 5.370877313898574 7.114095900185732 -0.27691141001491665 -0.5635539312746681 -0.5552107015162955
Ni 0.7316362765765209 -0.07197104405829655 9.218840177660264 -0.4089797234387924 0.6696805851321176 0.12823248461755335
Ni 1.5887095661793225 1.1378640959469122 11.703002079566518 -0.34551538433655976 -0.024126974955190707 -1.3058671522718477
Ni 4.177603362242401 6.916766870272411 1.6835530719877696 -0.3709093989296322 -0.8201901359803165 -0.9131260021791049
Ni 5.603625958626175 7.73338097326626 8.155100843277987 -0.35352077113953956 1.600814850963185 -0.4396033618619204
Ni 5.481787861146125 2.524309521621629 5.130866344639898 0.08820452216139003 0.9353416190441957 -0.6622035600287821
Ni 0.7916705843417783 7.483246350862016 7.114787160844663 0.13783144115989812 0.11225127869794861 -0.9413011790617402
Ni 5.138591931899033 4.343578589048893 6.9183047208579165 -0.8489011307617638 1.3497646249857465 0.5915545302526521
Ni 8.323377849992138 7.086366446657263 9.314614750716284 -0.5594810467568752 0.31720342476574404 0.0014189918347136852
Ni 4.890192273829292 0.2777287305474562 10.230808539644286 -0.30065246238559834 -0.45698659033537425 0.4716832731156006
Ni 8.173362478346494 7.223083452932685 4.763798759523308 0.47475676983460174 -0.06356949722152924 0.004625671697469453
Ni 7.3455664847988595 6.293941924934523 7.178801894638084 0.33429920390576623 -1.0495016847290828 -0.899116061053258
Ni 2.14328955316579 5.200423880720825 2.5630936955432406 0.5874999005673043 0.7646728196393023 -0.19395553784697564
Ni 2.356163318501283 5.446561726647682 11.370155076320994 -0.7170950698603391 -0.4090344879361278 0.9410759504248115
Ni 1.3528634196817444 3.343703200983844 3.984979628272917 -1.6923471519462272 0.25466853945631623 -0.4907048085234258
Ni 3.3744965470255477 2.7617997966246794 2.643367134375023 1.3752285735848058 -0.03911367817201006 -0.11989259729329028
Ni 1.1684121852502305 3.3668209194723797 8.217719430379193 -0.6897642432558702 -0.2911558357490728 0.11089990687637674
Ni 3.557766915679651 2.646238454930711 7.2560305164807275 -0.23415267889115157 -0.22020315868959497 0.006859703234310766
Ni 4.146782765451988 6.884029637489433 6.002017371026012 -0.09209048747935752 1.076126486405463 -0.6897552443948056
Ni 0.7750757867360001 7.497534826768682 11.333368382279787 -1.2451893747758167 -0.0066218761918918215 1.0511765013283445
P 0.3519161688341232 5.521319613940666 8.041576949229198 -1.208265505166274 0.22971546905540438 0.3854793263240071
P 8.782017034355459 1.637388486957343 8.101084409186072 -0.12775965874619288 0.0719860034199986 -0.4170812695000043
P 1.8105034099257162 3.136025245068957 10.40277620609199 -0.04406510864001443 0.06531141961330043 0.16005554266542113
P 3.9981208476589143 6.055942969288897 3.7924049456511093 -0.5984427727320532 0.1474962179431718 0.7210586824937775
P 6.722687037963551 4.157410557448682 10.562778977139656 1.4812930067457521 -1.5655909947638844 -0.18285557127907218
P 6.3691539913726665 7.716785267302193 10.286234745802773 -0.08797415131813881 -0.9450735016199788 -1.0946772528244568
P 2.464821137188852 8.544608511598536 5.882697242726718 0.6752855900237208 -0.7975101778842975 0.2277390620553239
P 6.799697653816519 3.9708337646178293 1.450761734420523 1.3946632852706495 -0.4126281188246571 0.039540738407099645
Ni 5.257178106699753 2.7554685393411784 0.3098282958106338 0.8899475071801124 -0.6686030357972227 -0.2173312364584386
Ni 1.5980202386550588 1.0575833902488074 7.022707789313646 -0.6703650127936519 0.7454818485331485 0.3464026720375195
Ni 7.109638586055153 0.7099973653846193 9.03122422294529 -0.9026348728397938 -0.05688128656807624 0.7104467113058861
Ni 2.8871895750198635 1.3586496619910557 9.36092103964 -0.32240348090944476 1.0364888174091826 0.4743381942399444
Ni 6.218820694325411 2.1492120492186486 2.4745233120877144 -0.34324792845862173 -0.9998287429839877 0.44558246226349063
Ni 4.090182960382414 6.798425952210078 10.364580648342503 0.1646886705620583 1.401860060129405 -0.09154232828537137
Ni 8.261573151919055 7.251669488328922 0.23016527374994358 -0.7598846542220398 0.7969129106199307 0.40964743892977834
Ni 7.372108714041886 4.104834779605207 8.367590373056677 1.8550452744408181 -0.776196761118502 -0.7245435557185844
Ni 3.029138725047504 8.565319080617735 12.743980680268354 1.1096485294223084 -0.610273189708078 0.05246490266793545
Ni -0.03408977827725933 4.848326040228639 10.184955521507439 0.44066394191595076 -0.585659504924456 0.5382792158682793
Ni 8.802436928721756 2.374957251527916 5.7311767213940215 0.4125466148544443 -0.562162193133464 0.28754395002809835
Ni 3.614139631176646 2.822623467744221 11.644253098782057 0.027729604704784503 -0.49860606564837356 -0.7460703740467668
Ni 1.1836816881104382 3.525601948619571 12.59220763533095 -0.6742430076918196 0.26497223537516945 -0.5420350833662859
Ni 3.068506973349788 8.437876412486437 8.133922469739275 1.1493553610936271 -0.5076113544707774 -0.9600836018755659
Ni 5.559043733737479 7.909965824903639 3.4885672727651076 0.7437592094150869 0.7207966870816425 0.43369239569412404
Ni 3.130202668428033 8.218971148103247 3.6796122800260234 0.010184910952801813 0.3303296777350569 0.6942659877809656
Ni 3.2650302894595984 4.4816944670914 9.293702526156636 0.03913450410761647 0.12008697269228352 0.14509429336989849
Ni 7.272688899166829 6.048076586494762 11.62524115976575 0.03592833846549297 0.40696757810477 -1.5884447594336064
Ni 0.701630477172521 9.127910787724788 0.444610498927683 -0.041933921229624554 -0.024527809938035175 0.6477189932593619
Ni 4.515548980571468 0.3576597183037896 1.5407936663651673 -0.30448983385381756 -0.163298475082751 0.19478420439585808
Ni 6.063019080370457 5.6383615796478495 0.31457628459411413 -0.33901280733135164 -0.3982808489640495 0.26504859713905965
Ni 7.849033150789261 8.986334064596177 11.083268277490575 0.939847220224033 -0.1491023860880271 1.1414253076132728
Ni 9.033359773285822 4.708665953092594 5.919085167478476 0.43009182282705927 1.3516582424640333 0.004113765058057431
Ni 7.82673295476201 8.860108596573902 2.4104431764973904 -0.29187240220012317 0.40929596912763055 0.16520289119431547
P 8.695841083353203 1.5592605904072865 3.6187222987512886 -0.10575898610538559 0.6610565909085324 -0.373620370102892
P 1.6728780453599787 3.4455301653282384 1.4137097997585442 -0.33028416920910214 -0.4892187108962026 0.5197479898333113
P 5.014292183452227 1.2918762440699456 8.230469147342065 -0.2644320466009833 -1.2313244438682667 0.3278807019739321
P 8.55701668584425 1.3434255770453638 12.524776566007652 -0.20940426830187808 1.4346501100762326 0.06581792693607375
P 6.329358814673935 7.560883733935302 1.2624926700948123 0.3454333661457148 1.856610562045409 1.1018655430427797
P 1.9494822283440243 3.4228121244874417 6.053641189381236 -0.6211137319670077 -0.8462197272748587 -0.08914246059462712
P 6.885710100326517 4.123238118567004 5.90525813758329 1.7308417084769998 -0.5829151094100993 -0.07196080660901799
P 2.5023635853276014 8.374118744089177 10.56261910608056 0.9542646812009438 1.660642878864411 -1.0527551586693742
