# total energy = -381176.3159750771 ev
CRYSTAL
PRIMVEC
9.15661232909897 0.00000000000000 0.00000000000000

0.00000000000000 9.15661232909897 0.00000000000000

0.00000000000000 0.00000000000000 13.40162770820397

PRIMCOORD
 96 1
Ni 6.621228932105876 7.669587814231069 1.4864011534288548 0.7852663275199379 0.4997414648043973 -0.009379641442687074
Ni 0.6740328991322261 7.217855491529359 3.8209646752069846 -1.1593384404482678 0.5829518761853056 1.3120912788046888
Ni 8.145914798196346 9.047502338030508 13.582550019927691 -0.029207989022523893 -0.4647271535127415 -0.8874751343802199
Ni 8.944810928473212 1.941146917315167 10.237771316852976 0.6330415937528453 0.463512307269034 0.8773449879247536
Ni 1.629785464743939 4.442806714223769 7.5212479442131395 0.30196963853512515 1.526334877476739 -0.47513883576436877
Ni 3.402945168529176 5.091571025410002 2.6545404310816325 0.6861621277269087 -1.052149149654259 -0.7398871280541902
Ni 4.85484512159504 6.440990171006827 8.617166271834597 0.829924589659261 -1.2567410841691582 0.5079836502085316
Ni 4.366312373123309 0.8950854292744974 6.469997403850034 0.29677266771521793 0.09509533574395236 -0.5799783953792785
Ni 2.6716889350333854 6.165028182488074 4.59611496220209 0.247212083178271 0.1293707119870546 0.749278082350787
Ni 3.4578299040518186 8.543183589551932 4.46039656689961 -0.08282011792102512 -0.28761954046104016 0.41482281248313074
Ni 5.712178753057342 1.4370113010872494 4.54666284489526 0.904022754326256 0.1033128385577382 0.6138539650808009
Ni 5.394389358487966 3.84957725805002 3.7802772674167175 -0.37481387619036094 -1.3429087784061777 1.0126732030468235
Ni 3.9207516072688224 1.1272247858716928 9.479226546686418 -0.012738273502274836 -0.2969670431142111 0.9200273572846285
Ni 8.612151195150286 6.2751547614221455 1.8043278971862249 0.4227873187458461 0.19567046365555332 -1.0952511230500557
Ni 6.388010010891043 5.946386588425735 6.048904938006158 0.7364439067005961 -0.8704922266689783 0.8360782679654827
Ni 8.604807591898842 5.683930603393118 7.99366871727185 -0.023297279965043747 -0.8148810650625772 -0.7520060228049114
Ni 2.0029082688500726 9.4038410713637 9.913680341538408 -1.8097992581188251 -1.3888947582179887 0.5782164183828493
Ni 5.454511676379469 8.674782424875824 3.265440318121514 0.40723317306133094 -0.8774205783576953 -1.0180990020480853
Ni 1.4151269971334428 0.003745970187239426 5.502801819555864 0.01541350634159281 0.2803302058884785 -0.7594591366488469
Ni 4.2538417013807965 5.155584903628019 0.11490266803127025 0.5565337912030931 0.7411176580271817 1.1361725438547658
Ni 3.784125791664326 3.2422832450256243 7.3508333127007175 -0.3288114413183176 -0.1867389654938784 0.16975322956915925
Ni 3.22601194455453 0.03522091010808226 11.913779361663366 0.1893712609104029 0.06557701456986124 -0.36308398934794245
Ni 5.326905124119952 3.2290702531405433 12.317516384112242 0.12019264503221237 0.14875297316840835 -0.19948392386437258
Ni 5.7948538076175575 8.1148555684845 10.785764360130077 0.2761639903259308 0.09559567241913859 0.046477574736248986
P 3.048254625451917 7.782397280637301 8.319610243979332 0.5359878487309415 -0.26415822411430634 0.5310446457930532
Ni 1.796847860408039 5.002330679663642 0.48128162700686916 0.6090290328883318 1.3659396920837121 0.6746957789585218
P 6.677212461132475 5.7446389444867325 9.590164401490911 -0.5016412529302715 0.1777467892975971 -0.18151474098046158
Ni 2.4147635439706843 0.4687828508993605 7.588819166400216 0.8853583451475332 0.11587164905935528 -0.044122701350827236
P 0.6246082516629955 6.692339185036948 13.039274463427578 -1.1833350604731814 -0.4170488736001721 1.5370916017726108
P 8.64437331465382 7.0277733719573625 5.989723919883046 -1.2092466381326206 1.3050181740079911 -0.7135304924375324
P 4.628988116856717 4.616040666735094 5.714708725100202 0.1288786028419845 0.0160933060174368 0.7242540495026236
Ni 1.160490759203985 7.692021514936854 11.313198976948144 0.039156101374171276 0.1705297027238676 -0.9920678680916464
Ni 3.5485078379658543 7.255415916139615 10.495725911164383 0.226285617438249 0.9321079425982463 -0.41337451007237835
Ni 8.21653975066317 9.048436312508871 4.669314754113185 -0.57257130428193 -1.7175465340299902 0.11149820258200799
Ni 4.035438179244315 1.3704061015224007 3.040172999230315 -1.2490051489774812 0.13857500419414198 0.4810821978319973
Ni 0.7080542929984889 0.7673918891959166 12.067013441080167 0.8408003560315003 0.7370242046840983 0.49173299267762405
Ni 6.528591483109784 1.7036793278850344 10.421574747211112 -0.908227793546539 -0.4778711470938673 0.11182730378665257
Ni 5.48534199077799 5.735656307591885 11.67622203743041 0.39249021042420146 0.10968917439772723 -1.4153398397833947
Ni 1.7184489439007204 2.304252387310228 8.978956852269922 -0.05211986062369089 0.485058665981242 -0.9269531378701842
Ni 2.1705109046536184 2.8590790105206865 2.0970464866403193 -0.3808014612323635 0.4715804289891491 1.1972992359627574
Ni 5.137775292251386 8.687995416760906 8.446081376284761 0.7019448444824621 0.643890106431575 -1.0540301687270557
Ni 4.6015823755455285 3.1658896266630263 9.956177095965192 -0.07633013932130725 2.208193749842603 0.7192848784228064
Ni 7.160690759486005 4.610940433554227 13.493161337058297 0.12213228525708643 0.4450870106843109 -1.2880710046306914
Ni 0.46430709869324305 5.2073655475019835 5.375781290498456 -0.004566536324759877 -0.3418937284235725 -0.6986528039947516
Ni 2.7174719976982527 5.287256991852177 11.286301427632534 -0.27576418378435086 -1.793003783828041 -0.037923257408334694
Ni 5.6088189107851365 1.9733232537560357 8.248715171442786 0.41588930607443214 -0.9978507933220105 -0.6364938139675038
Ni 5.8642426173924305 4.216784890459853 8.076464639117503 0.6770043724870405 1.9448284539432377 1.0044107059277154
Ni 0.8422252207828952 3.1566963876799217 13.379649558470787 -0.17013658105050697 -1.813861601113657 -1.898553739246414
Ni -0.215154756009783 3.860208085200802 1.9589830828681458 2.829525511357688 0.15974495340353778 -1.9869446663869974
Ni 0.1082073529471601 1.603570083062036 1.4179060290372005 -0.09149836242131339 -1.231511620178408 0.14548047306472364
Ni 6.136807502661451 5.538312994281242 2.1662127907306403 -0.23227757335562577 -1.014191696573879 -0.9131830806692853
Ni 8.54016190741605 6.457142435514992 10.35344130901451 -0.8498490964973299 -0.914635753955412 0.5571115180834341
Ni 1.7368171086418651 6.257390933108177 9.090498127840338 0.534701268709034 -0.16997383022039758 1.5073344251148364
Ni 7.849899828230381 2.448597227280021 12.493239103910028 0.005794238084273892 -0.5903427693327381 0.23830526760694443
Ni 5.113043281799824 6.140351111711711 4.113562397375643 -1.2405495620109601 1.75191241310437 0.21735849015194825
Ni 7.427926496260834 6.7471506676593265 3.826647268944948 -0.028330214403260886 0.6919368254271567 1.0891534947927501
P 2.7316281206742294 4.1507565574845815 9.381019130286518 0.4115749949697944 0.4229295007506652 0.4938644371983301
Ni 0.50008473084333 4.360131659663552 9.736630828584593 -0.282506644714507 -1.1184249900633576 0.3466476981687901
P 4.372007786118819 6.8412257048230956 1.8950836623067908 0.287477358456221 0.7005975864259483 -0.6933894987132831
Ni 3.961617569003483 6.909753793019869 6.483051070677041 0.26132152599645964 -0.030033313137296663 -0.5050739327609043
P 8.551635142919865 8.816288714960397 2.4061819667047812 -0.02028523261159732 -0.32370265933684256 0.4551641924146549
P 3.271154044342089 3.2885699213798043 13.370643114383354 -0.15329045602744568 0.44188778702072284 -0.8559343834594615
P 1.789659919569655 2.0099771737255283 4.607666944573689 -1.9333811313382443 -4.6552509537884665 -1.5998720274339415
Ni 7.742446980155939 1.8005196620337613 3.242524063935241 0.30510432750936484 0.4454289674047619 0.1047624265200712
Ni 0.14410402106017578 7.961427368881998 8.870255957907235 0.43013193203637534 0.17466275105563467 0.7815886215580345
Ni 6.588347536499969 3.1790110524227777 6.1803481109169915 -0.45333408118445156 0.6075833015807407 -1.158970258475572
Ni 7.2225619903713065 7.55669593831204 7.671453931865289 -0.6122670802096553 1.148241302093842 -0.11849314584260238
Ni 6.6014598056471865 1.0626798241267632 1.5211651485715418 -1.580783900454239 0.41197120196694853 -0.7100368774619772
Ni 7.438932744525468 6.862056998335611 12.584946241072771 0.5849442240249861 0.3738419991953949 0.05504757579344713
Ni 4.580485540269557 3.0792131324259002 1.720621808054795 1.257274588075125 0.30576098725675727 -1.4604025364499882
Ni 2.6577983538208647 3.609133769546671 5.145487906987909 1.8409625710955069 3.5497727536937638 0.26437908187586084
Ni 6.852653157264246 0.8682968436480304 6.642074876198443 0.1574582142518901 -1.6496313582452555 0.27445806337841766
Ni 1.501592889282311 6.927783163097294 6.866927400541899 -0.05997355234015478 0.7574644748163213 -0.582400631667526
Ni 7.938966198338614 2.472669961629208 8.232257991737272 0.06631646383904707 0.8869146338910595 -0.2617591277545105
Ni 3.480739748609318 8.760323499158863 1.563031928056056 1.1097917398683919 -0.07896911960605109 -0.11578474577250382
Ni 5.711693452593094 8.174694031387482 5.468600956083955 0.7120073709247867 0.5941544297693445 0.7059138564325391
Ni 2.259165227197867 2.502667024287229 11.171999433383426 0.6297642085531542 0.4081844812310067 1.4171730363373916
Ni 1.8616034242412267 6.954950832482625 1.986402559098135 1.4635896759287181 -1.008186885140696 -0.21387335981682523
Ni 2.459960583433441 1.3976378671954637 0.1881912790839362 -0.013873672658298686 0.29541666790795573 0.34670143422486094
Ni 8.131502290069447 8.940278405269389 10.937980224233213 0.1517984448629515 -1.643899597967801 2.021018211031939
Ni 9.221258217456212 4.8024326714563 11.979755501947198 -0.3104676487038073 0.2695786237989293 0.4699220674501197
Ni 1.6680417919067019 0.29632629479208583 3.089115093219058 -0.5017744360740262 0.6437610370528783 -0.4713752549568785
Ni 5.082222124013835 7.887213024302248 13.15109776266401 -0.1807513804518758 -0.35360613176449424 -0.2684645647991441
Ni 2.817251604470064 7.03302926755129 12.816687285024782 0.5701562670825342 0.29008291439986816 1.4786265156571825
Ni 1.3656538196177876 8.70026527755509 0.6598694508662228 -2.0067190208004475 -0.8347554353890011 -0.5670524313462298
Ni 7.241717623790287 3.9241578671310884 10.606369838706566 -0.08627156680473529 0.6843482144466214 0.13103678683556788
Ni 1.1494478844892193 2.4129413780766225 6.809795632303665 1.192349605266966 -1.1862961999840342 -2.031404696472585
Ni 9.350915850923116 0.4527606102891636 7.40287125738686 -2.653493390758353 0.11069730394726741 -0.2872811832850149
P 6.868045422932174 3.421102731182062 1.7438200859070832 -1.3864213569768316 -1.6510426367704856 0.6005179100935271
Ni 7.697405603106242 4.294625253602661 3.581960606193819 -0.8262132022459449 0.8743077437603265 3.5494048288313844
P 1.3763212732187016 4.8312576877101 3.3255608046905105 -0.905992219347801 0.37371498669922737 -0.46563578136994005
Ni 4.770393684203427 1.1302281547825082 13.403906340731886 0.14051875818407414 0.35091187276178276 0.37669180993936413
P 8.718670068746366 3.7718376176450756 6.668462402195966 -1.3658720720705702 0.7072528869589367 0.21637684296496928
P 6.4681944668422915 0.587883825776999 12.253738746497575 -0.17151289257274333 -0.6019443581274084 0.8267850155890148
P 7.68465044184781 0.37877701234524497 9.088809648489258 -0.6953903311933959 0.06643242059162108 -3.559856106071695
Ni 8.477576460753177 2.0097116319620723 5.316505959266253 1.121620871292836 1.0250810897928733 0.5772404276228253
