# total energy = -340889.3115149937 ev
CRYSTAL
PRIMVEC
9.09101056310774 0.00000000000000 0.00000000000000
0.00000000000000 9.09101056310774 0.00000000000000
0.00000000000000 0.00000000000000 13.30561289254105
PRIMCOORD
 96 1
Ni 6.613064629324315 1.752537718522706 10.957332148675203 0.08615689560374193 1.3101662938678338 1.4133400357445467
Ni 4.913600229717951 0.5525670689238423 6.023144416727389 -1.5027434633100443 -2.2046674818569 0.1936007256107182
Ni 2.9680239956300523 1.5384898778434906 4.898780973608747 -1.0125976126138818 0.1648323952287742 0.36361929302612217
Ni 3.3570101500994625 4.555205325360478 4.6512963965516105 1.0125888708631334 -0.02213205601234898 0.7684487417419668
Ni 3.522230173735226 2.8216769096562144 2.9032714556085675 -0.18914423250126136 -0.7463958757069855 -0.8053834099847872
Ni 5.385878221787827 4.217392468626607 2.995013387407859 -0.14402908533017775 0.8558559648130422 -0.04475365006660679
Ni 5.4241604667273124 4.976137290496559 11.573195377748931 -1.0428787800959263 -0.2877799772983044 -0.6241358066227832
Ni 6.033776353430483 7.434128327722448 12.207926089878322 -0.2764846068901432 1.964056191824598 -0.3804132246550093
Ni 2.067841233420868 6.607519112959298 0.21010597855483626 -0.009860180623531407 1.064737784952547 -0.00863273597433352
Ni 2.9648512329884276 2.404954082351285 13.142911967333728 0.6446771211092446 -0.839771914766986 0.7735714076805129
Ni 8.135108869291878 -0.29032778193158715 6.902726040191056 -0.28174868350255994 -0.18630547750088558 -1.0911540701625466
Ni 8.78142516511894 2.7586580253245807 1.6713713591618153 -1.1861882136512603 0.10934618923601168 -1.1713467777630537
Ni 6.9837687618100395 0.728994490223201 4.692663221331506 -1.0408368099652332 -1.2176124935988126 -0.1309126025528778
Ni 0.8648432773473315 7.590311886986364 2.23193669906589 0.125754455390706 0.2808223150335486 0.00710498647589744
Ni 7.774913944868383 4.102863919173358 3.92781651325795 -0.42531471315339003 -0.7197456201093088 -1.6970964937057547
Ni 7.700849482858888 3.788205866016042 12.766309587278128 -0.013789083364292382 0.6891317518781939 -0.6815346562572262
Ni 8.190191301514234 6.970214065252269 9.131509067737234 1.604497956241727 -0.2135224042353097 -0.4983558973107804
Ni 6.701065610329828 0.5713336417636854 0.0018172929858473207 -0.704340084187516 0.10805652389031067 0.2679410881955063
Ni 1.9931767647226988 6.665510668520679 9.131402702915151 0.39458103151495916 0.06243718338929892 -0.04089956642783924
Ni 0.3004551675555688 5.088283995215981 1.2877952650019484 -0.49824585409547734 0.5700703922369473 0.28018879521460777
Ni 6.671383461261337 1.7040917239175015 6.80806953044648 0.5920373834263417 2.318891053789871 0.981290060749852
Ni 3.738650768137834 4.798117124169083 0.807034451095683 0.23257864953581234 -0.7049782319921472 -0.23059915721193835
Ni 6.260387970530113 5.895483902701571 4.646839074135598 -0.18227115953051193 -0.6798593254373323 0.13224263421821095
Ni 5.584271342498913 3.167680766791527 9.075784810178208 -0.23553927482603307 -0.6137320947909559 -1.1915273664759867
P 0.47837078726304744 5.66938138218627 12.451552442107078 -0.9093143417424985 -0.11695074105614699 -1.2999957810927354
P 4.125482353134279 6.442826367928732 12.595292226288315 -0.3360807212862212 -0.0057700697145578045 0.8980796493689437
P 2.4283543432095693 8.901626505083287 1.2247745624682276 0.5024897169734959 -0.8130129015055868 -0.6699598069354333
P 6.358470882107436 7.824969048320486 5.621421756639308 0.5731701142081935 1.0992738710562036 0.7114854369830456
P 4.807289953697448 1.2332228384649653 12.317311854728802 -0.43431923064484557 -0.09367068748228384 -0.0852364406720016
P 4.06920899854501 6.16822330674562 8.222283477448899 -0.1755379545717364 2.632296959186396 -0.6082741570001783
P 4.8169536977892715 0.9552379214002362 3.7389307712592155 0.024440649540867585 0.4663130099426227 -1.143516900034979
P 0.31435350430776177 5.8883565505209585 3.4408047205769536 -0.3724883133809779 -1.065221923677817 0.11678593334350855
Ni 0.8521813180142241 -0.12836052182927085 4.782183310180616 -0.06264338586283405 1.2708834371078113 -0.0880703105763709
Ni 1.7789561948452288 6.713238473301562 4.8779843781388905 1.2194084091569708 -0.06251405937382137 -0.28038908415087194
Ni 6.125004643140227 5.691517992594164 9.21899367935007 -0.7756120922596255 -0.3917772435175769 0.043461413617744506
Ni 8.779879693345082 2.3167167350744764 9.794913735877937 -0.9231916139452229 0.038568347191501325 -0.5065582306159148
Ni 2.5453738295218593 5.160030249564691 6.925411747629193 -1.06028926226289 0.6182263831168837 0.09212751136488005
Ni 0.3431701891828935 -0.11552674239895239 8.927041333853847 0.753481064688541 0.5604066438949381 0.9835292344930159
Ni 1.1933860307411888 1.5683356650998026 11.374010430029005 1.165592905998412 -0.04964800204443063 -0.5694255595640968
Ni 3.9668169480217563 7.094069991411267 1.541282636248955 1.2209994077931747 1.2695937717621104 0.022008900170923384
Ni 5.738673063717677 7.8062233848046425 7.901231716653032 -0.49523586362455996 -0.21648508640805944 -0.5408238366670041
Ni 5.167257602860081 2.7312577198751367 5.047789907437793 -0.25315467391495106 0.6452787592489855 -0.7765528589063401
Ni 1.0945031102456344 7.538020394967386 7.0177391405004625 -0.07551638517076027 -0.2340873728708549 -0.0013976516784750123
Ni 5.382878188344457 4.981091891183336 6.963718538296851 0.2135871960349741 -0.8983308461478012 -0.1563104738006921
Ni 0.9454559941727638 7.5545933069893945 11.250428143284081 0.1477787821805971 -0.7412248730290074 -0.11537568325954323
Ni 4.691270478532948 0.33669466245043206 10.247184232183669 -0.3888253599781045 0.3103876873954913 -0.2673250518780622
Ni 8.311210832417684 7.3482546431585964 4.57678465682874 -0.24512306185972627 0.46154129958559226 -0.18999295365480182
Ni 7.611303030079518 6.393916731791371 6.687414549061453 -0.025725429790562148 -0.6954134711218475 1.2175582433221095
Ni 2.439809016356981 5.621335392040181 2.7346495758682314 -0.324831373624647 -0.061888767084996646 -0.6878670262331572
Ni 2.657438715147371 5.456733557113961 11.334159985789574 -1.1500073928553292 -0.5030831275831206 0.42336890228092894
Ni 1.116448809434406 3.6168039552848494 3.5036208753758995 -0.18381382142728345 -0.07674768647470008 0.9619381385858015
Ni 1.2383865323917354 1.2197045059489326 2.3641145361765883 1.3998435439200085 0.04020562568460818 0.8718947634434596
Ni 1.125103451368006 3.3270734527388064 8.06042076396658 0.17874412021385988 0.7275167794142954 -0.6454813621780948
Ni 3.658704422377247 2.950114705074178 7.039613929807845 0.05868414410476991 -0.3636416616236253 -0.10716435109334446
Ni 4.339121098343944 6.9081133729745146 5.921370554913678 -0.8981012466354985 0.36517815287280975 -0.30415044823652776
Ni 0.6906713357367609 0.304097026335611 -0.001975476567406817 0.7229363591324647 -0.40197552420681737 0.43811392180058745
P 0.3465302266394677 5.615144413934318 7.838070103457577 0.9432040525114078 -0.4273325149143673 0.10942537921337929
P 8.688015032904927 1.737537551305857 7.640375172347858 -0.19001300825945985 -0.652645998247334 1.5007847969217765
P 2.0600047824263688 3.537066702764255 10.36532554918357 -0.9592284529641222 -1.8661035891375088 0.7571106910213284
P 4.400849059193886 6.259542506559709 3.60285379977318 -0.855789887461797 -0.4144805986523636 -0.31842341321577416
P 7.142679624204292 3.9083253868864802 10.289416521156923 0.7839674062028563 0.22068524053233607 0.2749892532915393
P 6.496717877784175 7.7913595827443105 9.99617416128005 -0.6772488843976788 0.6404677110135872 1.8187215003091195
P 2.7804037222837934 8.547986199183034 5.879430996476413 -0.66734602346167 0.020858845726880206 -0.8793525052730856
P 6.836712577022314 3.7988332572139183 1.518303289173786 -0.04688483747699668 1.0231681890408766 -0.3831324233583853
Ni 5.357396086096683 3.2291632703597384 -0.16362273310243036 0.3261979149548705 -0.7452517348002133 1.0190917049786579
Ni 1.6139816284911952 0.9496014949308749 7.063390558498116 -0.649458601658288 1.2626175975545932 -1.0817016665003951
Ni 7.0062508306144435 0.5568371165249053 8.950898872536984 -0.23217318656727756 0.2367039845580956 0.24579669088798312
Ni 2.7635398979278816 1.7191191641656536 9.078938481697918 0.1900091516047179 1.7202834733451793 0.578477899574352
Ni 6.50819982396289 1.809047439383271 2.3960612559443026 -0.850366916674013 0.01830445473614267 0.24696731415731663
Ni 4.363794100663052 7.056351389118719 10.486485990748754 -0.5139277836071084 -0.12361221223672261 -1.15139270323863
Ni 8.361793214474986 7.433437410929429 -0.0521505813572444 0.3804669607110802 -0.8247849544398506 0.48848131850954574
Ni 7.690267546713184 4.210874214145104 7.953363206888365 0.27937401262279626 -0.7775635595590416 -0.4069580650230733
Ni 2.9475783131629654 8.739915611475224 12.107189512355184 0.9675950797612627 0.22556108056739865 1.0323719670273317
Ni 0.26393930594349807 4.701097860812593 10.1059317484573 -0.1032328772494222 0.7610977006935344 -0.06088140886640482
Ni 8.910608423392528 2.1702332839441216 5.492743049444832 0.49815972213957427 0.9766708168102856 -0.09530102399685522
Ni 4.14769169162565 2.9936606450552117 11.009835461237305 -0.3071540109495419 -0.7933686449120981 0.34942783201708855
Ni 1.0233932266273367 3.5166301113076024 12.733218309296719 -0.5991750229123874 1.0229455315071092 -0.5156103135158538
Ni 3.381692243429004 8.775679646524365 7.982568987010091 0.17171292439869137 -1.8420876858388857 0.8136322802571407
Ni 5.80421924895009 7.967225179598819 3.217589504975635 -1.068113129182683 1.294060646555223 1.1124119511000583
Ni 2.8995414140273112 8.76385224194914 3.3975878751736475 1.1407300813184613 -0.7944083990305222 -0.2551794176544637
Ni 3.5649761047980286 4.491568252319301 9.261425061451842 0.46912476835980493 -0.7759756462466313 -0.5742692608096434
Ni 7.561693386138703 5.857092565636872 11.311061546477715 1.6740622375941105 0.5254213860690048 0.038092693106663425
Ni 8.227537172378971 0.04912691128674505 1.8398068731882453 -0.7000779664770524 -0.12369937263389018 0.45428256114064985
Ni 4.406230937371082 0.8489594639162537 1.2054661654064909 -0.05533116847213697 -0.6527228742318565 0.38057803236764776
Ni 6.521409062124151 5.720072856368785 0.278272192994458 -0.5743970446367591 -1.2819402091426053 1.3158186070576048
Ni 8.227773538650267 8.965990858959222 11.41287631783838 -1.0406357496980208 0.48113104879206176 -1.3232496094143533
Ni 0.15974814445526614 4.962591684949222 5.517717873310363 0.5118084232712605 -0.3309313158747978 1.2679868322863066
Ni 7.383336852425154 6.421398856334726 2.3742137396682232 2.1427794861028517 -2.730544467406084 2.0327709806924923
P 8.448121449560558 1.495653036676344 3.4617076808688934 1.361440518661778 0.5039858419030481 -0.48767064968279245
P 1.9249214583808196 3.5556305460714097 1.5293734125798202 0.714489256806376 -0.5584104394005156 -1.1425979877651353
P 4.808899062544346 1.287523443789958 8.169699254893931 0.9734937046338847 0.536538836138405 -0.12182169599520311
P 8.35121127832928 1.8115838312944836 12.56707100259664 1.0071507305666978 -0.6595887481137545 -0.5619521340051871
P 6.534872848577578 7.799841495479656 1.2422438481190738 -1.1142158370780166 1.727283558812096 -2.8108577597448554
P 1.8029746444130559 3.3422736221852127 5.622167219494934 0.5286000409073026 -0.333005167684691 1.2133555180946716
P 6.804257669771314 3.8231608011365172 5.8174530328395235 1.1316450882980575 0.46567820457210124 0.4597608106464018
P 2.229452125914154 9.063501036879172 10.077644160389452 -0.029445816064942832 -1.7311335286858056 0.3389279609270292
