# total energy = -340859.05944333825 ev
CRYSTAL
PRIMVEC
9.31837237449292 0.00000000000000 0.00000000000000

0.00000000000000 9.31837237449292 0.00000000000000

0.00000000000000 0.00000000000000 13.63837988558662

PRIMCOORD
 96 1
Ni 7.265488431087816 9.072907912499247 12.5577294877779 -0.1962278788209201 -2.1789677630979507 0.5121655495003632
Ni 3.9042396569459417 5.12015680842046 12.926142525836596 1.3083837480461145 0.4687573577180572 0.9414575021339464
Ni 8.387280702138042 2.888648877054576 10.281402048455897 -0.2229339273571967 0.8646491376246399 0.008016956767205548
Ni 7.322218682748352 6.256224826110626 9.226295778224243 -0.046495829568694115 -0.39005100485508953 -2.0194495809932382
Ni 7.819419083183847 6.796690429972512 2.0291044945568566 -0.08314047737492132 -1.0715208693126514 -1.2115313204017395
Ni 7.765391159542619 9.141015896958326 1.9775515306464169 -0.675063703820902 0.40676523228597683 -0.3138957005487497
Ni 4.64822783415175 7.912388485420572 6.221296770542427 -0.8812736335551984 0.26704403030253365 2.10951352496087
Ni 2.8433615867999418 5.983094010338284 2.800123406653743 0.7869198039629609 0.15660229400949804 -0.6072930240338315
Ni 6.1553254888931 3.974136768921252 13.151517614484248 -0.5409878730486941 0.8955998203698835 -1.0217329992562467
Ni 1.0522492572291706 7.866020263958214 11.20863415681383 0.7848634356545645 -0.6013938849405772 0.6838771883474738
Ni 5.294251961471351 7.566490498948964 12.370201900796546 1.2558702515284308 -1.075738764048741 1.5575537262817045
Ni 1.8079599470152932 6.092659433962562 7.707484929275058 0.22598634103027535 -0.5594234540460624 -1.217521219436587
Ni 2.1922682648510157 7.59798659793264 13.561800895609025 1.4517078368894676 1.6755239097413015 -0.3148488084906384
Ni 4.312962110680253 3.8156219346575533 11.17359707628761 2.4270007995156204 0.5447064595508618 -0.5739028786091601
Ni 7.8033635274001565 2.4043637408768843 12.592070485879836 1.3078145058062056 -0.3837867691129326 -1.5719377629175186
Ni 8.228001761330953 7.319721358923611 4.05680471038092 0.9937174878799272 1.413794606783462 2.347172160122751
Ni 0.7049945157244207 3.8511622072977127 8.379229628314997 0.3647081552149267 1.3492696876271988 1.235482431900698
Ni 5.028929941837567 4.772572196529905 5.238897101588917 0.24946694065071873 0.15051417883388918 -0.23430077443324165
Ni 1.3551243179588757 6.017199253616465 5.112510151963063 -3.1832136613130277 0.13552798983770206 -0.24978627166335046
Ni 5.655068662284042 6.030328840441318 10.613332726416667 -1.647310680531879 0.2094574901373167 1.3604928100365279
Ni 6.823266428286548 4.811550948615324 3.6231313824931504 -0.0972082683218971 0.8715276099120282 -0.589234623870224
Ni 4.727489910469839 2.3506246867825484 0.7310812994832371 -0.6679916274654689 -0.3515677611782268 0.015611738395327953
Ni 7.759967866759039 4.842385443152892 5.710430976864459 -0.6487962854839406 1.821025722962264 0.6322954596154401
Ni 9.03963200437182 0.3455783662955302 11.32701569264179 0.01799617946710449 1.3133099817031382 -1.3195230524923856
P 8.999152994317061 5.46708913423739 3.2402469119724295 1.0543577272698035 -0.7424068091522504 1.6540256306582097
P 1.211136826392085 8.385752489051262 5.357673736410047 -1.568891005671395 0.4435435774565909 -1.7058444151017138
P 2.4171765030374033 5.538915149316138 0.8118492247941559 0.6956001332113568 1.0498788655628435 -0.04366144544369254
P 3.581954426339611 7.0915050985066905 11.242225957768342 -0.9246376023631301 -1.1574360812192324 0.24896480420331962
P 6.538543557148618 1.3066967361783546 0.17720096659859974 0.401184909984722 0.24402417236859264 3.550890926458607
P 7.835008720343518 2.737411691698051 5.4047809048100985 1.2582130407289944 -0.44817413425006686 -0.3034032856578581
P 1.8013159474367841 0.7637850595403693 8.52587006052695 0.4196577719779289 -1.0097416312223255 -2.101133014206659
P 1.286354729053691 3.7775377463302515 10.52026454943165 -0.3076535762937798 5.36222847559883 -1.734587034452045
Ni 6.483686298356636 3.4768152296435133 1.7293054285829241 0.12542149753131945 0.28874439809410274 0.602885124774123
Ni 8.444141411013305 0.7364197950772452 4.58965627208909 -0.4505102385824112 -0.8588950087496822 1.5421749298327891
Ni 1.7770509054978816 5.709152496160152 12.395010203851054 -1.7260486579637306 -1.2181177153700053 -1.7148957266707048
Ni 7.673875423412833 5.94369593149125 12.04788591956103 -1.9617725379967437 -0.5445591353397202 1.1145336254287515
Ni 5.522934140512291 1.2574025457571585 12.037480093012194 -0.582366693105797 0.4843241018080626 -1.8991422647600325
Ni 9.15296205047817 7.12954269497159 -0.23230143491231903 -0.8908893022680915 -0.5330735032976239 -0.07265474735224907
Ni 6.723951214390686 9.34017747198143 6.641154679390789 0.8907856868106916 -2.3807834204192933 0.9124875972641575
Ni 0.3015909890019089 7.470520580773559 8.865411053292444 -0.2500043012114275 0.9643331211805392 0.4327840249472417
Ni 1.0244805072376462 7.42586693984759 1.9019133693859458 -0.48381013828612157 0.11443131706840294 1.0471372982619644
Ni 2.538865129258651 8.487816622828834 6.952354774094463 -0.5946485957969436 0.8664545662644949 1.3524948794327158
Ni 3.732958652384126 8.607417933614476 3.878973821802647 -1.2940480481497325 -0.529952441170139 0.10413327757650452
Ni 8.346186679499578 7.564216816063752 6.544908937389963 1.0524975341326133 0.6346783580253199 -0.10901785936231546
Ni 6.30152143473774 6.922134360303351 5.446255117045761 1.985352382199213 -1.008416741763315 -1.183514009253207
Ni 8.81490081526256 3.262828124004128 3.4075219482049315 0.21660130027094954 0.16755056549088562 0.47464595528835035
Ni 2.4558011569685676 3.4557557078378607 0.7138590834650037 -0.3425017943212166 -0.754764559386655 0.7982033472965802
Ni 2.0143339423382103 1.464503374133545 4.526251270220858 -0.14405916723716483 -1.5906844473974024 -1.1526700272891568
Ni 8.62406986523691 2.2714744309342234 7.676007467036343 -3.5069456312259084 -0.47443538193944096 0.8572194208194721
Ni 1.3680116270992375 1.8353932355975242 10.228811949688392 0.07982015475243671 -2.9561705968834637 0.3766997803591642
Ni 8.542403648818883 2.2490357900014746 1.2459400157690461 0.33804581543239204 -0.24457438844510784 -0.06507950610815244
Ni 1.911542975507168 4.02445598031529 3.718544993831478 0.22772543520856908 0.4292847535447316 1.1493964987442076
Ni 5.245041636402478 8.508848189517046 10.220261411100397 0.9834611002592417 0.0760012952269788 -1.1619907904694504
Ni 6.876912298656079 1.711719796037956 3.196345263705628 0.9306526982089586 1.1252183588361075 0.960383649614488
Ni 4.057107557486532 1.3711891921150463 10.042307520005382 0.08441111655722881 0.5376312978716353 1.180219140552019
Ni 4.091184845647272 2.3848044770405727 4.6002121244348615 1.1013788332143484 1.294664598687809 -0.9981444133030293
P 3.296877457047427 8.416661530568671 1.6923869686529172 -0.6340612932666112 -0.07422029206715604 1.5638457299380035
P 8.57713322305325 9.321074808396656 8.251738451550217 -0.11274030251922519 0.48329566054354833 -1.3632356628889877
P 8.70281943106858 5.806007659721194 7.648771727950696 1.1276819898852515 -2.2389258888191375 -0.42491310683959727
P 8.905773583691198 4.119149281460885 13.272653661217412 -1.8435084774458124 -1.016914751931997 -1.8390900366631424
P 6.788881633833955 7.000520509608286 0.34050823982895684 -1.1496677501277233 0.39298926154780706 -2.4727062719725352
P 6.329709511490881 8.815031272477285 3.9515294654466087 1.1320122418294891 -0.7000651109612459 -0.14883139181482755
P 5.4463091636061485 7.405003103864026 8.16122071311308 0.601973154482815 0.30719386304854196 0.7766197075885334
P 3.8224150281957487 5.54167338757033 6.920305163785454 0.08923219209495599 0.1911520069599095 0.8786801617964093
Ni 6.4534295429128505 4.197675206353025 7.828116852057031 2.598218272335132 -0.4073437304972662 -0.8842674260761997
Ni 4.992411240086968 0.7383850398333568 2.744819797819951 -0.9337475350841984 0.01907861389800585 -1.6863474827193667
Ni 6.03333867475248 1.9472602972244542 6.0632012630403445 0.12082642196146934 1.1840441707250642 -0.5195741832596084
Ni 4.560588540973801 0.6097765902081809 8.028723706651842 -0.4678806115400588 -2.2704992927500447 -2.4065936966141774
Ni 5.1528270223366635 6.654464110804511 3.384199925561043 0.6425775582677385 0.6672046127877993 0.6266811987524562
Ni 2.8139714399968314 8.520123420218303 9.749913764641606 -0.2797095415853441 -0.04357505637747334 -1.805596018670755
Ni 3.5328093298781007 9.151704070193318 11.952512377224368 -0.26475909092309885 0.3259878558265934 0.3523689169232835
Ni 7.065273879974428 1.0488666880187938 9.39179752817373 0.0474741343215634 -0.8767466922191224 0.8907769450599434
Ni 5.273397443860266 5.696647240291485 1.3214775386067292 0.03943763717033208 -0.6920990620366338 -0.881498862192127
Ni 2.752740414428272 5.71258165723293 9.84661051587048 -1.300572993752444 0.2954647475370718 0.634804599190539
Ni 4.795467437714192 9.097350003515276 0.3814531685077349 0.6029509450150519 0.6781765384182707 0.48637352813792367
Ni 0.6179814171771532 0.34366530442530874 2.946067756441413 0.7030038818745957 -0.29786230123497087 -1.2234216440814218
Ni 0.2881716007929175 5.1586603235093795 1.1432375734765674 0.908423711607429 0.6488821603295276 2.113096357216122
Ni 3.3637460979666147 6.590586667451525 4.909339813098899 1.2814126187739092 -0.5131361409437486 1.3366046905650206
Ni 4.742417943183405 4.719541338744077 9.048219816449736 0.03315514659573 1.1933101694080224 -1.6134559367659633
Ni 3.3961274423359256 2.320339976221322 12.342816135913965 -0.4348589051983994 -1.3882571246339899 1.1705649052917066
Ni 9.373164510561967 5.776580239428163 10.645151241088163 1.3360423903036474 -1.2877524449490079 -1.2764925557644728
Ni 4.4793602880623515 3.2270176185620376 6.9705759196425925 -3.072930562085043 0.9329044703576126 0.7893042450347374
Ni 0.8050477447207284 1.3500644417020309 6.445157623662021 1.460470413573446 -2.094971365480637 0.7864217812806198
Ni 0.38368585055403337 3.8168240047075224 6.09574195157907 1.8763658902954654 -0.30378123782256716 -0.8302596044011766
Ni 9.479766691737483 9.318288615025024 13.77885560946895 -0.006439327867440522 0.9295954605890377 0.31360439456057604
Ni 1.2278726233668427 2.9701380443954757 12.345816651852648 -1.5080389073810287 -0.11671342823436028 2.143066164105335
Ni 3.081436685301102 3.369206664240116 9.370725892483852 -1.8960212026325471 -1.1021725327602374 -1.4497555982591033
Ni 2.3847392484332097 0.9085767266522168 0.7137481948324872 0.5537569997889044 0.19697915516464787 1.2700275168654191
P 1.6994288627363383 0.8099156625044774 12.347384933941093 -1.4718357179875943 -0.718028380307886 -0.7841741228970236
P 6.518387917473562 4.087103398500867 10.968694451979344 0.8557909159030616 -0.495295770328218 0.13315717561268034
P 1.5179908321709108 2.3427692987815907 2.611926760528298 -0.533665885465984 -1.439814170775675 -2.1087553066386073
P 4.615427163020821 4.077840936255372 3.1157012727486983 0.4851206295674291 0.546690065639794 -0.29045135348288037
P 5.604423307853191 2.2784911654119475 8.55482410749798 0.3193636656418564 1.7738038138608225 0.503639771417539
P 7.842305005995653 7.6733349578089705 10.624161607076113 1.0218397000374402 1.6717351321228306 1.6216125044348264
P 4.31386599281085 0.5250632659890704 5.617921902228266 -0.40953893837637206 0.894935447313007 0.5690416938621168
P 2.4377514694740765 2.865846819595092 6.04738053024316 -0.617325468569169 1.182320760276054 0.7769058713703846
