# total energy = -340874.9441973793 ev
CRYSTAL
PRIMVEC
9.15267414183610 0.00000000000000 0.00000000000000

0.00000000000000 9.15267414183610 0.00000000000000

0.00000000000000 0.00000000000000 13.39586377305718

PRIMCOORD
 96 1
Ni 2.8033358680315286 5.0717528645794285 7.106665930164741 0.8097134048187088 -2.771283596996659 0.7544603978826749
Ni 4.240827367562777 0.7329049362378909 10.641433153941572 -1.2550500696199804 0.2518153862782373 1.2432137391066846
Ni 5.997747185052731 3.6206513390079342 2.4073307888970827 0.32666662706117283 0.9145303387257993 -3.1536953401389365
Ni 1.5288992534410932 4.790491196646161 2.6899562052365353 -1.4112407300133567 0.26183137575334264 0.6906469029711396
Ni 0.661440858684264 7.02402735308688 10.6282514730383 -0.15677327236972358 -1.3096824122528798 0.17949102568221345
Ni 3.865073494626481 3.400859028765517 11.515043976071805 -1.4514507265733392 0.34126097993558 -1.698270716519514
Ni 1.5388115992390667 4.564081503197894 11.101835531136924 -0.17702302375769513 -0.6188835570849083 -0.04212778240798551
Ni 0.2539409364402381 8.547883483227249 12.748133386468018 -0.5499934189814141 -0.8888856415745015 -0.9113249444146241
Ni 8.946189544571862 4.0215018436875765 0.9488467165844569 -0.2032433909068048 0.2664814729308443 -0.6054091767475573
Ni 1.94465031117623 7.002967050518886 8.57036519604679 -0.5624414149367798 -0.5217179690754886 -1.3422192085383207
Ni 6.052095762475046 4.4491422247759616 10.352966501140193 -0.03353618408423256 0.2166190408827624 0.019843259978172278
Ni 5.316513669131054 0.4851402241231123 1.1141028195902856 -1.1639427719894986 0.2968641989877597 -1.1296573684440672
Ni 6.178329440448871 4.237440878231983 4.4363486172446525 0.15300634912812355 0.09616722865189245 2.6466385726200485
Ni 7.081670893101319 2.110304555495274 8.864645627288494 -0.9085083009014354 0.8025024888925664 0.16977276995318502
Ni 8.276287038897546 4.198056922582231 3.1351138888389936 -0.06052556818888286 0.6706367783977999 0.8974929236275382
Ni 5.954207915467356 8.920809179938638 9.411571891618255 0.9380947563093005 0.06354995683750346 -0.1846545721610239
Ni 8.34368732925422 5.932525231076406 12.924784568438275 0.6167983924211056 0.9768582502307432 0.09195036235706745
Ni 3.581139245924045 5.1131229504583215 9.427727276260919 1.5822969946646557 1.0084144277704699 0.21563996479894473
Ni 2.458582101482801 4.860701357880007 0.5155838479395665 -1.2809531626389876 -2.6085793038544813 0.09427901049024408
Ni 4.660248647518585 1.0624240771349778 5.707601931864142 1.4641928567303557 1.2698801926542775 0.8865150844597958
Ni 8.572989267644463 2.937147959967239 7.090001656855073 -0.2644582718532284 -0.0022090918361768407 -0.6132487273966342
Ni 7.8315769210471835 0.05781011867881895 7.15174376422716 -0.7152775570356262 2.9036964382441477 0.1768219634904826
Ni 5.45312647927007 1.6373492860913141 3.4269963195275417 -1.174024838815849 0.09086638526426931 0.4573583718524962
Ni 4.020238774693929 3.1852037271109883 4.688793091507634 1.3482304477294071 0.6736120589760399 -0.08507009029746639
P 4.964858786486599 2.685733161514296 9.696435136718193 -0.25739519435885994 1.1878802566417026 1.1290894117557393
P 0.28278284232996515 7.693737652609989 6.96665290168413 1.5003777912913452 -1.2259243558986177 -0.4144402323327314
P 0.23392312342569693 2.4892801696327584 3.6089395775277064 1.4285738219751656 0.576376022740001 0.07399043544453708
P 1.250465761732732 3.1977245849610605 12.854523152230774 0.9816533576265416 0.1388735092711673 -0.8936295840173901
P 8.173676412174478 0.42402232910875537 9.45399636552663 0.6043655659743914 -0.7127815300866498 -0.9538522762538734
P 8.383483155227987 9.113710934359776 1.2134038394430415 -0.5730227899970518 -1.7015995237824308 0.830302284713654
P 1.935122377680671 8.59627366996214 4.793830092072846 0.6236323846238033 0.7295566926624597 -0.612682570480519
P 1.1619319474171284 1.6155567696139594 7.685353803347806 0.750297781864553 0.7081129209663869 0.9723583054778608
Ni 4.023323225787112 8.015197864167172 13.023324085825294 -0.016908345719564427 -0.07478876297611635 -1.0668736003486272
Ni 7.601387173291841 1.3491498913668516 4.787654783014774 -0.9347160696450547 0.24571313003524137 0.6652328337734091
Ni 1.9837505339361037 -0.083944663638684 0.8927472326513823 0.6667328153577035 -0.6367869197278904 0.6860045191031218
Ni 5.024067433732299 3.6569783015861037 7.14894396129124 0.2671576730622625 -1.132429531872566 -0.04161613287888962
Ni 4.312447040572143 3.361594057876037 0.311193657280556 1.5744379036315532 -0.1768319907928116 1.1883921632811145
Ni 6.1792721658571725 6.599901598763427 8.893942421069413 -0.6144111231358516 -0.13407171700714973 2.235750062194317
Ni 4.390711554808959 1.48168060896118 8.209480757074841 0.38527466651236875 -1.8598208414525905 -1.4349167334740578
Ni 0.4925154487251503 2.70406596726992 9.747071389620048 -2.4819005368772933 0.04937829332281173 -2.1088771769284516
Ni 2.4639364156950028 6.975380891483712 3.2671576841835974 0.632723291181478 0.46159580697261143 -0.2564996791277841
Ni 0.38604513943236396 5.300963276231001 6.999847819265008 -0.31219800113135265 1.7107624212286214 1.8543963280029094
Ni 2.7077728001860604 0.2838271624181912 6.838106343024112 -0.41838044792740203 -0.8256519304258362 0.3386423113658103
Ni 3.1115247024815447 7.151176298447406 10.633917893429368 1.914021238754394 -0.17054667200473209 -0.5002022064908999
Ni 3.6859465143751957 4.014088177855297 2.524732136589241 0.09170199379168723 0.017041528863319038 0.33590331516809246
Ni 5.472795575410277 7.070358188201693 3.1009954664649344 -0.2701915747925799 -0.664258899895914 -1.3175839264881437
Ni 7.260889400091274 7.047284297382957 6.505794721330201 -0.15160869744964856 -0.11522578794524027 -1.4848550130653977
Ni 4.176776955841429 8.364866616582484 4.565712509680995 -0.44531223932123953 0.19993875201360406 -0.3689918701919451
Ni 0.051924949382330464 1.6626106659642663 0.31450143361609406 -0.8431354319225803 -0.015586284474031223 -0.9612699088741832
Ni 7.693408156350776 1.9226747412215353 2.4124745916103434 0.2916134921117816 0.8355851303791481 -1.6083859784422236
Ni 3.2815081615396853 1.4261787946316213 12.934938544826338 -0.03841382389150804 -0.5536256164173627 0.4850370687146872
Ni -0.10016594753318873 7.333570783269213 2.85847615174334 1.1975193223933633 0.8667718403945976 -3.0298581563756013
Ni 4.819715684303529 6.223021946941488 5.403569326617135 0.4059453074878428 -1.097558945247626 -0.3890791278601235
Ni 2.0122611130318453 6.370810171872126 12.394388948379722 -0.48247470730414976 2.0213606819730217 1.7801968618713602
Ni 8.310133626857755 1.3238061374290961 11.29405266555281 -0.045560719348934436 -0.21626757108061465 0.9252078730443033
Ni 1.7048227978389239 1.6799915936377214 11.180267539305508 0.9590875565108836 -0.5557015251097849 1.5745723723268883
P 4.942297445404416 5.703763300444316 7.50630462082439 -1.2609070426213895 1.18636356288686 0.12732411387067105
P 0.8877315673722599 6.267384957174894 1.0384861739031954 -0.5312801588426269 0.11916009000263994 0.39617948635033057
P 6.8547303445687655 5.793761542578642 1.846191337319239 -0.17417064191056456 -0.5406204624069464 -0.39257197150473033
P 6.922542505249455 2.692103422525736 0.3264703852319851 0.4422549405521545 -0.8351092191839941 0.19943687267652105
P 3.004273670107902 5.0532919213896665 4.445925975179094 0.06013038963299321 1.1658852404278501 -0.029892673794374325
P 7.982037726746988 5.648874715263848 10.823456040204379 -0.7936157279258977 0.9024081015409684 0.1917482457830117
P 3.8314740288606806 7.765933944072977 1.7463118684780878 0.18799212117468914 1.0160943129132307 0.4350193420356637
P 1.4150766012309364 4.741268116589373 8.943533438615654 -0.7119474642211286 0.7596367998772917 -0.7707272533634985
Ni 6.7836781373391535 9.084010507661324 2.745241101195446 1.2317993266221559 -2.1899322325292547 0.3113261400493606
Ni 7.024942620473581 5.014887301843686 7.498253928890967 -1.1469282397093732 -1.1577453849295352 -3.891466450291389
Ni 4.363930831074083 5.797184642604905 0.9997657871088027 2.6985738280367584 1.0495942444428892 1.247487169671058
Ni 5.00917603335067 7.995107745029081 7.341442082794843 -0.7112787202888782 0.38658412935241165 -0.9646614510542354
Ni 7.7764961297155075 8.030775715088826 10.90772928483489 -1.6390317283525384 -0.32543892530165885 1.8439805319862241
Ni 8.945265124511293 8.487521599074308 5.006154735707169 -0.6241561183377573 -0.41994085043598645 0.2159389840966023
Ni 5.9669026741209015 2.3437068917779382 11.607702900499271 1.0253011762234794 -1.531761704919265 1.1180614360763519
Ni 0.617395446234044 0.5110212400168612 2.905026651030962 0.12149927965877785 -0.3829267351054825 0.17501473507841472
Ni 6.773125104370489 7.688474865136457 0.3709020405193932 -0.031958555184467545 0.04941840253212779 0.36299502917856197
Ni 7.562552378074111 6.243917501379876 4.014097330529164 -1.477073826458082 -0.1572689810592195 1.3533489999028951
Ni 5.7021432771698555 6.61104040285958 11.510033802397004 0.6436065137528851 0.23819496728132528 -0.6304280673893982
Ni 6.380603532909828 4.551350133848881 12.901729898234658 -1.2168313924584142 1.1652589196977607 0.8029002385516173
Ni 2.7464611526219183 7.014279755418513 6.277181064014757 -0.6407235357781352 2.434888686904129 -1.5754259785764353
Ni 2.7275974917820074 1.5284599250954767 3.717887515636293 -0.5478974556843338 -0.8975320043955897 1.1038257520929442
Ni 1.779453700550537 2.555454001691252 1.629177778862846 -0.007571384589354703 0.09546968836423557 0.3312339347168812
Ni 3.0255261788271035 2.6714092269124228 6.543450652153859 -2.0571203560711346 -0.9245905511752787 1.6740100441999364
Ni 8.237607839135554 3.5487845438041594 11.922920988479152 1.1689967894736382 0.6358736638850017 -0.2950700832018144
Ni 1.4086331188285603 3.947758750341064 5.388713621663589 -0.7897935259663301 -0.519169491622022 -1.1225258996056087
Ni 8.131921913993171 4.4670997709030384 9.095081581970861 2.839619405258581 -0.8249266222240375 2.531814648098917
Ni 2.6462576791258745 3.0453874811185186 9.217693546895509 1.129132606288849 -2.2669228882526955 -0.8731265789680317
Ni 8.254851476701004 7.516999520237993 8.681524420161645 1.0950878579993142 -0.9026425861492777 0.8551998192862819
Ni 1.2195205713883657 -0.10685472159520085 9.520935361120406 -0.015094689549593357 1.4035626446428084 -0.6276931849567382
Ni 0.7788275620982352 6.233794644082961 4.732799147460226 -0.11749710047792022 -0.3773762376008985 1.1190109444738148
Ni 0.8124599774899561 1.6458795781353692 5.4730143243157 1.0051414134461527 -1.4175669293417008 0.3330882143168006
P 8.206891465637863 4.619629080896788 5.472598792922137 -0.44050479063026715 0.15786162033789586 -0.6031779734241934
P 3.762792364162625 1.8177484880101138 1.9294998901241658 1.1596672845425964 0.03652020641322098 -1.1653414521092382
P 4.236543916193015 5.374129751123893 12.335620544747028 -1.2801293811861114 -0.2586671190927481 -0.6382143962030363
P 2.1952047582856737 8.732209182234998 11.680388860014146 -0.3301353023360637 0.9501012938518734 1.4745135219300736
P 6.466592903890402 2.040259142391034 6.723986228913277 0.10951202538991463 -0.6120135694379525 -0.6335100487488315
P 3.6739473589355436 8.433722182084013 9.038256291000133 0.29676032642004374 0.8193612123211179 -1.6214379265301755
P 5.865463589652812 8.732401388386204 11.877575896339817 0.14424531510604188 1.4412717291578079 0.26946755214236173
P 6.6141889226698325 8.182170093523066 4.699523686349318 -1.073717619853654 0.2648087132141117 0.9724390381171253
