# total energy = -381168.33006521664 ev
CRYSTAL
PRIMVEC
9.25046752467804 0.00000000000000 0.00000000000000
0.00000000000000 9.25046752467804 0.00000000000000
0.00000000000000 0.00000000000000 13.53899427395340
PRIMCOORD
 96 1
Ni 7.0278298484108 5.943462308070309 6.866368490178037 0.12164968919371306 -0.24029941521883774 -0.7153968562223099
Ni 0.7249027024942895 1.4701490329004803 11.543928385411352 -1.320337835084197 -0.0392723152370614 -0.9687492479703638
Ni 1.7568950214477321 -0.03894816795210494 3.2109759924698142 -0.15756105837834156 0.04530180926059295 -1.6654503275553834
Ni 4.303724456277102 5.48880183523021 11.548084620415361 0.150331887619754 -0.585038069290373 0.16523760108699284
Ni 3.4642907918239 2.9830352252011894 8.665254158306604 0.6990274137253509 0.06560452537368701 0.04727487382656374
Ni 7.15797467429864 1.744360638117145 11.578805422659551 0.6473248431447368 0.647906940900452 2.51758487765278
Ni 5.437304483199673 6.828602531959991 1.2774553215761613 0.5324456399056379 -0.6897228484949735 0.7762615529181663
Ni 6.151690329303894 5.560742720220595 3.7072200914250337 -2.043662945014648 -0.06401018430337363 0.3169396295813961
Ni 6.6310865519786715 5.1769408276847715 13.697265138053885 -0.0030017629408012818 -0.15773177962825094 -0.8004499772389118
Ni 9.387744338902284 6.205629804728728 5.968638380153354 -2.8467246488447944 1.8858280641496297 -4.038973723978153
Ni 1.2177315288844515 3.445965615899256 9.528961049224351 -2.775365223265201 -0.21723970518589683 -0.65595295113338
Ni 4.977223236461621 7.39428711456666 9.444016782206065 -1.84579984458315 -1.0200031610493336 0.7615720692267917
Ni 2.199862903490886 6.69912373972514 6.618523492199136 -0.25720878937966674 -1.5612368315602467 0.6044756091896945
Ni 1.0881972338451855 7.198972745827172 1.5600848521292352 0.1914425416171348 0.6927117559199683 -2.470901871773944
Ni 7.759467816220956 5.113501122237418 9.096836565070582 1.147980078012655 0.8313510376931424 1.6639305484767473
Ni 4.91130440575036 1.4513335822034963 11.77911411874973 -2.136384124099469 0.7725879607213211 2.2615091734362918
Ni 1.8777616285307177 4.859612793904369 11.591355531784723 -0.5255113746796498 -0.3511635837612726 0.5532119259187118
Ni 3.306588823543574 5.523639095468578 4.557265892082552 -0.1422082300713551 -1.2670190690563985 1.2762745262163955
Ni 5.466841225616325 0.13707250092568302 5.83729654378361 -1.4444730097039251 -2.0531775693733025 0.40287206787915775
Ni 6.10771360727171 8.867664560590663 13.169352063945702 -1.284091451157653 -0.5494763701356795 -1.3252915795450466
Ni 8.981593317121664 5.174221190268393 0.9227868510782335 1.1499143189208907 0.7077449961040069 0.03292734685564006
Ni 8.465019465955647 5.568050589468687 11.73064444470008 1.210327015680993 -0.3229706662668244 0.8030390781223267
Ni 8.004383191173439 2.7396554278375467 8.162916776473262 1.5861821886516747 -0.4653884412458243 1.119051310793447
Ni 4.026987473459514 0.7477088048287754 0.8200298840294099 1.5644306559071959 1.8206274590825804 0.7237061474189536
P 3.904067262613141 3.243546888194534 4.454329465966117 0.5520276758026236 0.4566747155219103 -0.22526566081416688
Ni 5.298066447855031 4.569240622135279 5.727116076644163 -0.1527600374452724 -1.1470290269532957 -0.4494727984568324
P 5.183166392246752 4.884505801684892 9.65664710087657 -0.18034411771112813 0.07725985022442823 0.1719551223164845
Ni 6.62684983790826 4.111619999726332 11.241982028828069 -0.5730924668927228 0.10838691064653591 0.1691978712863215
P 8.896442764680298 0.49710994270410697 7.928908627635241 1.4770190619607466 -0.36536918583769334 -0.23197238341038115
P 4.5499996499377735 8.254127310110102 11.743980843554477 -0.2688815977319046 -0.5698089110454445 -0.9546117801277173
P 1.175133126495262 6.44740002076431 12.921805856063909 -1.1270484700663106 -0.39463785289482356 1.0073283937951427
Ni 2.926588873110237 0.2976208380258036 10.798742183043277 -0.3134753251818795 -0.6580270600535894 0.49859141036035415
Ni 3.0011661413103776 2.830902038297257 2.5035631486937096 0.330871666281456 0.03750365337241283 -0.20926671428274926
Ni 1.6926875272059592 1.1122576995594702 8.855571424555183 -0.7022441208904358 -0.07073850416614269 -0.12999214762113742
Ni 8.043512668286635 7.3697918768844515 13.62022817057138 0.3797930745725072 -0.27970388515838923 -0.5479648185871595
Ni 4.451602428175817 5.691303817141556 7.6946840178599984 0.3290212433362785 0.6558159113348835 0.35158987266541386
Ni 3.3154600217827124 6.407882024020203 2.5469145391294745 -0.20754227539247483 0.6654346653715701 -0.5842525972746003
Ni 1.6583220408051256 3.5137530410258533 0.2973192727884773 0.05051986312642266 0.4832465524731678 0.03162508310444877
Ni 8.27876130480335 8.75117342458913 11.630889254323415 -0.5535199440774339 -0.7467337186623786 0.26728082890368804
Ni 0.6779630557530377 6.067520326407209 9.825072210970044 -2.663665703305664 1.3134094833954797 0.31709081044727966
Ni 3.9557773753939376 0.402183496311624 8.529701509175178 -0.25100266056895487 0.40281421805802886 -0.45614403982942087
Ni 6.515992236554938 8.91734882101028 1.8970840048413669 -0.5775641295108311 1.395053578730533 -0.47945520375153555
Ni 9.100110305484378 4.711938332288511 3.360188806814731 -1.0883325415533516 0.8343165480793696 0.1303014513314401
Ni 3.316070552631287 5.488367063262285 0.383637234216057 -0.843021017831903 -1.0878016087505458 -1.451194644698475
Ni 6.016596503355637 0.054141135614212375 10.347135289492792 0.6320185518049697 -1.481262924838765 0.5494491164421699
Ni 2.1591330955170314 1.5193892708847703 4.892761843841754 -1.0267523068477091 1.594460369500067 0.46910317109325017
Ni 8.179050516670218 1.0253033059745884 9.843715602973338 0.6816922648810131 0.1158024863843167 -1.4028715321130547
Ni 2.701839517095526 2.7842796825879157 10.939250307562304 2.218168601667128 -1.0115745706660062 1.676186740136281
Ni 1.0168946311055824 2.6797494009380047 7.087635970262393 0.05636372350170938 -2.0186396834974327 0.607385840857954
Ni 2.998696266513871 7.9832736245605975 4.795132410874217 1.0390244393468429 -0.6731117223008536 -2.1279136247346124
Ni 0.6428797330817587 2.817451858693808 2.531886229787134 1.4541861232266309 -0.6188352203454762 -0.3836582139548683
Ni 1.3928151254143513 8.636236367111241 12.930768633930333 -1.4313310730053284 -0.2241163777010721 0.20260370044027687
Ni 0.4814479763446854 8.504417206623522 9.9004033922635 0.4512373465564229 0.002438691348479671 0.4220797511558602
Ni 3.7380676250726403 7.798079267159604 0.20270271705398296 -1.5252341882133926 -0.12848033896230132 -1.6017761864351898
Ni 7.947705577397421 1.8281606223177245 2.269907442663729 -1.5681510421815767 0.8043886501716856 -0.3243726888206736
Ni 7.6516351177083 6.7847460660040415 2.265439466908251 0.3989655337359 -0.43567908710684966 1.152338097871035
P 3.972853738219224 8.477748109101691 2.2810357549491136 -0.8180679474309911 0.5285496472853413 0.6647620647845778
Ni 6.424791878432241 6.721981644677081 11.670098285456275 -0.44183533651623264 0.91517979938434 -0.19499426352413515
P 8.668464995542063 3.168368339613222 10.75820663488488 -0.5245580096274449 0.7284279783746551 0.27830237682517234
Ni 2.3526898754500176 9.109120260734556 6.538589278326124 -0.5250588605232634 1.3069791543891038 2.6176357576297953
P 4.068781085184674 7.5817293355464965 6.721434017006845 1.0235636247070823 1.3853777462036658 0.07119230387410966
P 5.945155143604994 9.192624229978252 8.21592195469043 0.326509018437386 0.7258890140028853 -1.5435427567145932
P 7.906004470346287 3.950967132344561 6.385531044681927 1.0177480464665698 0.32765084535131317 0.5093324509269421
Ni 5.377842478735459 2.0378224659987185 6.964364241654719 -0.5413491130428547 0.8067892891933783 0.8235338556415689
Ni 6.461173966726852 2.1513349514966 0.3796549079992175 -3.0559062596129047 0.5980596783610216 0.061915249447557885
Ni 6.943484086633464 4.1033038295313515 2.294412855860082 2.2482903607531726 -0.8269148562986598 -2.3455698486326377
Ni 6.7434612299860275 0.9153420749125832 4.1315455065116335 0.3338667443540379 -0.07080509573802 -0.4090293457298052
Ni 8.047684629085229 0.5827239435623452 0.13131686010775606 2.815072569157152 0.2787250661848877 0.6925721450183104
Ni 2.4102925359663003 7.099141701617805 11.27776561188173 1.1295018167028095 1.0772027501887769 -0.8308753836083046
Ni 7.299923096592258 3.526176418747608 4.460069380989459 -0.37714303854416986 -1.4667112522768353 0.1895137000255381
Ni 5.644894222182475 2.2681498538572265 9.776615487574759 -0.0758259459913791 1.1703530463912168 -1.6707653120103934
Ni 7.098679178247672 7.506301024345313 8.620954594962068 0.1342169843357624 -0.12515153169938445 1.51180840172579
Ni 3.9508838781379376 0.9898555148876452 3.8359625464546325 2.289438809967025 -1.3371258531758132 -0.6588945502602072
Ni 0.5437637500026169 4.939740342546097 7.520166549935141 0.31415923862278156 -1.2726017053504988 3.6350436471481267
Ni 0.5002643520884096 8.402810072672848 5.1079785931980375 -0.57436310607503 1.0077222867994515 0.5913629830671364
Ni 2.339951981836572 1.4031386470357055 13.055814602185835 0.9239865990426925 1.2043692554356613 0.43357309650744036
Ni 5.445287636568158 7.96224731215438 3.677082068627209 0.21811208048852113 -0.4154871855400071 1.6196209279260945
Ni 8.583665960861998 8.973656416090193 2.779555468885384 1.326074480457658 -1.4238288510910122 0.9018851391579629
Ni 6.249615777228315 4.018884064014795 7.9585998528575175 -2.9910036454022486 -0.11924725039980753 -0.4038717127882658
Ni 0.8949068673733958 6.685719812458705 3.617131639484135 0.7732441062480812 -0.02418636743821641 1.8641315530128024
Ni 4.793906723943366 4.452305463698418 1.8980997061621774 -0.7226126572444588 0.23259330482383167 -0.4743482215422734
Ni 7.437607053413256 8.20082611693605 6.297906917257093 0.44195823524734207 0.241883471876506 -0.7082299061602254
Ni 9.185538371947823 1.8483266412554948 4.654137711769812 -0.5143062499924498 -0.19500583348836092 -1.0428607823737976
Ni 0.858430424311278 4.090232919091411 5.410182112775113 -0.4033533783909505 -0.10144467500074786 -2.1801728391496455
Ni 7.769856091114129 1.303825629000887 6.319501208361832 -0.7888046796904996 0.2800795233302531 -0.28739508315505985
Ni 5.50128071575638 2.3013867832349373 2.6015311487681827 -0.08706398079904361 -0.14362645057512036 0.4210610800833587
Ni 2.9270328955455645 4.2661028053505365 6.664042267147342 -0.14754326913102334 -0.45397017210655366 -0.4322662047705588
Ni 8.29763225830475 3.3145812273794606 13.419187762509655 0.7599515029042331 -0.6862842551270697 -1.1875969210733288
P 4.3942865321490165 3.30070552627549 13.042004579400425 -0.23318568699219194 0.27756755554167684 0.0568882285466117
Ni -0.13112537543252126 7.493091356894333 7.850883710234134 2.5815595807325282 0.17876443192883407 -0.07284243788302294
P 7.3808646863654195 6.891709220580848 4.577276503167958 1.5002106695858612 1.200245977295907 0.7305553091303031
Ni 2.387693644101634 7.756239403097433 8.784830325186922 0.3059707892747182 -0.050825310181983434 0.019731416990656343
P 0.6456012205916174 0.8889134895432207 1.4608301120390534 0.5933933832336039 -0.32681009461757266 -1.0820809042166848
P 3.096149940600757 2.0213473835546045 6.70778587740098 0.7277960012176111 -0.6620765475326147 1.5019911585250518
P 1.8068382949546231 4.76264014412242 2.2720054486706496 -0.11579117353040703 0.4003433879200331 -0.4112335524699756
Ni 2.4645095254132143 5.263266189486273 9.19366768270127 3.9374742844800705 -0.09202055347337056 -1.1084668504093813
