# total energy = -381166.86407721747 ev
CRYSTAL
PRIMVEC
9.22262415133043 0.00000000000000 0.00000000000000

0.00000000000000 9.22262415133043 0.00000000000000

0.00000000000000 0.00000000000000 13.49824268261620

PRIMCOORD
 96 1
Ni 1.6690828624951244 2.1644392316883128 2.0405295863147734 0.09857866630686249 0.10106440884319368 0.4183915036709956
Ni 4.502927827555543 3.4885498354343687 10.039169539269784 0.05529131637313704 0.2466551822335365 0.8326327326190434
Ni 6.284748048450576 2.8021006925135854 4.436238109596971 0.32786810356844176 -0.24486595154359764 -0.5360500694274446
Ni 6.856864318982316 3.3987122529594407 10.889869008141416 0.07268225815607482 0.2640124425650614 0.8722385199361237
Ni 3.4621639075562483 0.5381641017479182 11.834125543833746 -0.818152022504365 -1.963286403538109 -0.34577069488047546
Ni 5.002747946868623 8.173163360018561 10.134993527122441 -1.7643907480770387 1.837228300864055 2.843432608357084
Ni 3.454721249815024 1.341301575282168 9.032038685256483 -0.2130860880288395 -0.17814659583917705 1.5447270068306818
Ni 6.899703408459375 1.0319563138743013 10.51225603777185 1.7404314090479638 0.5102667898157535 -2.111081383668622
Ni 9.170082924501399 3.1401744283500936 11.43467155479904 -0.1886626648791525 -0.4505135810165209 0.7044593833741997
Ni 0.42749445569693384 0.9070248017377788 5.7191245053659525 -0.7638338686777749 0.31074301385238096 1.5741604816004502
Ni 3.7733168033101867 8.465548215495682 8.075121331042277 -0.23094548480776356 0.024446563078138542 -0.6267516469790755
Ni 1.2500805991750423 2.3063938636002406 8.149699159491643 -0.19835263847340676 0.003110520604523675 -0.4436461644727263
Ni 2.7414711609264613 1.2994769744687198 6.669278909243553 -1.4114564455685885 -0.5959565159750898 -1.0002776575959482
Ni 6.768622250496523 5.994880969384056 3.202093282802426 0.12971215448687337 -1.2672728369384174 0.08016005459035871
Ni 0.19870051644226175 8.416290179565225 0.7741350871664328 0.609391301323757 -0.34200351452855937 -2.4785437045899186
Ni 8.793015933485341 5.716062594126688 12.21415484174755 0.3555948800597489 -1.0555468624818982 0.07196826280818573
Ni 6.708361623877985 3.7752904448921227 6.364624274511259 -0.41555172022935527 0.7558667913118983 0.8663674058673272
Ni 0.24832007924193392 3.9111304769497357 2.657817347987458 0.1187170889279504 1.767790260676891 0.08703724132616623
Ni 5.204068610850267 2.038384403922445 11.994943209051904 -0.4920242986657978 -0.23783244173558393 0.047700391399756556
Ni 2.242453409920056 6.694739807912943 7.966393047388478 -0.8138042870586307 -0.28456198458163895 0.7822882187282204
Ni 1.5740252747147032 6.246068362494325 10.198880489582182 -0.31401191441163984 0.48287605650762644 -0.8164532946457037
Ni 8.9325357926046 1.353549220239226 1.4197455278023143 -1.3324904112863307 0.23470443762956353 -0.4283930949683977
Ni 3.662184181523627 3.290752213902721 2.6620293204662895 2.552048972867921 -4.03999805147761 0.2863231902471198
Ni 4.937221201823518 1.4412748217689986 6.789318741496623 0.411426128096756 -0.011548109848915595 -0.05989384814215491
P 5.456574839223232 3.2664967122181863 0.9401238777817443 0.21663986681836883 -1.9618193320742792 -1.7086407468999285
Ni 7.161063356078406 2.9863410564496937 2.1643894295175534 1.4928588572064805 2.2056887240325627 -0.37061037963197463
P 1.9870605001679054 8.514474236954413 10.175083352321113 0.4582027221306625 0.4191759472455039 -0.15600836917924102
Ni 4.119202101856506 1.9384388253082587 4.484885607804419 -0.5139043865683408 -1.553605283156918 0.40621038822377137
P 8.64808239395208 2.656208000062001 9.435042462351408 -0.34323455872218306 -1.0800906132595334 1.0954197874174358
P 1.2154404226248083 2.287063243246329 13.360533487465778 -0.1671605291413186 -0.2425725275237306 -0.7292684719980795
P 8.172277988093954 6.270997115746529 10.22267854910567 0.0652715675143005 -0.5337185930807905 -0.634572685685391
Ni 3.6309471533085995 3.287930090893038 7.8645217848382725 0.9915976133234471 1.0146976896760203 -1.0943108706239735
Ni 7.204216014778764 1.384869252072185 6.440429634243593 0.9657078900408788 -0.5018279150197809 -2.56284374949058
Ni 2.106179914524354 4.003817850306992 9.672584060673678 -0.14322741536448882 -0.27810723009523075 -0.45930958204159605
Ni 1.89397655396942 0.6175376947889015 4.006629828430039 0.9953398539746988 1.5424171277505823 -0.3091617854081901
Ni 8.788967201455108 2.0810851540362854 3.842491096232186 -0.22138895146758 -1.1541453262831027 0.17901280049421428
Ni 3.493419381019705 8.045430014645627 3.221530885597227 0.9727311154362475 2.789334283850783 0.20644441434260574
Ni 3.420984890437826 6.6556174359943885 1.273240453102877 -0.6277908868768671 0.06745083455380642 -0.8298780526920417
Ni 6.045365614335062 8.315007320439912 6.859469710322955 -1.5682425734541185 0.27025482393034744 0.4953968146824565
Ni 8.5313977523883 3.9958126124886726 7.909389851642556 0.03253113985848591 2.159332762475843 1.4709440594112602
Ni 2.470399790009402 4.349389579630012 0.7313836126194121 -1.4419772398652648 0.02465276555167367 -0.2861408990329846
Ni -0.021143788274511802 6.726742313937787 8.23962435689661 -0.19512204735125105 -0.6589822248780071 1.6399753232127303
Ni 5.996338144009971 1.2450634916022716 2.6794148893733305 -1.7466074559516889 -1.2365808071711992 -0.5579047034086907
Ni 2.309381993845788 3.264412399145675 5.073368347267479 -3.106045085250825 -1.403373668560454 0.13222875026114
Ni 1.6256996381894002 4.605003832363314 12.01203180945923 0.5387929222799043 2.1134334288405667 0.7093673621987784
Ni 7.242757361371797 5.942957595055563 7.3510346587015 -0.1940100452339949 0.6265220474667725 -0.6143841265526581
Ni 8.8678298611146 8.445553566198315 10.167767044531631 0.7476917117002736 -0.3143358734099619 -0.25660278036455164
Ni 7.115909387923469 2.0562486270262266 13.333375625940892 0.08388275485758458 1.2089584174682406 0.016047283270849783
Ni 1.122245804935747 8.886634791888275 8.005254419041758 2.658295440132686 -0.6834521849949133 -0.06538829559782286
Ni 8.231846917896394 5.940937840352555 1.3916414250330045 1.7422049560086186 0.4424382602075541 0.21515993983873266
Ni 4.163424584965763 4.242794488957061 5.067902097895455 2.453248934578872 0.969119229715273 0.8676984659739251
Ni 4.443571018110041 6.31795871824754 4.0597318541331635 0.003123890340962362 -1.155859480760732 -0.8226077442828735
Ni 4.654243423045342 9.319830673874707 0.6017421062964665 0.3448515255003158 -0.052555919719844975 0.15442148430809532
Ni -0.13798244766267706 3.208938314494541 6.031325091230675 0.8355321656540257 -0.3079669937691406 -2.255350610034064
Ni 6.717962375685437 5.295372590575325 -0.1442879558382348 -0.8181864752867264 -0.48869857672667444 -0.5074560598398358
Ni 2.6060738148311513 8.560061668447439 0.8450524560650015 -2.110924289265468 2.3857032263184137 -0.9776498928941034
P 5.641968031186171 0.48844677913157075 8.638740797885058 -1.099068954134249 -2.1189574439825893 0.17312111760012766
Ni 6.255410880823767 6.423889779977036 5.366442132773435 0.0938421800631416 -0.01036257418124667 0.7678846417083808
P 1.0539522726262471 6.444207221121914 0.7954006140805779 0.8915390200369485 -0.7075267094456137 -0.3784872112768901
Ni 6.81855353799465 -0.0781488285452775 0.782310943532722 2.2827840236546684 0.06585932169697044 -1.2751581532237652
P 3.3460787365664206 5.923746868816443 11.47183227454714 1.004667559133528 -0.15021207421243807 0.06379601141003852
P 6.362992792287686 7.149931648651321 1.208368514377013 0.5247801529405801 -2.762016055651804 -2.2334311842531536
P 5.051471070594631 5.047357780194895 7.067207476233154 -0.3438287406627562 0.303531069484974 0.15159044261720345
Ni 1.5149820344924996 7.901142058807392 2.8368718303276674 -4.251874435469064 -1.4951371117176961 -0.8519972531885843
Ni 3.3929204449526393 6.427873953637765 6.150663081781011 0.573325151728819 -1.3282550330487448 -0.3165349379438097
Ni 1.467734530640836 7.289442285146365 12.247941003295507 0.5819401470913397 0.9135618041649427 0.9756706576805453
Ni 3.7676541120423908 8.54476133487533 5.602782945422957 -0.16584206744021118 0.9638824067963657 0.02816000737398376
Ni 5.711967748975383 5.687998148641501 11.25428163647255 -0.5022251504581996 0.03094785453176605 -1.4635305405560086
Ni 3.549695833977513 2.08706141452738 0.4858247870673451 -0.18359167811414834 0.5936083274578874 -1.1308724717980911
Ni 8.945189233027103 3.826060991193783 0.28600741083268894 -0.0640513219539542 -0.16302593814765473 0.15531648531853898
Ni 1.9944293769154127 5.563372827628904 4.2693455018086235 0.7655763052901783 0.019222081454405605 -0.29124273903592424
Ni 6.736029496521941 7.519629762919872 9.122840954224264 2.0989648029107464 -0.5286334652483993 -1.0695575749386934
Ni 7.460346734468088 7.518845839861626 11.901346484947082 -0.7220395583498082 0.2744758039902305 0.6620829752905177
Ni 8.744661714727918 0.592128442815113 12.274235627193903 0.3213259315745498 -0.07924114232051514 0.5756394016842925
Ni 0.9839894453338949 1.2573019139351151 10.365219739917649 0.6722498885211906 -0.31941483059476605 -0.329877934909619
Ni 4.712133835240715 7.270517460257899 12.747430030399283 0.2370891358116562 0.38335328111993977 -0.20337168895455296
Ni 4.369854582762325 4.164531299871522 12.641347717632666 0.021670285884582034 0.6613931483123449 -0.2687900664593629
Ni 6.65425248761062 2.2166392847432443 8.450831674036362 -0.1891843417105774 3.3381923036761734 0.609309540243228
Ni 1.3805161734428693 8.052798891393135 5.306685983699439 0.10529798730856703 -1.2197089711165252 0.5889590016113341
Ni 5.638758557959473 7.996919011276557 2.841879715276223 0.8270382692504015 1.467994232754317 1.301812779696816
Ni 1.7476042850586737 4.370002144749759 7.156821871202087 -0.002977080350452937 0.6434509620116273 0.05527074754784675
Ni 8.537530797491042 0.7859953819064756 8.186495585583263 -0.8493991534441049 1.4807101376590885 1.7738079276258807
Ni 2.573997527812591 2.706600418770861 11.569384582177625 0.8157791513968145 -1.7466033421866307 0.4368846773791767
Ni 0.6103569595753733 6.008050876762579 6.0513566310249 -1.268729366879286 -0.23304504764926964 0.8873722902537685
Ni 8.237675616400054 8.373829217680965 2.5652738475679513 -1.331560957493526 0.12909123307342285 2.2438302680992903
Ni 8.248622871342846 8.262106347944668 6.830596440694143 0.9878556297825116 -1.001027134167463 -2.176692851020845
Ni 6.391380029620387 4.70017209163431 9.10364682870873 0.09635260518982115 0.47244072010691535 -0.607743738418005
Ni 4.507354687178576 6.324405332573582 8.875891356940627 -0.37601715246984274 -1.6933632519155675 -0.5245574954068127
P 8.060592008854515 4.2828114554244365 4.360702050491704 -0.26307296146992754 0.20622329947073517 -0.37459456109070327
Ni 5.673537073872926 0.2209915991690763 4.739421735767028 1.8676963875459254 -0.3017472381116738 0.30575815904327985
P 6.175598290870167 9.161385989866982 11.961076810673278 -2.4690267662384184 -0.3459753546921138 3.177686303736895
Ni 5.071945296351159 5.15015314969141 1.579591128428246 1.5101562108343476 0.9817394895824447 0.5555007219528885
P 8.073337675519165 8.909728242921764 4.644286677943204 -0.10942152255863734 0.42118166482162306 0.7693715106665523
P 3.2197195622014694 5.080319439138062 2.560805486135952 -2.5220364856662303 4.96162386359761 2.6672449360164903
P 3.498390375471403 1.1021128162751612 2.517287611516694 0.7548280656347388 -2.233106453923883 -0.2597184431753979
Ni -0.18065460764145164 6.408303545054273 3.7913461113874107 -0.23647258527357987 -0.37384277052634324 0.27482547402016544
