# total energy = -340888.319622364 ev
CRYSTAL
PRIMVEC
9.04356611805455 0.00000000000000 0.00000000000000

0.00000000000000 9.04356611805455 0.00000000000000

0.00000000000000 0.00000000000000 13.23617315144686

PRIMCOORD
 96 1
Ni 6.377983960470921 1.6938779977116296 11.082951621263984 0.7058585777145714 0.49915576750425644 2.4628964849709645
Ni 5.000287117023497 0.3471219065977128 5.773261502688399 -1.1018334042532636 0.07216263820717894 0.4623159729680877
Ni 2.9532036058703364 1.4949285894209647 4.876020381063626 0.7415686295216712 0.6932943678963156 -0.4515893305792029
Ni 3.488808801834455 4.339121050805839 4.5052884367267225 -0.6328873275631681 -0.7368318861676343 0.50887633722613
Ni 3.5805738659703423 2.574160624385422 2.4671960388842855 0.7984483734278508 0.976303406168538 0.622865938771424
Ni 4.999581718876004 4.551816679406601 2.685804350931587 1.086403957072071 -0.4211443838257844 -1.10255357024874
Ni 5.410114397150232 4.396728566184335 11.670188344198102 -1.927559896670777 -0.1668352845914159 -1.4835910587513093
Ni 5.763084777875932 8.002877636784252 12.055466864435527 -1.1908974462014716 -0.12306919524905903 1.3011026410036688
Ni 2.085473448795501 6.6340887058404086 0.29301334690209574 -0.7269668204480964 0.8218580106010426 -0.7310219643540765
Ni 2.820579710575887 1.8523303174834713 0.17314087965845903 0.26067669332360915 0.036818454379930136 -0.16761998527624034
Ni 8.15574103277212 0.34719787255205803 6.530317403491572 -0.17838390866096376 -1.1260501107087835 0.8635080820416613
Ni 8.900632432957456 2.2755782495445382 1.2231522485413686 -0.6741982704968131 0.3753592071708697 0.27190598638052527
Ni 7.030875163804541 0.9109222282597175 4.592198010280708 -0.7348017431114828 0.695802221919834 -0.6814629224790264
Ni 0.9522694119819286 7.316308193690897 2.3080971041439096 -0.4743700759191443 1.5137590976942576 0.02150393551004684
Ni 7.594850026290219 4.240754183494708 3.6722439726632974 1.7999113095811519 -1.5546522363641935 0.12117352088824293
Ni 7.5868645575179725 3.843940594832597 12.347946640944004 0.2993257731543748 -0.8148910923649063 0.8920483555731993
Ni 8.00902726165982 7.631883429033538 8.246678610619602 0.6616237762659122 1.3545239940476028 1.8587995992769275
Ni 6.806395768714268 0.915823841028186 0.3935334872762751 -0.51189146990337 -0.41284666259336644 -0.7473901212994547
Ni 2.303251561484601 6.813449750189187 8.953251517333946 -1.1651943850084125 -0.6346037960336426 0.40418358760172973
Ni -0.12814552141447635 4.7728143015893805 1.3467009253613567 0.7209368122039326 -0.07263546407853942 -0.7675234017142201
Ni 6.523947115605761 2.213620778923176 7.034866993834064 -0.11767244971351992 0.6127334783231124 -0.8743856481861135
Ni 3.1225624662303204 4.595659887343014 -0.0784502219236798 1.097912729042619 -2.29877474265597 0.955007215793923
Ni 6.154797795317718 5.654679552312033 4.683818377360699 -0.09714064830875528 1.619717858515275 -0.5462804889062011
Ni 5.540694446530154 2.9513135005776987 9.278544064336586 -0.651056285162711 0.16540266590994743 -0.6515388812260844
P 0.24468814765931213 5.9197102973170885 12.301010533437822 0.89810047530455 -1.4857104190871573 0.384695396970131
P 4.127393083766381 6.363450949919392 12.378958837448861 -0.08316618840653418 -0.12327359795038124 0.7969764168680146
P 2.541278218433112 8.522656592259771 1.4677987957971106 -0.15232243568722154 -0.2488033389247909 -0.7159519573948314
P 6.681675950098124 8.063804140882356 5.546432589153021 0.4640270421219234 -2.665062840763507 1.246421447410705
P 4.739389281677463 0.9742904951760633 12.513372454453423 0.5747791105665262 1.403147668592577 -0.4970178952256472
P 4.080963415955831 6.181168833754719 7.883993631303703 1.6463678570026354 -0.20555044177342666 1.4460809776209933
P 4.90377418074103 1.1252909165692735 3.6336867290500763 0.09069874933815347 0.017465246664298953 0.019706477289991867
P 0.49287434664490404 5.560074808454192 3.324609295873754 -0.8658832671420571 -1.6445426308684388 0.9073471907137987
Ni 1.2270943389579283 -0.06579556002899696 4.378790653036259 -2.454787482710585 -0.3211148440050082 0.8017818086764578
Ni 2.0526091299751785 6.473004708364463 4.56429589612101 0.5078070154213512 0.6008567814901845 -0.34167775575802445
Ni 6.348501935332163 5.911281693811162 9.011133957118645 -1.1020851152527535 0.6952730888892413 0.14152791617487886
Ni 8.442096506389811 2.7337343463404555 10.155731982727408 1.021943058384524 -0.5496339787594664 0.5343297443022281
Ni 2.5095714760599557 5.39279596827271 6.628000577213595 0.4574110794673026 -0.606712211829697 1.5928526586933147
Ni 0.5008046496645906 0.11434865713481643 9.486524377628346 -0.3994288465255637 1.1252402132129782 -1.4103058769039132
Ni 1.4943950190273492 1.2729994799408555 11.404511888581112 -0.5256841528120881 0.28788513541760097 -0.6453330095256886
Ni 4.429990801908372 6.778568716152317 1.485720430526399 -1.0210645124343125 1.7637880814960332 0.42295624022354256
Ni 5.594377054267478 8.096894548852516 7.971922414745153 -0.40363388574584674 -0.5148490098697972 -0.6140030890641555
Ni 5.442517494104887 2.947687030614311 4.682084725759748 0.382116066278729 -0.1456545367487427 0.06790052049671531
Ni 0.7831746237489545 7.589613801579991 6.498180187377125 -0.09818708729539863 0.7492559708636 -0.5189524905152095
Ni 5.007558144082258 4.606358425913306 6.403078047389642 0.4479892719327704 -0.4932468582189892 1.8931685636751006
Ni 0.5422323211241437 7.330307633848811 10.764807108822595 1.205580502134943 -0.5435921434407607 0.06975891386169275
Ni 4.725118534539743 0.3670620652567467 10.204957016786542 -1.1617925584157152 -0.3645749720711721 -0.9268454086477262
Ni 8.554381421764916 7.211845962900158 4.338407513448954 -1.0078248738155868 0.6444063839463612 1.1290413321266235
Ni 7.192076727638401 6.087124790988474 6.925800683596042 -0.12311007578932347 -0.21024836146972822 -2.853804181399395
Ni 2.5551872229310915 5.4084142067434575 2.2801823289918213 -0.8268436367410922 -1.5671269717924363 0.3513906121704142
Ni 2.3928099955180775 5.64789687781692 11.203163222232375 -1.4109249985451509 -0.8240696735403806 -0.5306124433516409
Ni 1.4290823854224042 3.3050706715448306 3.5628068762195424 -1.5190293449542616 0.8624189627425405 0.6943017261149075
Ni 1.6900525692963857 1.1871308208327205 2.5735221486262816 -0.6187465172864118 -0.43143419578756664 -1.3252956933101046
Ni 1.4904339371222028 3.4712642838070953 8.05026682694671 -1.5183480026165204 0.3079554238049148 -0.15493981870541057
Ni 3.6239287213431064 2.820670146235822 7.112562982353887 0.6765749982591057 0.046804619058364555 0.11560039767583961
Ni 4.346708602674373 6.793933734775247 5.834783073428875 0.2689733861147625 2.125182341846379 -0.6486080807325345
Ni 0.7504559063411269 0.21166104465110683 0.320208254201103 -0.2454135965169515 -0.6721164482671199 0.20977630692931615
P 0.480805707826599 6.124456631409577 7.883504374383455 -0.5827916964583576 -2.349085060874748 0.8309175497001496
P 8.765186945073038 1.7580963598313628 8.19721482641824 0.4695454008369913 0.46813206542923247 -1.087533956911456
P 1.7603482077637405 3.445336380103775 10.359131729843467 0.10956961810072743 0.19926975097103747 -0.5122020591652534
P 4.09588529984508 6.216176477715497 3.649808694146661 0.7797582532175152 0.8387776691745168 0.10816245334055566
P 6.9653183539177705 4.349367411076457 10.173799218869192 0.7250541768064157 -1.1691456563466769 0.8071034779996874
P 6.530883530722763 7.936678733711945 10.034316683125283 0.7903666248609807 -0.2053648081251818 -0.044822041410697
P 2.6698686832944682 8.347862548737703 5.809660951455575 -0.0544618784933062 0.5549811020039925 -2.3249850825027507
P 6.754169175101895 4.081252810067623 1.4087786754104321 1.5479640257107405 -0.09488424817441078 0.30936361700635107
Ni 5.184947691044456 2.9113228517545098 0.46723855012317356 -0.499958723021526 -0.041560597050605844 -0.38410404324303526
Ni 1.3343600752066478 1.0517667250422449 6.7510039270041755 1.0355966446122165 0.3961792292400144 0.6391381935688863
Ni 6.973439476179919 0.8401997334774701 8.964542409476811 -0.08928747081292364 -0.47917058263158124 0.2842799345648459
Ni 2.4662527949511652 1.5533500257388744 9.083177716892541 1.1520411354559061 0.21247365125582113 -0.0580681077873258
Ni 6.696941489495125 2.2516670610577654 2.457083523390371 -1.0911404433157916 -0.8750070838201962 0.4536474986598123
Ni 4.351085688615219 6.693097973947894 10.297504349380866 0.8397816849589989 0.9660436761137428 -0.8945225281453045
Ni 8.329920113806631 7.181803236669802 0.5071894072559906 0.23584780720538737 0.26655680625347 -0.4345256902286968
Ni 8.06324343979076 4.102378580228403 8.093046511522289 -0.4552660080998417 -0.8538335350663748 -0.8592742464659717
Ni 2.91573611195933 8.718775364394476 12.490949836929177 1.381031296309512 -1.2544486885905557 -0.9641937673891976
Ni 0.1440667193460058 5.114579704049152 9.865554698120869 0.7563036217390007 0.2619717579859488 0.825511805303546
Ni 8.756125291947567 2.5402020340798876 5.795166828237818 0.46421910352807144 0.8773874111269148 -0.7841604960502688
Ni 3.651231247077436 2.669027631657074 11.06577155894616 0.8349603523109557 -0.05594514790705204 0.7349956042898438
Ni 0.9203727547229088 3.4282711710740696 12.455450222978355 0.716103138260715 1.0998420848548476 -0.15808402076134712
Ni 3.2101041850472503 8.635104291822758 7.700328753898625 1.0074227532811617 0.4538182199097217 1.9018128696136603
Ni 5.8688040643397645 8.010573711444707 3.4373283024165446 -0.7562313737401686 -0.14484541058388603 0.41875325788578854
Ni 3.3269199269850893 8.329811591014709 3.553978547096703 1.3775909031693951 0.20904997028625288 -0.1875401212389351
Ni 3.5158309770229867 4.326776583224733 9.10119250035156 0.23066600589413178 0.6818568154833353 0.29759722049904236
Ni 7.238822920258722 6.089883078616487 11.651750321850587 0.5314976741700718 1.1584827773161919 -2.005701121058894
Ni 8.017781433541515 -0.11099349415123369 2.3093677251659943 0.709798536198926 -0.00679902519970442 0.45782734106911477
Ni 4.457121499888825 0.5131256039741138 1.5552500789541053 0.9182047022535929 -0.7025122869501579 -0.35454432730804747
Ni 5.989924543690502 5.660060474078157 0.29563417232700756 0.3039959249365345 0.7440574573817961 0.27250839585121456
Ni 8.074773986432453 8.65958522496712 11.856513838718463 -0.2868986031346155 0.7548794876979644 -1.0795329409838503
Ni 9.53191855713264 5.105373353867786 5.708615379897174 -2.441870517538601 -1.1492103508753304 -0.43781875915767177
Ni 7.382181528387438 6.265102169740248 2.458539537515322 -0.9009063201844613 -0.23049297065137725 0.08206627047413609
P 8.569466089842047 1.727429627547457 3.463483199626301 2.01750556989299 0.6196312338842104 -0.03628135092953752
P 1.8053309050153323 3.2944354379364933 1.3265030250715084 0.23560869461138778 1.231641203777737 0.3368127143562393
P 4.740076592692967 1.236924695192846 7.926350076990787 0.8347554353890011 -0.8064324200745918 0.9714836161823914
P 8.509615770097167 1.7310560975108444 12.270766135685811 -0.7183471970998855 -0.41084120212756337 0.0069106110769042274
P 6.373444090342192 7.8327681604468085 1.2605989422505897 -0.02640162992198034 0.6404309442383809 -0.5653107660647748
P 2.0034392616686034 3.2665812546765607 5.832096229972212 -1.3172517399597057 0.23324045148952735 -0.6191658642120176
P 7.207025742225631 4.082618388532639 5.96899773198158 -0.7833122891173606 0.45530303198536426 -0.5343408000458216
P 2.6161227705951897 8.671649342002429 10.13871018281447 -1.0929682405531498 -0.5813451938198182 0.4043226842827553
