# total energy = -381161.7080597128 ev
CRYSTAL
PRIMVEC
9.31020680387808 0.00000000000000 0.00000000000000
0.00000000000000 9.31020680387808 0.00000000000000
0.00000000000000 0.00000000000000 13.62642874761017
PRIMCOORD
 96 1
Ni 8.346395524025224 1.494632660523111 0.5412740067878088 1.9566151621655206 -1.597260300842707 -1.5545545344440646
Ni 5.097868875698767 2.87208705893005 7.284757303782413 -1.1054193218323092 0.27209907622793783 0.531904165579871
Ni 1.450157802893288 5.168672998008755 5.465955347601878 0.4326451853765323 -1.1067719792054616 -1.5106624610468047
Ni 2.878976611922738 7.0609632091044 0.3498068119762954 0.0753052976012187 -1.5038194699830425 -1.746566061190792
Ni 0.12142371639274692 4.522702923290309 7.599159261541692 -2.303765768112658 -3.9448898602178515 0.14413270078757756
Ni 4.445567860392448 1.2053924675179377 1.585230282376954 -0.1505396327551859 -2.321454957862305 0.6650212319832353
Ni 3.5380368373272892 8.166913358358963 11.772730362844856 0.43227751762446837 -0.18448410802143067 0.38488334461122103
Ni 3.883603781151058 0.48371737765795136 5.700043737879912 2.5393772909375234 0.736375515356506 1.475448375039517
Ni 4.708720854092876 7.022549296066793 2.21196453893568 0.6074655450559537 0.6071125325919092 -0.5549762169079862
Ni 5.7742926366862415 5.467549254996943 0.4862851326787396 -0.5762207281090593 -0.5809613281178382 0.3410501494763546
Ni 2.0507871707544503 1.4297777603243782 8.033719678596817 0.03216424343737041 1.071390257272058 0.09593351537453156
Ni 2.390907643631297 3.361608419474004 11.755506480363135 0.3741330480732524 1.422840261925498 0.46260933583879044
Ni 7.385302881545293 3.237605775812372 12.439784331762272 -1.074233126037492 -0.7019553860054234 -0.8384125725256142
Ni 8.29998414339205 8.20634208393198 7.530059838087058 -0.30943972165992517 -1.800087687258016 1.9806385216633116
Ni 3.030742292103551 1.1670995871680399 3.7032678695261083 -0.00804575312261195 -0.2851674793761218 0.2391449898994204
Ni 7.534983075414806 4.11015835212952 1.1813823753384212 0.5296637062851265 -1.2645598088826286 -0.29990529980692865
Ni 3.2535727803832635 7.596514231804905 6.6358936168070395 -2.1893740460329387 -1.0561176473837035 -0.7304501510110065
Ni 3.717435211132828 6.638270512589518 9.044991542380382 -0.15405587343856048 -0.9562022645432886 0.1809447274096045
Ni 2.4941857670743843 6.320969356449262 3.0153515893302916 -0.49243696072318416 -0.1809519264984561 -0.2644482445508994
Ni 0.023169380510273733 8.148832936856532 1.6558156148283885 0.053112563554263366 1.9213864208702136 0.32809358931568655
Ni 2.4198996274410667 3.875531831901517 2.9912595673314026 0.8629390969120687 -0.5318074921010068 1.1202944391719285
Ni 5.989758751429175 0.7067629317135163 7.1926421182288305 0.6882614334580985 -0.38869191972403383 -0.0036075148456002383
Ni 0.827495830765645 8.299323118713025 11.538246288780078 -0.1002956489979692 -0.14209175909814886 -1.3595260752478844
Ni 4.198344630435923 8.899123878173715 8.159233368813466 0.006133366591247502 0.7627779166094347 1.7033748705152987
P 0.749170923445533 2.209042065037836 12.973886686292964 0.8787570377809317 -0.17959464113961326 -0.5933990396605586
Ni 3.7211872244518194 8.060981825993016 4.1202506162431325 -0.17278738840979274 0.8393592527095997 -0.17854280283633123
P 4.897950806223116 5.975225518697303 6.737397214844173 0.05835838533423497 -0.3346270195588301 3.030157175673259
Ni 6.607053389367245 1.1099628483624666 9.57448720661272 -1.2859215623878564 0.5486379333947841 -1.1770106609170503
P 8.059557364360746 2.4503905545370825 9.638600083333726 2.4297858184599255 2.009357486864559 0.8079578555801826
P 2.413280070444038 8.055963624556451 10.14768311927354 -0.7316850518593722 -0.1107060456980158 -2.191783169695064
P 2.5060004194361687 8.239449179123868 1.8806785212409436 -0.3525280682089671 1.1391624797210251 2.729235004566042
Ni 5.826951166046568 3.5894664193970285 9.978252252811204 -0.362527345513524 -0.4407277052743507 0.1463207095778319
Ni 7.357223297996717 1.8058077006239222 5.67424887906702 -0.32413640444015146 0.32063250505195107 -0.423241118453813
Ni 8.716029352289665 4.366086625394374 10.62602571457652 -1.7624775902147258 0.8565067110231636 -0.48671857018216824
Ni 7.5583423841427155 6.552979708581392 1.348154246753848 -0.7338735748702587 1.0444139857935304 0.17965120540916157
Ni 2.2594382141586715 1.1712333189636526 11.31154368551434 -1.5135289839613224 -1.2443751064046376 -0.9671387089501342
Ni 0.23586850180803617 6.022446887317455 2.2213259518196633 0.12319903595870395 -1.1874583386129358 -0.26442073374707364
Ni 6.471608501613703 9.091658953699094 1.9376914342967835 -1.5372582092574623 -0.9898626329102113 -1.2564037554343974
Ni 1.2042845529150596 8.537627170606042 8.414360964298089 1.2144754906317277 -1.0622412437829385 -0.775850690632993
Ni 3.5949594413776844 0.7166634055681435 13.079777253749224 0.5554922373124562 1.185845999820493 0.9192776236027975
Ni 6.273859710310074 6.1929819442999685 5.170276215610566 2.155117438842914 -1.6326363663491559 -1.0419629531498764
Ni 7.282229582650637 4.907512388552156 3.4095913630060495 -0.06012113366161259 2.920225289137106 -0.8801099522644003
Ni 4.809578323781777 3.283858882930848 1.4948058303686027 0.5338443200253773 1.369714842855428 -0.45717376664551584
Ni 1.7806980730275996 0.44947909234631767 5.894833745479385 -1.7735382189042617 -0.6863356771902954 0.49313244412831203
Ni 6.133489723187436 3.5934418776779435 5.539606531135059 0.03174669628397758 2.812168251026163 -0.84511055337108
Ni 1.8693684820848395 0.9596868012611532 1.8618877309637254 -0.5507454666560903 -1.463897436977124 0.6161818418830292
Ni 8.034140499941776 7.747088205522118 10.609919056904424 1.2212038104944969 -0.9870740144214806 -0.2747910212378042
Ni 1.9201556598890441 5.903322791991186 11.846721368924296 1.2626253108640773 0.5631548960640366 1.9360784756647493
Ni 1.3566740169479135 9.070608576244409 -0.06754648096925457 0.0613272381545718 0.8691033167412515 -0.19883626297804466
Ni 5.128238770107075 3.03709185310492 12.875326044608519 -1.2154309125664617 1.2687519925871054 -0.6724393788241774
Ni 8.157770735333532 0.3512443078980129 3.184646526774122 0.8297677523664226 0.47374452652000354 0.673076241077228
Ni 6.298550378602787 5.868195381935225 10.1234421339667 -0.09280602548914338 0.6527316159826049 1.3156257743205084
Ni 4.666834233938685 1.6571888703235527 10.978105148019726 -0.7399935717250675 -0.4591943966199704 -0.4948144598164252
Ni 1.0411045592625774 3.0161066470974633 9.820267354523478 -0.37081478233329684 -1.311532320977425 -0.6462892027913708
Ni 9.252111056774742 4.264298135030787 12.882670866711127 1.5947136231614536 0.9574801028144478 0.6380454747253398
Ni 7.646705556377309 8.86487162755196 5.5308996257853815 0.01719682349426071 -0.7325260597034287 -1.9294591705760191
P 0.6846688800825066 7.842368861369639 6.101710263477652 -0.01609279179680454 -0.5222576436290425 0.01995895962043014
Ni 4.963727416889789 8.14487609898911 13.543048486370362 1.5352530059019753 0.5024606635077733 1.5418697398875445
P 4.13473729794127 1.734165659706717 8.691427130961047 -0.00841007844056616 -0.29758950718955846 1.7062401078782359
Ni 1.4177024221736807 5.3877794035897155 9.87767595136606 -0.09461351101152737 0.05291947370685079 -2.3672334496490004
P 7.428362587749592 6.463992752494759 12.424455076353542 0.24318547851738118 -0.1514893982629649 0.37684504768777677
P 0.3295226645368783 4.352056143826832 3.5812026798885017 0.6479254528432131 -0.034643558215798405 -0.649964594760429
P 6.3254568761012555 8.299351049333264 9.35074152500979 -0.6161784994489194 -2.8186708280313715 -5.44097519478143
Ni 8.452261884943942 4.118490987167974 5.264924708419974 0.47906619584323307 -0.31596569570390104 2.4160437862834843
Ni 7.548808732433916 8.46517514170186 13.445837824664215 0.4215824998044675 -0.41866764015051766 -0.8909201555060269
Ni 1.361198777426895 6.097961974241359 7.502589142059729 2.8473414564931865 4.471737437210422 0.5751791742184224
Ni 0.16176949733033077 1.5479894553894529 4.658685009973145 0.6831608790067396 1.178423482104177 0.06301053939426567
Ni 4.877524212620471 4.814056533227022 3.026538733757337 -0.10012312797584692 1.4487600671150536 0.8649299020898523
Ni 6.13508176854115 8.910715085573575 11.133323983882956 -1.9310576254113905 -0.11432924427289987 5.437836392042132
Ni 7.25883303309574 3.3847256628264946 7.8932863820682995 0.48816584415165604 0.06924597878101624 -0.44517905617748493
Ni 1.5468908509933217 4.796460242475428 0.9218035700081179 0.2550310650020576 1.309103142710642 -0.8810563753380698
Ni 5.693470731916618 0.6332383669920931 4.254375316679966 0.6405494720941163 -0.714709086126666 -0.4768270221000691
Ni 7.0804401616188635 6.137334838573895 8.088539106943093 -1.9868500497906623 -0.38458638219609254 -2.8680105548067636
Ni 4.70856258057818 2.7325829210348713 4.1024541560464804 0.48522501635577725 -0.11632853409111578 -1.5911608728131887
Ni 6.137092773198476 1.0900203855106598 12.90349221307984 0.28126917276298014 -0.6297827204959153 1.312110304968082
Ni 0.9284175408810981 8.543185364033926 3.945627447478066 0.9489131870810431 0.6093887302205956 -0.5351321855988656
Ni 5.196761891764076 6.353294394274413 12.101522176152102 -0.6179106516486778 0.13206651365166286 -0.49596862802552644
Ni 3.0404714581540353 2.755960850176275 5.50577230879624 -2.0439488516861832 -0.16803624687805255 0.4292461869973124
Ni 3.6360919347853793 4.899533541370085 13.322354690539058 -0.20811151763238353 -0.6216014702367036 -0.05769735471146837
Ni 0.453881889116915 2.6811533389651325 2.038309631672288 -1.6421749019672105 1.3043574004955407 1.0854817023681178
Ni 0.4059082557916162 6.824521198560756 13.313225101803072 -1.6874042061186554 -0.8114956935301121 0.4082107064832518
Ni 5.438082450643083 8.000856510821697 6.069606808573076 0.180909760406611 1.4470312573494046 0.3830547760429145
Ni 3.096332698635287 3.823543637426966 9.02545128046004 0.8881387361061478 -0.8704667727476815 1.7881220302557077
Ni 8.587930217659409 1.0715396251181124 7.32009046940748 1.5675069808396744 1.6054621199272092 1.008424969293431
Ni 0.1084853220766144 0.7194992945432416 9.665471202046557 -0.006419273262782493 0.3689466187763065 0.046990766927241655
Ni 8.449682957675059 1.0304164419171644 11.712432808848718 -0.2918531189264135 0.14146698102995636 0.7278386815300885
Ni 3.823646049701181 5.814540660452984 5.011895633536098 -1.0000233754932972 -0.828790733165134 -1.84390776976676
Ni 2.3862432300511123 2.7990671074143076 0.7863046830554449 2.0382474304260314 -0.45462914584679126 -1.856784625729428
P 8.88435789027317 6.1841651785106775 8.926482851720081 1.4573436950190062 0.6959433754833885 1.652557530753115
Ni 7.437402798500807 2.7891424270221385 3.61565044485194 -0.10149481151239295 -2.5307219292553707 -1.810659035015959
P 6.638512577964936 7.3359215449598665 3.3666685168409303 0.24756740963516072 0.2847476182298838 -0.5552284421281083
Ni 9.116619617987467 6.555586566470518 4.3777765209857495 -1.1998117179719658 0.1773858064137526 1.3423449354829076
P 6.793350626372217 1.9869284626776331 1.617620491649333 -3.118298448696881 0.933898973060398 1.8903349508810476
P 0.8850803905157432 2.815602034596758 6.4681246222490225 0.3881597013696476 -0.6945858330142295 -0.28643169080052605
P 3.9448090803050153 4.970486626988021 10.820011320313062 0.4815403684153385 -0.24922397140197727 -0.16923489517184404
Ni 3.319535595184874 4.436164551578104 6.953689144925555 -0.04900908290885108 1.7603168351179812 -0.3738687386682723
