# total energy = -340895.90538025316 ev
CRYSTAL
PRIMVEC
9.05460307138892 0.00000000000000 0.00000000000000

0.00000000000000 9.05460307138892 0.00000000000000

0.00000000000000 0.00000000000000 13.25232684828771

PRIMCOORD
 96 1
Ni 6.435821695958689 1.9985410381478597 11.431152026644838 -0.3299131590229286 0.45538916394126727 -0.07235598516490764
Ni 4.501794704488777 0.532178861062235 6.089947630718414 1.0572677018277468 -0.609303369595641 0.6713885689621598
Ni 2.7883197339285464 1.5505283342070568 4.943475524521946 -0.7717819198802579 -0.14411624572734535 -0.6991019757170283
Ni 3.5236168832023953 4.292135371039247 4.880553277058873 0.26828818712227986 -0.40025725596413003 0.11601871616018083
Ni 4.94940900589571 4.512796047185438 2.7188872268779014 0.6096111306440469 -0.3082791256929207 -0.47155317529563945
Ni 7.39876062032451 6.205146628847471 2.5928571125893822 -0.8182543524101843 -1.2280655706113366 -1.4964581445219647
Ni 4.972606898890643 4.821367864271446 11.42574552316815 -0.07446480397779434 -0.6681073271077268 -0.18639418055994997
Ni 5.713753321729959 7.76154234582608 12.29252727960333 -0.6498028723715842 0.13865625105403862 0.8924844146693532
Ni 1.8676114781530335 6.68549332025311 0.288009719036752 0.0003581546703671251 -0.08130213861460192 -0.0617419570944872
Ni 2.819648660455662 1.6034977620057935 0.39989654337285635 -0.46158218012585667 0.23934862126979423 0.32150950834026565
Ni 0.5438620153679974 -0.13012370032404208 4.636193988369497 0.8687335921066588 -0.019195084871212104 0.8039960427189573
Ni 8.599174618686481 2.4960190385099446 1.459041530525748 0.29691562105098546 -0.6869463141911007 0.2465996464052527
Ni 6.912890621062935 0.6195068855661147 4.854844542640248 -0.20627883529901894 -0.09070414865479218 -0.9491314737394363
Ni 0.7602987191948529 7.406411759895439 2.3881488360835013 0.21316013579988452 -0.5455523524909249 0.5454988735451702
Ni 7.508357535551162 3.9302409966358436 3.6329666077659857 1.2250797485101352 -0.7907893142206962 0.1682002832597426
Ni 7.504264854975943 3.938951524762747 12.510249737062223 1.1615328769964253 -0.7276985564077983 0.7585839331327452
Ni 8.130680402663499 8.900158678422859 6.882291495541046 -0.19739824497993746 -0.10379620595205993 -0.08394009045808123
Ni 6.784143220401356 0.6157501307637736 0.43033359150028433 -0.03611731454784747 0.24434890269786305 -0.23749228478734583
Ni 1.632019761589729 6.536327789730651 9.16545492572745 0.69548237668657 0.20401986406151315 0.618352881392419
Ni 0.16888464502845787 4.942427906949926 1.409769097149272 -0.2817497119438245 -0.20526993441853036 -1.1667221345068486
Ni 6.598849823739244 1.8779427802245479 7.046421568511877 -0.7590073938234089 0.16757010587491142 -0.08701127318423724
Ni 3.510125524669042 4.367098429628262 0.30032307371427375 -0.8529830141406213 1.1853101819216811 -0.13063698029398793
Ni 6.163939130400967 5.565457033099581 4.645046673764167 -1.0382065714312378 -0.05980771618625184 1.2280907674223172
Ni 5.124905322065814 2.9820248568171577 9.347382726438656 0.1581074178001148 -0.4715904562914781 0.21835659239915944
P 0.05553640776129094 5.647564173489145 12.439548680125322 0.5442071513169402 -0.670811099192135 0.1213090180248427
P 3.8505242714495056 6.393609136574464 12.456763291429759 -0.0525309800191805 -0.6941227773348819 0.8237210319517104
P 2.3336066237362796 8.613652928951469 1.3670042069794541 0.7547123659924809 -0.5150253875466614 -0.47557977995652934
P 6.376812847930592 7.750993733281546 5.786721651268708 1.1047783458142004 -0.3785764285565867 0.5353147339233167
P 4.855829683451273 1.1427814499963362 12.62529299601895 -0.5155668618724283 -1.1239158379746 -0.023611982991985143
P 4.170649762017768 6.147360152230115 7.990026199001007 0.22574105778868864 0.38464243224500855 0.6741183091884971
P 4.709434861459825 0.9583210768141373 3.8286900016727747 0.5230896526120346 -1.178153516272242 -0.01812062086011073
P 0.3212165702348866 5.314010706608826 3.495844604750381 0.09469450076110787 1.0804407975101005 1.153026382187311
Ni 1.5038065825076583 1.0934248088115648 2.632985302353218 0.31077823796569054 0.060605272386882715 -0.6854645874392518
Ni 1.8281967911089478 6.482063553696833 4.761136644832609 0.03365548327091623 -0.30544911244329326 0.18134119151707478
Ni 6.016747503341776 5.6464504573149155 9.10829774402155 -0.022038210746962047 0.782353267638201 0.757707958285695
Ni 8.610212179795312 2.422269296728626 10.150672700879392 0.5663163245111537 -0.3773916642198662 1.0908877038750375
Ni 2.488684810045504 5.298545444612203 7.015066383635937 -0.867400732227848 -0.31463874936236136 -0.38137018925163996
Ni 0.5418718136192516 8.861359704385665 9.080653135472435 0.39813403897354016 1.2351960110085307 0.287351374401318
Ni 1.5242790399867938 1.2374744886150013 11.55192051110535 -0.8570391864878659 -0.4039655580536527 -0.08431932817437092
Ni 4.0412504299371275 6.722888830818714 1.6226410037582877 0.8695522313532122 0.8953432242743872 -0.5403219573299212
Ni 5.682333849172418 8.063124009363264 7.882603293964865 -0.016997820109577177 -0.4898797415189693 0.3790114592114763
Ni 5.465946945662297 2.6978189765185676 4.889856881685061 -0.7464737801327724 0.892911732014759 0.16485244983343222
Ni 0.912722095892011 7.368409590925986 6.9351549844841855 -0.03930985334321617 0.19058302183031692 -0.37190158763957243
Ni 5.343121255390525 4.344978034395389 7.199167289077348 -0.7869444865533092 0.06214536318049296 -0.6372815999761218
Ni 8.018276560493668 7.238512255678007 8.710025596434521 -0.4826382294652075 0.3009699936260171 1.3509851276564089
Ni 4.624520794127081 0.15152063277381897 10.517245588674864 0.5448514697691584 1.3115174085790897 -0.8760360393053429
Ni 8.280452591589809 7.001598567070494 4.455776495445782 0.0328638406075563 0.45395114594316016 2.1799632942420004
Ni 7.195041106470873 5.9621210831862586 6.9314308262527975 0.4239072912829022 -0.20092014209026687 -0.9842643128868275
Ni 2.4075193483723627 5.204766920900833 2.5893321556249296 -0.6536243030002034 0.037202062971593994 -0.2025147402708964
Ni 2.1533928593810217 5.270213591692161 11.460294266537185 0.2411903024642233 0.10054273201176878 0.35318781328015303
Ni 1.288560558980894 3.230401672876499 3.802888004842812 -0.8453782052101699 0.3108720832310775 -0.01004530005114399
Ni 3.5831871166191287 2.4293681055139613 2.7356119841577384 0.30390105122988303 1.0321097145048805 -0.18290725045261402
Ni 1.2336806099401858 3.6585485777420153 8.472941681289809 -0.7689256813783855 -0.7498650652025086 -1.4252815243771388
Ni 3.532291192917129 2.87761622913387 7.378352450526976 0.5402196274241019 -0.240755786029966 0.02388426281676532
Ni 4.201897197117502 7.022768228983904 5.880626939422673 0.17640853010214777 -0.40196909644891415 0.23634145901235426
Ni 0.5332961990776819 7.493933552904428 11.423784296149138 0.3271523084483398 0.19302299873037723 -0.5514993141029793
P 0.10702540796257584 5.563139054720697 7.965470115549696 0.13738844008520854 -0.8511811850451921 -0.2065904530021668
P 8.71739151600961 1.6709364454664761 8.084197692484423 0.09309681725668482 -0.007145867016161887 -0.3873616309483845
P 1.8642069474090464 3.2677881288390607 10.499619898392298 -0.5895498411177975 -0.47811668744577007 0.7536828962867019
P 3.9133179435493752 6.140234179635652 3.8302537316182175 1.00112097943285 0.3413507114359089 -0.05607653127859375
P 6.810419678430746 3.967002684988471 10.43828763922349 0.0503879655342487 0.5620248962246515 0.09054808269290213
P 6.401187839321052 7.90944928652563 10.138017082206863 -0.4275554295584507 -1.6966079841051105 -0.8374576648115125
P 2.5296840526220303 8.491035494549674 5.874902619379193 -1.315013594657806 0.5771643229692511 0.09614100339964733
P 6.885518556065399 3.848360221322343 1.5171657438365909 -0.5076005558375 0.38891380592685276 0.24532000836188073
Ni 5.12665286045302 2.840084899522628 0.6431104247773536 0.6919067435201697 -0.16942567102641146 0.027854303208106865
Ni 1.7252097361033356 1.3198351578897551 7.23600865793675 -0.9950274649406023 -0.6111519927686055 -0.4367543224488994
Ni 6.977540486786522 0.8721801107691316 9.180787990519653 -0.7917624767672429 -0.6043982189845397 0.08533439970244659
Ni 2.793517076074952 1.4652973557678246 9.526210231068106 0.18398942777319927 0.6704786555533807 -0.9445783071511151
Ni 6.330263133689 1.938509019975958 2.644885767132001 0.6747127482393863 -0.3416299332392245 -0.14979812660347105
Ni 4.132928285742634 6.865064207792349 10.24272360633025 -0.5303280793420028 0.3405402997194716 -0.33196052847026053
Ni 8.049379121944721 7.226686944104477 0.3127179198191782 0.145731155622949 -0.39602084928527925 -0.33452674653554
Ni 7.479319423593802 3.8033316803918953 8.41065506696032 1.2410519555686754 -0.12498106755979121 -0.9925478930518584
Ni 3.3089865726825223 8.566288300436051 12.407690059320219 -0.8789884370654475 -0.4383774598746192 0.8012850715456974
Ni 0.07848801555346838 4.810973179978635 10.289663573962972 -0.9034221446277796 0.437429237028737 0.1917464460107988
Ni 8.660972284451674 2.049554671689412 5.75723443100044 0.9929554129029221 1.050960014442164 -0.18361610359418057
Ni 3.710458616984777 2.732271741095353 11.571375231202504 0.1772703638818108 0.20959478704612935 -0.19611912115719773
Ni 0.9298534048484571 3.325230530540802 12.805206147553196 0.4943866282503872 0.46710568104724715 -0.7913325883186759
Ni 3.181805618347299 8.480477827402098 8.202607452852359 0.10932510619008914 -0.868354354390369 -0.5328868412081146
Ni 5.636182537464698 7.7619316937569085 3.7930148656852496 -0.92264988250914 0.6935180538713476 -1.4483885427082472
Ni 2.998812090857988 8.229158265353938 3.565936286902521 0.6209121574791628 0.6893628940523934 -0.09924895290100973
Ni 3.2784816150322755 4.583195585841024 9.395754226812404 1.0202525580559785 0.18906401408262924 -0.33277505395175594
Ni 7.139310024744168 6.076073262476362 11.422512124421665 0.7554595285711506 0.40726634029211145 -1.0148270161650328
Ni 0.42652703638120926 9.034130585039971 0.24956930728004137 0.743407739612939 0.2839307787555433 0.5681860307300408
Ni 4.58120357317167 0.2890826894972905 1.6078647970532005 -0.07393438539562106 -0.7484437593749498 0.1406650539539513
Ni 6.067045823242969 5.495718480466099 0.399866663182816 -0.930735744841068 0.8889002968625208 0.5462069553557884
Ni 7.697209391208982 9.038422466882125 11.317195320053212 1.6193347641442433 -0.494643995676832 0.90784984138183
Ni 0.10821880464357986 4.693516869311076 5.678794404843098 -0.08615818115532259 -0.09634206366685989 0.6172676187480401
Ni 7.842291295759265 8.68295686063891 2.4629978066741813 0.006725234538975514 0.836580918633514 0.6747682840676702
P 8.684088686019225 1.4855525027739396 3.5192480372343797 -1.7521409841754083 0.47904434146636204 0.4757160484240775
P 1.944801969090509 3.3712007501876715 1.5455528298351926 -0.301069752428675 -1.0723515927440628 -0.3605923332743403
P 4.801094608059246 1.072499621180303 8.30319232167079 -0.20016012399579078 0.5471104410066642 -0.044898660284903316
P 8.500307408065215 1.634672760281187 12.557202381139208 -0.18635098602684036 0.954425375148524 -0.37090837048836767
P 6.229503511031847 7.594032189539477 1.3995383011715294 -1.3038956303677736 0.57199949093886 -0.02835746809677052
P 1.8872146937400873 3.2573572261340784 5.998798563730591 -0.6032887879704449 0.1539599712906445 0.3869337993823465
P 7.013532533880535 3.7927106310230205 5.9612943979284765 0.8122104602089496 0.48227313281630496 -0.464542034085129
P 2.305401535258832 8.448324931998112 10.333091261075502 0.2897237312882365 0.003342434109671663 0.1276151627485286
