# total energy = -340867.5853436554 ev
CRYSTAL
PRIMVEC
9.30195713428561 0.00000000000000 0.00000000000000

0.00000000000000 9.30195713428561 0.00000000000000

0.00000000000000 0.00000000000000 13.61435452226173

PRIMCOORD
 96 1
Ni 4.510546794168753 8.407555116829219 3.9243374719568576 -0.22533456637888935 1.4394321048459082 0.8742604354621588
Ni 3.3541926292667004 5.442212190774578 12.25703043986254 -0.4088596529211604 -0.08142323757349848 -0.6534939480699262
Ni 5.293501806226789 5.804104822965212 10.826025766097258 1.7672590707637692 -2.8545891391945353 0.947869576307877
Ni 1.516935221173426 2.879718413027659 6.103178549797332 -0.6715952856563272 -1.2622830970333099 2.4196302180831615
Ni 0.616126275910688 5.5127210238809905 8.417046833623651 -0.6079167736607595 0.14094967507390566 -0.053514941199004615
Ni 3.0466699350057467 8.997224766998317 12.855558343562935 1.5890649095161085 0.37042731708689103 -0.0007289077462245512
Ni 1.0517071500673365 5.157144420407936 2.4829992543000303 0.8882804038903347 0.9624929826480068 0.9857900055027345
Ni 4.638978912730791 6.490393899186593 0.3427919939451585 1.3626018859597306 1.534614343876712 -0.02632809637156756
Ni 2.745249324454267 6.169811257474267 7.069797909749326 0.14254941546085773 -0.7501720549199661 -0.283470294179357
Ni 3.831364412999258 7.286771635014096 9.976748731721884 1.097508808735981 -1.7227172795976524 -1.1366361137547458
Ni 1.9698195955074558 8.337353248299655 7.024666675387097 -0.012889197257842318 1.5237745729487306 0.9971630232263665
Ni 2.2523479316474413 1.2065289202814715 3.5257504802888904 -0.4264516549713107 -0.1949976059582448 1.260135454562688
Ni 2.9835561576143204 2.3989932817691577 9.391154268859372 1.4210893406726623 -0.3730246455004221 0.8428358984042904
Ni 2.839878131735473 3.372359351042007 2.709637712757091 1.5872628233103632 1.0028559598460858 -0.5662613029035023
Ni 2.2206189567495556 7.6266558372403805 4.804029114723793 0.18086348054970788 -1.601080960140378 0.9601890171051787
Ni 2.6886655207885264 4.69870677782001 4.952888330581567 -0.32226078468399344 0.5256566420082625 -0.11696951010922436
Ni 6.534922366743374 4.737347106675425 6.064527988789355 0.11049007303246779 0.3248331733968599 -0.10171849748742481
Ni 6.286327569280459 7.583448247559735 9.58657442985094 0.33671938331148465 0.07695183206570619 0.1137862272852363
Ni 7.438895837734714 7.870478730826833 4.536425768388456 0.5881385625925677 0.9489090733159851 -1.6172169464702921
Ni 0.8037411648891172 3.187250409245486 1.3911550905162213 0.3556673851688972 -2.535692642997084 -0.7305735639627482
Ni 7.450225621207485 5.287929934059145 12.611221051761339 0.3401777741737303 -0.897220643802758 -0.4402559078442547
Ni 3.420264428944121 1.0638369018312894 7.527553718898373 0.24372078219556093 -0.9077472543656947 -0.8749515479919123
Ni 4.621007532049842 1.400084038919763 2.7062611024117573 -0.4960899840947391 0.5608195630626407 0.05121637497281502
Ni 7.87125079324739 0.4677591335715583 13.534165863797604 0.030215604351431828 -0.4140756499044611 -0.09155029870517137
P 7.7284936610990895 8.62256054801941 6.79700686206525 -0.7181471652739374 0.14903296630267235 -0.6969149953680385
P 1.2436995399507629 3.2153981307468062 4.145121278757299 -1.2938176773064813 0.35194339935009067 -2.3866720179895866
P 4.893517660636318 8.686753352408243 8.333033419527277 -0.41277621436674716 0.4347030963468256 -0.3185342277620256
P 5.006499228830315 3.702941596394094 8.903011757189386 -0.6763510551737577 -0.8772603986307471 0.33638308301798836
P 5.27386537526536 4.157984024722937 12.818404467416016 0.26983547700474175 0.9753520979988621 -1.0132655852151842
P 8.321102729640431 0.5049111493271011 9.619221507892311 1.7614265232423922 0.6417229235769272 -1.117036337245947
P 9.28025540880951 3.3355887155183064 12.519950250911718 -0.8927027013277464 -0.028016796927900135 0.20805906712789332
P 7.774222081092642 5.8020490904960145 10.274235544711265 -0.9609966006081385 -0.7473970632779903 -1.0852621301581438
Ni 7.228383251714762 4.150170380948612 8.703738725660527 0.1738937341000941 -0.15335627626837461 -1.5435556122303997
Ni 3.6237819433946776 6.334502403931925 3.3651959140531877 -1.2467824302945494 -1.2565212548488685 -1.5169182121485294
Ni 2.9164890485513597 3.370452449882796 -0.11892086765817168 0.8719287020051886 0.6977619167493659 2.6251852878422786
Ni 1.9962650589007978 3.4144134980702514 11.548008311236309 0.07502401891537402 -0.12914934000486789 -1.7679638101402777
Ni 5.525092626523673 1.6798217879974897 9.250599840098882 0.8851254032011209 -0.5529013366568284 -0.05674938897590226
Ni -0.0014390127284382775 7.352164391839701 6.0786325459977 0.597200672794836 -0.8019126778273673 -1.3264472904160447
Ni 6.8365011105617155 7.297096807144454 -0.14298223950465708 0.9799407458108091 1.3233249427369789 -0.007127097963084501
Ni 1.9017292711883336 7.514920731267526 11.453579496027897 1.1647125602759876 0.42859286968402965 0.17240300848718051
Ni 1.8462803062612452 9.373954020403296 9.393169072718324 -0.6649060465616097 -1.1454475413987886 -0.3446386381585613
Ni 8.256900623294724 4.520276641059163 1.285302542070609 -0.6761561655541323 0.6891006415299422 0.30001919967697366
Ni 9.057082859483774 7.429435747593655 10.718717461400834 -1.3966342929540916 0.40451243169605816 -2.2146978695097084
Ni 5.773268835927248 6.086261080830229 3.967127403773851 1.0577631534069267 -1.707138965543421 0.49845899854754794
Ni 6.838045235402832 1.9085848134046168 2.022439835349101 0.7759553345316571 0.09463407983681767 0.40314846146899597
Ni 9.088449058063567 7.123810652535038 1.8399531151954165 -1.3091021142693777 -0.48801697727861754 0.1852094162232294
Ni 2.794363656750027 5.211774813130095 9.613041287745094 0.633059334364658 -1.5858078360313916 -0.2844102894951231
Ni 0.9871887771879061 5.462267209795346 11.133791241432629 -1.541158572753133 -0.692609426014149 -1.3470289712221382
Ni 5.243987489785439 5.624642168991329 8.27375576915077 -0.6573130647057003 1.3736265192050086 -1.0814103605122214
Ni 7.607521711950158 1.5476595847288985 7.6431668106920805 0.08595480689526487 -0.7888890118741897 0.37985272416584903
Ni 7.224150861337002 3.6318095321771096 10.916642639378622 -0.6525372405836116 -0.25013671302423374 1.466332785891494
Ni 4.362496848559033 2.498607937934933 11.347196736040456 0.4745582806705504 0.20411370932690007 0.41259572292482494
Ni 7.834294118586206 4.038844561078222 3.8067644578497566 -0.083609703701856 0.561608120402207 -0.19840894563263894
Ni 2.6883213483841812 1.3135014243347372 1.2836021443540058 0.1962700449127652 -0.7179851857747763 -0.594493301166002
Ni 7.50271656384858 6.50503517930658 7.796995131912051 0.40561389229035305 -0.5236270131727434 -0.009210205744358333
Ni 8.980713793546617 1.7982636048766403 3.4057943048306205 -0.09038764585563788 0.793228262679492 -0.5401175546285988
P 0.12061754459202521 0.9338885642987572 1.2515066723552766 0.5772460840497801 0.19769675005696277 1.3135069282052927
P 2.815553514509448 0.28977549074067266 5.39775069730729 0.4485721410194339 0.8036090916931837 0.7302148950717489
P 3.006773841972316 5.439886701556028 0.8776098648184905 -1.9982732040259392 -1.7969990210303635 1.5547599655866513
P 6.936227390209981 5.963782214667678 2.0075994933520067 1.0302433507201032 -1.3719036229766308 -0.3081354010262048
P 9.201635269308795 7.051367012398791 12.761033718198718 -0.7108681151140208 -0.8283922121751345 1.0469341811122228
P 2.363562128035341 1.2364626175026374 11.155738278481609 0.5328541881979661 0.23447920899263486 0.559752555250707
P 6.4069088362406745 0.43591016342999517 3.5213794907537053 0.5810862837314766 -1.0724395244721787 0.919051109414288
P 3.869260585304737 8.691115970182242 1.486102024722525 0.5857003854647204 0.23517623505965948 -0.5356006405948518
Ni 3.967042755966296 0.054541093936166754 10.334955928598962 1.9368616336876772 2.7476104217494357 1.1355963596363217
Ni 3.8271599284921214 2.4089277717107995 5.3006261749967365 -0.557219247305892 -0.5069888903954302 -1.858288463968464
Ni 1.396828354013794 1.5274464324412684 13.040617984988021 -1.1662338820165206 0.9833325451011776 1.0154085997001157
Ni 0.17599860523393196 4.98651862546454 5.89580537422242 -0.4182927733096022 -0.5710900917507132 -0.22176998895608258
Ni 7.290492417763774 2.841087386129119 13.619936417547512 0.4831856173282452 0.4171432330861912 -2.2570187417651066
Ni 5.502609796758739 9.39023244493314 12.999924714250472 0.050795999605944775 -0.11397237515411338 -0.10939838263018578
Ni 0.39409321630204247 8.97998824091043 3.888803996697425 -0.8642971536018599 -1.0785556646722458 -0.8877535848525873
Ni 7.337634735202204 9.015810076832963 11.231828285712538 -1.3656820675469512 -0.3139800327324399 1.439841938689817
Ni 0.05689355882965117 2.794224127396914 10.339870152415601 -0.27946297279217674 -0.7012599026002956 -0.8831099154329888
Ni 9.563155823224463 0.5662789494132411 5.908262554868346 -0.28065365066616826 1.0107055377974916 1.2141954974974636
Ni 0.4384012274809051 0.27347660190570466 11.461107569726185 -0.9686741717580544 -0.39052665893992744 -0.6653251363768993
Ni 5.355210988130213 2.515035193774765 6.843173404227577 1.682063767742348 1.805824332631477 1.6726967247051516
Ni 3.3525740887705897 3.7744643427997953 7.355331708155365 0.353219694959353 0.5539161510745879 0.016510596060513503
Ni 0.6332837353651444 1.5565243496300085 8.209101587700976 -0.3904600673680501 -0.5728685238073746 -0.8020862272907541
Ni 1.0655112540686449 5.04744644299053 13.338241536743453 -0.38421820022339637 0.889952392276119 1.7862276414464722
Ni 2.1053584091213806 8.153314031543667 2.580750728503905 0.14203648038018118 -0.1812188070065976 -1.3725844510937393
Ni 6.959510188266097 2.07681070347447 5.044567487337966 -0.11612850226516776 -0.12231329091964097 -0.5188751003100548
Ni 5.9600521299611255 7.234327202157373 6.082389606379189 -1.4150637033038727 -0.5478727730939855 1.207651782841675
Ni 5.781621993200278 0.3206077569958861 6.57464358298757 -0.4257677415304087 -0.9484197923843924 -0.43540603595112115
Ni 5.280274423551682 4.012808383787345 1.4384378675034521 0.45363052937894777 1.6179854492052006 1.4378575612699367
Ni 4.93873447300179 2.2451668209405615 0.13054087218541857 -0.10237155769039143 -2.1079806332561115 0.23057498884222227
Ni 5.8391452945103115 7.608851891783168 2.1684535825990587 -0.7784138233744787 3.001439238913276 -0.3156003419446823
Ni -0.10274848543669277 8.026909739580203 8.292067601453313 0.6160190910529197 1.2660276516774067 1.6876713437371131
Ni 1.0828687055958965 8.320237647651131 13.930615265775879 0.022747320998844696 1.4328261694936162 0.030093734061586882
P 5.125164292674446 3.6035036774089284 3.6574959558895173 0.1542250520265731 -0.5575398638701043 0.10596955945429491
P 5.042107119744741 7.664793860424588 11.765375509276858 0.3212626824367822 0.7190840752659099 1.5688902343404463
P 2.039007550737733 7.2161139705976955 9.045036825331689 -2.182484003781325 -0.5429925621835487 -1.173520645485921
P 1.471281216834867 3.4183761316986594 8.56777202203039 -1.4992344217155211 3.0626836875460546 -0.6247037633111112
P 6.435800714291931 1.6725011479374965 11.36989165042212 -0.5733426352303157 -0.5569305124208795 1.1635743329064863
P 0.3240755265185868 6.752364910634603 3.949183928963525 -0.20460196181722826 -0.2575458610041113 0.08178602022955592
P 8.064768704058185 3.3167243469774346 6.582526991438453 0.7521024391734595 0.7100613029420094 -0.22657409521294528
P 4.50010069659903 5.465494988830692 5.769177835293976 -0.04720493982057677 0.95846020733953 0.9809941267759879
