# total energy = -340891.0564025343 ev
CRYSTAL
PRIMVEC
9.07053542799683 0.00000000000000 0.00000000000000

0.00000000000000 9.07053542799683 0.00000000000000

0.00000000000000 0.00000000000000 13.27564546264517

PRIMCOORD
 96 1
Ni 6.277708555871966 2.0818693102341337 11.476158537043952 0.8452781892971957 -0.14697402689111463 -0.04532392074778001
Ni 4.555168509862846 0.23644437029743043 6.102217277147568 0.38232252586258025 -0.1839405768131348 -0.2935934986562879
Ni 2.937647123987444 1.6528239100799649 4.912573006452657 -0.41135156610507867 -0.5980313962262476 0.23806975455737067
Ni 3.249038608042593 4.389114216282956 4.970016707836907 0.8668872829265393 0.1077544192688596 -0.3469778278146992
Ni 4.802104768584588 4.58144585123505 2.4798372416242542 0.7354483755565463 0.035437771982319614 -0.3690350647250548
Ni 7.47793995561404 6.248456078852511 2.5731122794332935 -0.7005759891593935 -1.0731303798916163 -0.1308544956214327
Ni 4.882397148918295 4.667271258229802 11.237276006801457 0.47893429825105904 0.6758334921073909 0.7497056568065088
Ni 5.505216399170632 7.735416176598295 12.394660917955377 0.7313857754513985 2.3040069375891865 0.8503157517211034
Ni 2.0249516999094594 6.760279186070102 0.23134945050151495 -0.6647697780940616 -0.7325301734684868 -0.2630189683035406
Ni 2.9076055103786276 1.6953284394793948 0.4900347738692403 -1.2846498947642844 -0.13502122540461264 0.9349577533422155
Ni 0.5756796772073446 0.02282509555713303 4.634633657358051 0.4860225725564081 0.1553080006781067 0.03123376120330105
Ni 8.642451586518098 2.594046168336611 1.2698994618330268 -0.2552580934111991 -2.0372907229397175 0.8856907887862876
Ni 6.863692361418566 0.6755907187954326 4.6093041869466305 0.15005909357434155 0.10506684513436744 0.30114534286161687
Ni 0.6737049544629228 7.502929280943838 2.6694404594949677 1.021297711491041 0.3971395362707547 -0.6796976030484875
Ni 7.685065633982794 3.6811044965215607 3.7437719193059653 0.38970467725926433 0.7536895811549214 -0.6624383017474076
Ni 7.626887219222243 3.9043575870269316 12.718347512894209 0.7654634338613978 -0.16165374039047645 -0.8924491905560437
Ni 8.10054151301414 8.945688659149837 6.611364576389735 0.1640114419893756 -0.4837471462586702 0.7106765679285051
Ni 6.679061611114384 1.180521126079044 0.5491510820015161 0.04849203406311649 -0.835743253223567 -1.242330565170783
Ni 1.6430821549423236 6.326979704761787 9.449073447182561 1.5494760914798926 0.38910663866394923 -1.4210620869791526
Ni 9.231174693788688 4.806884940798309 1.4068999231211297 -0.5673151980893133 1.4222270538215314 0.17916475269104626
Ni 6.394781957698351 1.9035062999672983 7.027702156294523 0.689829806386483 -0.13102933063640013 0.22644759693741
Ni 3.2165025971685517 4.534478618364745 0.4423228500335721 0.7710373284047496 -0.5613065300013881 -0.8657817085671863
Ni 5.946144200842781 5.405812400517549 4.560635321614668 -0.040735015825516946 0.974721920614031 0.3346684143197268
Ni 5.4926355664183895 2.767629006389724 9.238667863173424 -0.47502416456337543 0.23447329545536394 -0.11672114154384412
P 0.218003064552236 5.428452457150279 12.521190353050843 0.6140977056604907 0.8183880497745712 -0.14488783378604725
P 3.949075327090779 6.406120127085736 12.39985107837415 -1.9486519414543857 -1.9755528796102877 1.8364173749269856
P 2.289448515378383 8.585452341373832 1.3745870474206323 1.7184050253755438 0.43797893888461986 2.0025291510888157
P 6.32176414684359 7.724214065243558 5.62913896236055 -0.4670069506858538 0.19536295971746354 0.6306031595146816
P 4.66935748139708 1.2587091421744532 12.808634716306283 2.486939899073414 -2.2326408271413745 -0.09694010226217498
P 3.8824341026994835 6.136217272452908 8.296362582976895 0.11604442719179368 -1.0099699451830477 0.2819554001967273
P 4.820971482445197 0.9681163960435235 3.919966164532382 -0.7116191343474325 0.1056394298083858 0.5439960637473986
P 0.238557805071239 5.680486356828588 3.6882928959131633 0.5527596688726415 -1.5913657897351432 -0.5128803161792006
Ni 1.781181058080676 1.4249629875355607 2.6567752707624828 -1.915534590075127 -3.502519220023439 -0.6492272023737722
Ni 2.0303033158603054 6.574206220619845 4.630744211731401 -0.6962711911364525 -0.6168647268826667 1.203552930181953
Ni 5.912837194450398 5.717648340812683 9.052370855496074 0.13589771447229498 0.2937439081912232 1.047528620163112
Ni 8.592373159967893 2.460636732056881 10.241443682453857 -0.3843338998656542 -0.34190221306400476 0.3732753280586475
Ni 2.474115547824604 4.822531614552901 7.269770258608096 -0.7931120488166018 1.0064737591043313 -0.21647274511288525
Ni 0.48938260236607795 -0.1802043289753465 9.161044941440283 0.874066574283798 -0.9053970089659632 -0.21502521403308128
Ni 1.0418598497390774 0.7865088552247943 11.268235558603875 1.878550299541294 0.404369992580923 -1.267228099743411
Ni 4.162913201736865 7.239847469014459 1.6343118541577935 -0.7214433195267059 -1.3239175820156555 -0.6867725076173979
Ni 6.026382157963428 7.923085556298296 7.763969315329935 -0.6878528851657703 0.5864285218799964 1.0176470021123312
Ni 5.296285684235406 3.0117443285678838 5.137316385942306 -0.9125282206941059 -1.0209809515815707 -1.4526342053584789
Ni 0.8591094214460996 7.079852293155189 6.911260970793177 0.01891920550200613 1.0235029466724759 0.07608999828604315
Ni 5.270579786600327 4.722211491813316 6.94491537869559 -0.4617554724789273 -1.0530621483868314 0.3962517343491627
Ni 8.198838906335016 6.945599297073037 9.299018671188598 -0.6007480238264622 0.052249958443651955 -0.571595570632222
Ni 4.802249897152746 0.34682371691750347 10.446512163368965 -0.6242484209412474 -0.35619086177253495 0.6126848844733642
Ni 8.143309087943358 7.068967650543299 4.857890376077625 1.2808852855155297 0.6083800864504233 -0.6043897343441075
Ni 7.2843203046195395 6.124570704858185 6.834541474396824 0.6584433216554015 -1.0461625930535208 0.6198672611544163
Ni 2.3195354816647487 5.43425759987662 2.354144109902803 -0.3597112162209676 0.10833703124520698 1.5776741511806636
Ni 2.2247030329086583 5.039344624846237 11.523366139105267 -0.1250808263624491 0.368039790691321 -0.42354553706810927
Ni 1.4111757735605002 3.307416574584362 3.782364326739972 -1.7879783055889917 1.9869485230417394 1.1437336440314754
Ni 3.6915900355710143 2.610817588494431 2.8489799182174376 0.21464751897868842 0.9317315330954341 -0.17434856224932554
Ni 1.0331158535075258 3.263642170213545 8.523442532413897 0.019130293071547698 -0.20325470376071447 -0.990001986701553
Ni 3.6877350579793036 2.7781689686522375 7.127149693518054 0.388340449921886 -0.8708742925987453 0.11974218775835507
Ni 4.1710313310182325 6.720232771793858 6.219547375128883 -0.15546123842651935 0.4756533135069421 -1.0920174466041064
Ni 0.5397322379280274 7.296801361481173 11.299538883702121 0.2638964858124874 0.26117960110195665 0.7510832538803258
P 0.2196448314795294 5.333991900350096 8.026428888523334 -0.26955805497363894 0.4863673574903366 1.3866129041623474
P 8.634705349192634 1.4083639075524286 8.154658141973355 -0.059979208767109604 1.293579078933114 -0.9734265988413753
P 1.8092906476258817 2.9489762228393195 10.561678938631168 0.05451612877000934 0.49692739239437006 -0.3634927947505869
P 3.9564587429958444 6.1608437763623085 3.6711278145142128 0.29816132053262845 0.2910568482773632 0.4634752833835114
P 6.838013675390015 4.066475268195521 10.596912526765855 0.14327009567696616 0.3586467795121952 -1.053918839960172
P 6.368377628829008 7.844707058957178 10.261489565930756 0.5111599910539841 -0.9015007592353506 -0.09607081228334421
P 2.4523462626008246 8.391497080565467 5.919291787519248 -0.6435787458387433 0.6131248002242603 -0.18278795126593037
P 6.834911552245627 4.063917377181727 1.4719374768342735 0.09024263563734136 0.23459902239995079 1.5586778125838188
Ni 5.2946348467726025 3.2520409552963727 0.12393889015383486 -0.20308732494491477 0.3122617644897525 1.3144821476343682
Ni 1.6159249716256585 1.1766480074163135 7.0800609154719165 -0.2169543127349941 -0.8107133068381328 0.24164744460629997
Ni 6.9894009130503845 0.8011668406088059 9.407361682586698 -0.22948741220499835 -1.1132313616775602 -0.5651372166013879
Ni 3.0181209150313495 1.607752419131231 9.294518778522132 -0.4869777373808259 -1.108726017608039 -0.13452834492859414
Ni 6.016794601929456 2.1192217754639358 2.611386311070902 2.3325551815405245 1.8322555302398122 0.1640116990996917
Ni 4.1050613262546705 6.890377876888715 10.371120593371261 0.16671701384599677 0.5445431945001202 -1.0315461286919265
Ni 8.294016035440482 7.0489217670664015 0.3751773038679256 0.017314837129363728 0.6253483388736455 0.23000009017535872
Ni 7.453431368666268 3.997702467959397 8.318174499717573 0.7294782740160405 -0.39222564390890513 -0.28231561174962344
Ni 3.1221690278655068 8.744005302087029 12.35296185210923 0.31041854063342667 -0.34111391283475445 -0.09862597460503014
Ni -0.06917281085211104 4.807528948819512 10.330961704454694 -0.2747910212378042 0.2472136258401678 0.4435803442317973
Ni 8.694852070158836 2.166098302979141 5.832336191799962 -0.552214595002449 0.8983138768669368 -0.13591159842936593
Ni 3.7291511231175445 2.682492960093726 11.69276383207411 -1.3881205990561254 0.6597311872288896 -1.958235985598395
Ni 1.276995341762428 3.0899414151988025 12.69178263554634 -1.0315332731761202 0.35535628168638156 -0.12631418454891793
Ni 3.2063708090039844 8.29216564619646 8.08095187747339 -0.1755613516105041 0.014769444999690691 0.08762448128820394
Ni 5.627505358915215 7.812932973065971 3.562598857138161 -0.2565241046078163 -0.19775459987809169 0.2401448919188445
Ni 3.1817352345590737 8.393129776957249 3.743825435465474 -0.07769925175469199 0.916579250835028 -0.5359647088024898
Ni 3.4636293371360014 4.05774941303499 9.437682668689218 -0.5726345534196977 0.820043325989807 -0.6312235667075
Ni 7.1357630740382625 6.2073121297795675 11.710792428453603 0.424734672280204 -0.9496238399948225 -1.4383897796243228
Ni 0.7610995641008884 -0.051098861795067924 0.12806054148953716 -1.638081448624127 0.31003827447587246 0.20322179364024998
Ni 4.618181520050178 0.46171837611440886 1.7793878132103673 -0.6230369171316495 -0.6816611545327615 -0.6377503120824242
Ni 5.663932629523006 5.668830718698357 0.42750613027813705 0.7425474484951727 0.6000612821720827 -0.031245074057210706
Ni 7.73199658471106 8.873859088446874 11.752450676889959 -0.049879915549578616 -0.2163141080478339 -0.06777556488307683
Ni 0.3028171068376328 4.87895941596004 5.943852076519427 -0.618428986045993 -1.0062891538973506 -1.655762153733342
Ni 8.031950123488215 -0.14630410956061554 2.0683451417888605 0.10861291061441293 1.2269011179895903 0.9150628141905015
P 8.538993058492084 1.7153561818852723 3.5317064272985155 0.8285945579939278 -1.3814940948785435 -0.4911208130149219
P 1.758658918409574 3.2973845623104037 1.6125924568793182 1.0361486604609444 0.6297462108310252 -0.48863969846428107
P 4.8908418174780195 0.7802710479546304 8.26493861975637 0.25718127857584094 1.4641028681197108 -0.3282434846299895
P 8.620083645950663 1.7046710910546004 12.378039161633472 -2.4230988933580524 0.01055232159454957 1.6795001207802303
P 6.334644307267659 7.778882182761775 1.4441117950505278 -0.10494188952072896 0.2600524294760489 -1.3218023354448656
P 1.634746332808718 3.0658772844910165 6.010416201358888 1.38330672260725 0.48048493056763053 0.7062840952877644
P 7.052568122341385 3.9001942112278836 5.8523031616179235 0.6521284351809672 0.3837248055267456 1.3233305991639337
P 2.5642222475800325 8.446500807897548 10.186734747525847 -1.7345764929290837 0.6461477921175002 0.4231153915092261
