# total energy = -381173.01194925595 ev
CRYSTAL
PRIMVEC
9.17173078428646 0.00000000000000 0.00000000000000

0.00000000000000 9.17173078428646 0.00000000000000

0.00000000000000 0.00000000000000 13.42375509555522

PRIMCOORD
 96 1
Ni 2.602166717955994 2.6209320787567174 7.850037441837167 -1.2265923284999198 0.9492492302642234 -0.8613601824607231
Ni 4.251418142112999 3.6281256742266152 0.2873283074392639 1.2530746910611643 -1.1390177266130448 -2.161390930556452
Ni 7.5326139347911525 3.051902527762181 8.297974675273354 -1.1571380903628394 0.31451482218998733 -0.33933290967493174
Ni 8.59350801290437 5.3390202997236305 7.806047987549568 -1.3607455494772822 0.6478874005164261 -0.150501837538715
Ni 5.82850638993565 9.074115867898845 8.671893291275484 -0.8758529767602593 0.2871546850094796 -0.5548895707314507
Ni 2.962230517718843 6.4758929940994046 9.99075054697671 -1.5562524909717779 0.019302299873037724 0.21194143290143502
Ni 2.3020218341809873 8.501864080782756 2.1387668639069344 0.7579244451718753 -1.55818030412211 -0.6222532448880896
Ni 4.915955882492469 5.648933076584058 12.296655691892314 -0.49830370391660633 -1.821292089249773 0.7164643782548757
Ni 2.8199953196261673 2.5318378877409673 3.650656947610318 0.9621096311666592 -0.35289702151261154 0.5122336837341372
Ni 5.270085572559292 3.2659340329653457 4.981891453751706 -1.2170604777500846 -0.39220841751772456 -1.189028768423849
Ni 8.007030871632894 9.340582156922993 5.1939464510112945 -0.6524261689270441 -1.219169039452655 0.5058565765631998
Ni 1.7819205072373867 4.567430119820192 3.778008261290768 -0.39290287248158784 0.48482520981419724 0.3603133685813408
Ni 0.668315576212225 1.4027153057193524 11.899004305798318 -0.9044516143335584 -0.6301956396636179 -0.1069236958374481
Ni 0.06295934468062754 2.051606073700956 9.549363763532643 0.3484448992785289 0.22130924726958015 0.565549107327826
Ni 3.9586748449294795 4.622368786094058 9.047315153922407 -0.0789727191504769 -0.90896158638877 -1.0459360788650116
Ni 6.456430581773337 1.6533053290807198 10.132478548367391 1.1021362802056631 0.43748040198164656 -0.0725148793402751
Ni 8.53901876142974 2.8653220122347567 0.6089295377720481 0.5985168205030983 -0.6305016009398109 0.7197193948570638
Ni 8.724333578134827 7.82735666924474 6.958445255980366 0.10352109791380235 0.24415144197507627 0.8278934181618451
Ni 3.1556623160019566 1.2522163783591054 11.47822273231266 0.45789624663383727 -1.0701980367361699 1.2709819103588884
Ni 5.617978485820401 8.014716781872878 4.230429553815651 0.8928659663784881 -0.4782735247386086 0.16654397860324222
Ni 6.794326308684109 3.9142561536499576 13.043916022042048 -2.9993216783496406 -1.270617327930618 -0.5933823274900103
Ni 6.221707652344155 5.224758879950703 8.306270505598013 -0.2811226198827868 -0.359384171898852 0.5807006182572838
Ni 4.441850784491012 1.9384911202526087 9.237905550066682 -0.8605132610793955 0.18168006291373226 0.28848985888113543
Ni 7.455910751811461 6.849136570729624 11.436407895349525 -0.24985183479396322 0.9760010444367706 0.035634718484474116
P 0.06244847928639475 3.16902552748126 3.042937161103967 0.6643753708691204 -0.11089964976606062 -1.1922251638739596
Ni 1.217785701699323 4.293929113428421 9.435986498589232 0.5574460186047174 0.20899186335480782 0.11100043700998302
P 2.2469180767563808 2.022348253097678 9.865828824731308 -0.8690320971836839 2.0036424387576526 -0.5943020110908023
Ni 1.365771574876091 8.385208839324106 11.021641142789143 -0.05926444208827213 0.04247051045938492 -0.07205568031566946
P 3.2685479761853884 1.7899916301624288 5.6945450100142025 -0.8320310944793025 0.5758438043856148 -0.004668609120262927
P 7.4222229853300075 6.89228956318681 1.0062314809303103 2.9285759750946463 -0.815924418725427 2.0919351497574747
P 4.811123001772887 5.620693318077007 6.360094392278481 0.1373017939086732 -0.5422880799173564 0.37765674495579477
Ni 5.874814457718079 4.003542951008237 10.44715787361889 -0.5577530083221749 0.06568731489548044 -0.1348337919841549
Ni 2.7263978088874676 4.564302559686738 6.139193260858433 0.13706062443214462 -0.8226154575923574 0.2590993215341602
Ni 6.823593301017985 4.734639940327515 6.1298775340914275 0.20808040728413196 -0.38530089176461385 -0.42741556154647686
Ni 8.1393606006812 7.547050238750263 3.49287474898328 -1.0728845824293973 -0.09092063554097245 -0.05134647279277609
Ni 1.582031810614239 8.954736622452993 6.005975708288373 0.3649894339007714 0.09230466037269264 -1.485547668257048
Ni 3.6513576678279014 0.11974244597747846 3.9788141309735794 -1.068160694591167 0.0384953278617208 0.20282147287803778
Ni 8.179386033004933 1.1301681593096318 3.151844124554576 -0.6545311310851889 0.810210141949469 -0.9874110860459252
Ni 8.055072396498089 5.173250440919979 10.289402273010582 0.6373049970148895 -1.604338033625095 -1.5226008643556037
Ni 5.18388964841208 2.3490269534887616 11.995426709560784 -0.21052089840482452 -0.5127394197259622 0.27330929448595515
Ni 5.50047944514686 6.331713389120242 10.304343022152509 -0.2966770226776181 1.091457203225262 -0.9515760786251871
Ni 0.6109179689653993 6.146416915876347 2.5532254463192694 0.6475505860022978 0.941830826312965 -0.380640510174467
Ni 1.0254086524348225 6.586494893364273 5.583933021845678 -0.9282083504335239 -1.3340916943351797 0.24107614548386222
Ni 0.8173314347349958 7.103936418434848 -0.0012941311871857448 2.325241421487931 -1.8157703881005953 1.678402259730361
Ni 2.6343778358113896 5.183531950918812 12.835150007374413 2.3850409101440664 1.6798737020695649 0.8793545621556146
Ni 7.763805747940629 2.4635910403713774 5.572227142085188 -1.6806301206196155 -0.9346872732896483 0.877113845750554
Ni 3.885401889192932 7.673253251760014 5.926748465048488 -1.3867730838892955 -1.7933853355371758 -0.3781059166780714
Ni 6.629794633511005 9.182644956048872 1.3501750469965066 0.10921300609225708 -0.5779132853201338 0.33867419304501023
Ni 3.235208735466606 4.457479413427685 1.9400283023006055 -1.249536338890603 1.446706012799502 1.5917581400775553
Ni 1.8562573837231446 7.482893983226773 7.77548136099015 1.3836661628291975 1.7798402498628898 0.966599805727529
Ni 3.3443431578360117 3.8675995601048556 11.109607210941505 -0.058757163434550425 -1.0134491619808998 -0.14377557455847495
Ni 5.7406962412034295 1.0924631748268492 3.4486835166225545 0.35693416769646275 0.39026312086589565 -0.007908456213799283
Ni 9.243820399128452 1.1034509080816226 7.067083487724493 -0.7047177792419088 0.7373890442226849 0.04062805793400745
Ni 0.2614722817142793 6.934901423538794 9.41907291019597 1.4462632688351285 0.0909895411056949 0.7973034611901301
Ni 4.638098304067294 0.2666708186164542 13.258628986828542 0.11881504795839537 0.6174424537630075 0.450039983814212
Ni 3.7917218328788627 7.770262646280662 11.751584328399364 -0.8582792295425541 -0.018269744843465312 1.066751472948466
P 0.30761434117290976 9.226577545606773 8.800170949746196 0.21989205520707933 -2.675937835804798 1.127757323207877
Ni 4.416830303423382 6.784604274251673 8.211606322590924 -0.15024421300195415 1.3565564510965993 -0.6991366856097057
P 2.3778995614069802 7.106174320700428 4.160236465213454 1.0385181891343858 1.1522537656873446 -2.0183383502069305
Ni 1.925788273376264 0.14229481434155378 13.446441265775096 0.4399304061840359 -0.5635472464064488 -0.7032388807035372
P 3.8438998082431413 8.531800609450185 9.663975543414361 0.1296188234421187 0.1327375715767585 -0.2926663588563282
P 4.962410697964445 3.6642164341243886 2.8033633033622225 0.7764237895276435 -0.6005384789188174 0.06288738355284007
P 7.825118766979159 3.183801185472445 10.996914157100603 0.42282691373452985 -1.0794272686439215 1.0440843703682536
Ni 0.8231316371643101 1.7852498454439663 4.827235898085062 0.321108416247105 1.7146082773372728 0.42759965253282484
Ni 5.957048194247544 7.396074381398989 13.245903210625707 -1.7033507021455825 0.8164772059051035 -1.1413450891946408
Ni 7.079200261015713 3.31307672823207 3.5487443459127053 -0.5570161301561504 -0.8715646337975506 -0.6039377344083534
Ni 7.294717586575534 1.3219673895465438 12.462493421502378 0.24577560784206062 0.356560843517444 0.27272513984771096
Ni 8.38047622633624 5.185769853184391 12.813335963323366 1.9658330812193625 2.190507902527066 0.6228973062299918
Ni 8.886462259891614 8.774567146612618 1.4524499320526862 1.3650796580762619 -0.45865266518388753 1.2954945507882722
Ni 5.898028107858173 -0.4765401924748642 11.310117750899106 -0.7794335228882447 0.7788329131897684 -0.8854151665273977
Ni 8.40102090287271 8.307680200590717 12.776891174624563 -1.479744945532342 2.137731896376615 -1.518272926404211
Ni 4.837831081270299 3.2294672321131097 7.17891623323543 0.2927715169756248 -0.02919693327893036 0.9184191322572441
Ni 3.1837094681664784 0.3553733767357277 7.527639188115535 0.1349626042525353 -0.49190937035448834 1.8951652823901557
Ni 7.92395333588854 9.117415608045576 10.387731479564088 2.3763235848757267 -0.1051905151964253 0.15474467197546896
Ni 1.1459251924746572 4.467054700170576 0.7620946872167382 -1.5015489287813109 -0.36819508532226264 2.7612817485889414
Ni 3.9667092809321356 5.600432965189031 4.34512204492662 0.3197184778781139 0.1228984739991496 -0.9369261899224961
Ni 0.9217314097704167 9.032467039259508 3.73507905906014 -0.5522603606387199 -1.3886610449406278 0.291324243006137
Ni 4.928200142838982 0.42844088570691097 6.15107340350026 2.1438392948259337 0.8687037673099878 -1.2995170416841038
Ni 0.2220402603601498 3.4028863142343573 6.858665998819532 2.012243550163102 0.5906212198051054 0.4794459477801549
Ni 4.712728675932144 7.8947688891300345 1.8512028429913367 -0.9165463407145635 0.20589522670735505 0.6239509443054867
Ni 7.669171831644508 4.916946429396906 2.1233565221584616 1.9090494965714155 0.8171474924992508 -2.457068051214646
Ni 1.1316906665886737 5.902118699704274 11.482532528520021 -1.359443285726091 0.7162923714533858 -1.9181897683097868
Ni 0.9945366072465361 3.6412320772492124 12.112884477446638 -0.22925678425143098 -0.7519391741227178 -1.4214413246954423
Ni 7.353086480092543 7.392644154155847 8.946946154484207 -1.1702062364007073 -1.0845437639348805 0.286821470039777
Ni 4.002754182176926 1.6709792539404427 1.742859940972421 -0.7655071426151396 -0.5303797585155446 0.09434611628275365
Ni 5.425069476181296 5.6018545834315105 1.5107628780130566 -0.18691817138422 -0.5026586384511924 -0.5746330719069652
Ni 6.288918094156324 2.200133078982926 1.2389815711081553 -0.3558612463472581 1.4240533083969928 0.23024023121062281
Ni 6.315323506544048 5.659737375226898 3.757040767973792 0.04027607391122741 0.40591573980148804 1.2649351899441763
P 7.942902131301196 6.42779643885063 5.390925874689189 -0.4640884914874782 0.7279209568312496 -0.5280194858134842
Ni 1.0661403080144958 1.569686661231163 1.822932817773317 0.9258655612329602 0.694772752214055 0.24702516397844557
P 1.4632212124653792 5.525243117757785 7.578259803624505 0.8321452514596637 -2.3413565818822386 0.604164762817495
Ni 6.36746479498594 7.4078233682932835 6.846839969388225 -0.49880609747432164 -0.19432140582682664 -1.6291000710611232
P 2.4234647190110827 2.2786430928901544 0.10003881713671917 -0.13772499748902087 0.4409840442595309 -0.25683752208317706
P 6.38391887967631 1.5300831285148764 7.1639360456519405 1.032482524463267 0.8535149753846915 0.9075569927317596
P 3.108116064588981 7.02760927640962 0.4769272395060424 0.3193896337837855 0.9711576003015405 0.052417337259451656
Ni 8.893909705136084 4.385958258235095 4.7838233456519905 -0.541201531721397 1.3883715387246671 0.24487957839035243
