# total energy = -340897.4039587825 ev
CRYSTAL
PRIMVEC
9.02084333981375 0.00000000000000 0.00000000000000

0.00000000000000 9.02084333981375 0.00000000000000

0.00000000000000 0.00000000000000 13.20291606864281

PRIMCOORD
 96 1
Ni 6.333615145059291 2.01142249560908 11.333132387981014 0.5032700467829461 -0.16833809438918748 0.12783422073787018
Ni 4.551240877215702 0.2557751817737447 5.826103412978487 0.6254121022320456 -0.335564443771435 0.09446875790354699
Ni 2.8634501495289055 1.6908397726627609 4.853431003116175 -0.6077601934782372 -0.8722243788687364 -0.18985925629041495
Ni 3.4502830572847416 4.213112614392895 4.960705065380035 0.06891456358352648 0.6159735825269649 -0.45347780585116737
Ni 5.086961687830059 4.376822875410111 2.6117614096904043 -0.3021272471589119 0.7832917202920704 0.41815933305553143
Ni 7.12600600508531 6.201856710387842 2.720315529593582 0.9423761572934738 -0.9711336890421405 0.02275940518370274
Ni 5.286872592304519 4.444596469801908 11.49225374610097 -0.5442524027325788 0.5948509416157368 -0.4147132834884599
Ni 5.693216470832207 7.7545783539766235 12.348040385350632 -1.0192215456883027 0.17538625948522052 0.35709743274720435
Ni 1.8494622781579513 6.506634916180637 0.3768312881626924 -0.048701064750129024 0.2742919701141986 -0.3912008021888166
Ni 2.861212980434115 1.5765727528090543 0.14793912098325027 -1.200606188848803 0.011506715088018893 1.6018913718568153
Ni 0.5938412007789938 9.004758960867402 4.6023250097434945 -0.21037614529684415 0.2616046044545172 0.5169244043415872
Ni 8.508729859999338 2.151579335229119 1.3199604367933877 0.6289653668009426 1.7105143097735573 0.8874915894404523
Ni 7.027588606600749 0.73689824146345 4.80737959896735 -1.529243566483102 0.008644048828243177 -0.024914246743176445
Ni 0.6268529761918493 7.463150996007583 2.402402976212014 0.3769898007957572 -0.4274592703002187 0.4658880065900622
Ni 7.730844515716965 3.917941606527329 3.735421985511932 -0.11050987052680966 -0.7136127677386935 -0.43264801359000976
Ni 7.454130152883425 3.7976125800941887 12.57550004264196 1.1163501098121997 0.0993019176261322 0.2132059014361554
Ni 7.98431216581955 8.87093475312052 6.809918368267759 0.20269317483028962 0.10247877269221707 1.1027073222177848
Ni 6.826992118048852 0.4830039054810922 0.40038200330693113 -0.2884340659425355 0.452849171128233 -0.37422612200769095
Ni 1.9889335337005547 6.3633749065258876 9.23407961809524 0.015151768039773906 0.6860790810947991 -0.258742966636006
Ni 0.13998093317911828 4.948590975148603 1.3650493169808655 -0.919830410782474 -1.300815191670237 -0.008620651789475476
Ni 6.3044056550232686 1.9225401283067534 6.831584629283361 0.29549148700994915 0.2887981341501736 0.7811924145608804
Ni 3.295359097470456 4.52131874057287 0.6488521063187328 0.24062594532032108 -0.3673977862319479 -0.5475745251272763
Ni 5.962795346754537 5.521297242572008 4.744546720354654 -0.5482615238919718 0.7440870250681508 0.2412180703783652
Ni 5.516308716324349 2.883945505106992 9.05764906618865 -0.02560818748640751 -0.07260615350250076 -0.07490009174300005
P 0.21184367575909635 5.532293650340356 12.362431336386603 0.029242441804885125 -0.06322779761139434 0.33189676511186067
P 4.0965362586994045 6.062556850864598 12.50482444301712 -0.1318456558901084 0.3498996294471845 0.824421914673477
P 2.251413006084173 8.449327608026758 1.2602487699016502 0.8288845784305208 0.8169911694270446 0.5661440605993475
P 6.376698691820269 7.7830391140333415 5.676329452503783 -0.6745163159578641 -0.4026360406089517 -0.11665480708228297
P 4.792368013924439 1.096961586426958 12.53602302896202 0.41866404060609186 -1.0435130712458158 0.8370367752240101
P 4.060046948262186 6.218202478128816 8.145578680434431 -0.4316601957554437 -0.32547594918718137 0.15303411704226547
P 4.606728083272396 1.0544012485671816 3.602270732662114 0.10962952480438538 -0.42056588561449504 0.10242143709172037
P 0.23485674865313524 5.581610599700126 3.6169259944016203 -0.22429301248825242 0.09919547395525496 -0.006277348368279511
Ni 1.5670287007836954 1.1384304022687113 2.770935088700481 -0.6445539652678189 0.4266874251312006 -1.8644359716270986
Ni 1.788788087304866 6.387902578980472 4.9469347483510075 0.54834996984072 0.2942753552146609 -0.352921961213276
Ni 5.964238681654403 5.696094119788813 9.143270398701594 0.13673589410287418 -0.5966941654720627 0.5907520889560148
Ni 8.694766707748844 2.466975073379048 10.111268207656968 -0.12363509505485806 -0.6367948901476904 0.6757105933762814
Ni 2.41462712072956 5.103551018335385 7.149379009620003 -0.6031224375959097 0.4336394309690016 -0.43737832918614356
Ni 0.541577141970561 -0.03981078487553309 9.079130399920208 0.592521779261928 0.62384578618619 0.46778676627467175
Ni 1.354082677994827 1.1011833410090637 11.460052042400665 0.05518230159909852 0.02214696841068444 -0.8498994901192912
Ni 4.068174727917053 6.85063574787727 1.6757533146219195 0.23201634927443915 -0.6366236546771488 -0.7874767049076954
Ni 5.67052905037495 7.898758489630037 7.927321185214058 -0.6443567616553483 0.8436725353729727 -0.3426542607386808
Ni 5.373075769198971 2.8072142134929066 4.661949174456928 0.2685540391891569 0.11475861850083463 0.17840139216246048
Ni 0.9651580475398887 7.485820374778592 7.115500331182917 -0.3448427837495674 -0.3475758664100143 -0.07525027599356718
Ni 4.840548337050565 4.419834255426095 7.043121596376236 2.1363967225049594 1.4492596324592912 -0.07226368256141748
Ni 7.962833538340931 7.3040684275130605 9.030662311898421 0.4773949787883972 -0.511207556462468 -0.0526695624795738
Ni 4.542301221679661 0.25589515898729603 10.428481645696415 0.3214539725119819 0.4359300267753912 -0.5383800031122018
Ni 8.374824464664341 7.0708435493810855 5.067529889656311 -0.6306103586035333 -0.17818824771038988 -0.6436095990766787
Ni 7.0182700756534935 6.130970925118212 6.997822530543965 0.7415691437423034 -0.7656223280367653 -0.597606649984003
Ni 2.2063719363652536 5.337452459701672 2.553470525590722 0.06562380864739667 -0.19365060501204714 1.2167465460540914
Ni 2.3226596250787717 5.253576660333253 11.449502166366962 -0.015897902177179072 -0.8702921948430302 -0.1030403016226419
Ni 1.1901468958995076 3.3671289253662553 3.908406575345094 -0.6569019453102105 0.13061821124091053 -0.2026936890509219
Ni 3.4209653171312286 2.7652492512793243 2.7643210065218486 0.1030259034449387 0.05293438610518625 -0.8319367349932834
Ni 1.1522683756211691 3.3342659938649484 8.243729061962517 -0.32308173792339195 0.4318157474967015 0.41362724951313284
Ni 3.677463970523531 2.5605302374196874 6.985438717103121 0.15526352059341647 -0.8098345037776052 0.3994578999912862
Ni 4.002890886227523 6.786668949283867 5.991509592503044 0.4626769558519322 0.4697431186700943 -0.4277876001739149
Ni 0.869475768690572 7.341369613831453 11.275540619223454 -0.2239690534899304 0.48160336044278995 -0.07153837435961873
P 0.1821903602413649 5.684493315531146 8.083999699015992 0.1476332577416683 -0.40633405828582925 -0.7101950003063963
P 8.508369026274371 1.6650311404845455 8.025893742200356 -0.13940392785334055 -0.25481380678492893 -0.1793935808724007
P 1.9583979797252806 3.2289476503904067 10.407792341991158 -0.9285199681366719 0.36760141760232173 -0.08922833544021407
P 3.9491356820506662 5.967801914688445 3.7634118575575695 -0.13011736034509205 1.0465040355533397 0.17869346948158257
P 6.991893130358457 3.976035836246905 10.285032198336058 0.29481143022378903 0.553342537959305 -0.3896830799927095
P 6.17280057468493 7.755832251170881 10.127943236171973 0.33682531276172956 -0.3241086365260096 0.6824931635157536
P 2.3271971091702226 8.579444249249612 5.800793633425038 1.0446065614203106 -0.4023321362152877 -0.30657731251046555
P 6.871816687532792 3.8994308364365575 1.6327383262686854 1.0267867596300704 -0.022096831899039365 -0.7288465539693125
Ni 5.1192653270576685 3.123845807150844 0.417862593112924 0.5155367799654412 -1.313029988568874 -0.17399375001306808
Ni 1.564593073140173 1.2519396712999884 7.043069275486117 -0.8323715085378568 -0.8101947153305015 -0.41797601340013174
Ni 6.860856363136941 0.7704792320774397 9.345459066064905 -0.06458662563213392 -0.330795818738198 -1.4114160792489563
Ni 2.7693717765870645 1.585422199913853 9.180633828837543 0.022763004728128537 0.06356126969141311 0.47752790482183566
Ni 6.316728126730868 1.8150477616392893 2.3759439412445467 -0.04235995302344963 0.6400879590766655 1.0020769155882163
Ni 4.079739448802223 6.776385188122327 10.432230708098814 0.30671846607402015 0.5122506530150017 -0.1940763796955561
Ni 8.150818888205254 7.055327699207534 0.4716069722780312 0.07612599373030114 0.3648421096896297 -0.4453160959759814
Ni 7.738187482020029 3.9069903029746014 8.009007625956244 -0.2836425580911632 -0.17643218425123164 0.4127001097131731
Ni 3.2073427311080485 8.303397428807259 12.346389571058912 -0.2807009589643359 -0.09216427814008644 0.3870800951522237
Ni 0.08556359911694891 4.88414607186962 10.15920767427168 0.0019890054055707682 0.009769420681938012 0.23337929106023678
Ni 8.560265936767651 2.3665279851915506 5.8463173182511 0.6223275497694508 -0.05685171888172145 -0.21328714829605205
Ni 3.7776674959466754 2.636873632779435 11.424760699930335 -0.20284769813028292 0.6092408917888218 -0.8681252690986985
Ni 0.9442116498055942 3.3246407542514724 12.515625098489675 -0.025246433271614584 0.2058929127145099 -0.04564556575325687
Ni 3.179910347167485 8.452755528413938 7.985295437720083 -0.10929630983468273 -0.728397639357352 0.20746411385637173
Ni 5.4494642687743395 7.964321977456416 3.556997827274903 -0.29367423129555226 -0.11938146198482666 0.8516784363965848
Ni 2.9266050722411348 8.261206945515573 3.4903491320206883 0.3529340453981341 -0.13536935277265075 0.5608704709052341
Ni 3.7191222240708917 4.300804230402833 9.420531424628459 -0.9990358147690472 0.4793587873829873 -0.15436749114170836
Ni 7.310464205288088 6.21988035494991 11.466639964134238 0.3104118557652073 -1.1073985570458669 -0.926294935460895
Ni 0.3943578842686185 9.186375595486071 0.3035775315729692 0.5913308442776204 -1.342009920740992 0.569702210264251
Ni 4.517349569598241 0.21915055868966415 1.4817501603094698 -0.21729035591817417 0.21043065268386338 -0.2145757852004885
Ni 6.0751770103952945 5.534088798122063 0.3520979404848766 -0.6526807081400114 0.9823449843769276 0.8901341692696217
Ni 7.835874192211533 8.626109070730879 11.306197954580904 0.5806947047200128 1.1080734716257046 0.5806047161093678
Ni -0.01400576103456736 4.796283059840323 5.8350286351655285 0.6640686382619788 0.13778593263394334 0.6989009154498157
Ni 7.711864661783737 8.717039169422389 2.828909341206506 0.31692111763863484 -0.15713605502578099 -1.0796913209385857
P 8.479051286120859 1.6379325277395755 3.5326650050318 0.7614309156632371 0.6369910653188966 0.05959894260955543
P 1.7126160879644776 3.116800528670877 1.4270504738575143 -0.21924645120328046 0.1599521843183374 0.5428449808620909
P 4.72873498652663 1.022413338848918 8.154926078079683 0.6594113419956256 -0.27290408862773646 -0.03768285926275446
P 8.299437278675754 1.6484598516654678 12.421369014938287 0.31223939589224936 0.07431002356748492 -1.8115226685678347
P 6.282340672741578 7.681653858160932 1.4359098438897497 -0.754300732376359 -0.2976501852241648 -0.1272338681497099
P 1.8297697776179147 3.2649137519264233 6.068733422151709 -1.1482554431612289 -0.05735102711564317 -0.2928080266405151
P 6.937335071143551 3.9594465057415786 5.896329774615744 -0.9797952213718802 -0.2369554384472693 0.5027676532252309
P 2.4211491903083258 8.59235307576028 10.212864551258482 -0.3134010203005183 -0.7742512073563569 -0.06350239142901967
