# total energy = -381168.3084604663 ev
CRYSTAL
PRIMVEC
9.23217497188831 0.00000000000000 0.00000000000000
0.00000000000000 9.23217497188831 0.00000000000000
0.00000000000000 0.00000000000000 13.51222127390395
PRIMCOORD
 96 1
Ni 2.5412207402747367 2.96331577235516 11.129030365369893 1.1760454687903037 -0.018024718712194764 -0.12777045737947026
Ni 1.487875755908686 5.235169348347078 12.081168556654614 2.126314912788925 0.06134652142828145 -2.812641076897524
Ni 8.694409854697515 0.6594588624020264 13.056007742567125 -0.501528124391175 -1.3898843758247676 0.38421640045118344
Ni 3.3944306392199786 1.8829112836359216 6.92437852596625 0.3502367010716291 -1.4689054317146768 0.3433607998874022
Ni 8.033219959519569 5.273316694640959 1.2325959671606765 -0.9194493732939713 -0.06150310161080375 0.06415133786692823
Ni 2.133786401784509 0.3553971852023605 11.245356691129222 0.5561458117360552 1.6007534015976301 1.296037567775936
Ni 0.7119142332085563 6.276521737641553 9.73469038849714 0.2726798884320723 -0.3974838069840509 1.165676981071786
Ni 0.21341649209515104 4.060088907003501 13.254637983494735 -1.2904701009904873 -1.4274623340785415 0.7551885342979511
Ni 1.2536554811081537 1.898532123405827 -0.3094717316353425 2.2245868464886462 0.5137082113971346 1.3360853277264408
Ni 8.494293233626315 7.7546390847814495 8.803198109728637 -1.2292423645282573 0.048368364001058636 -0.08179630464220107
Ni 1.0989426957274948 1.0138682049002616 5.872194949190656 1.484434123477895 -1.0198848903039146 0.7529398474730904
Ni 5.781944901167792 1.3520335358292601 1.925126326148847 0.8774033519665146 0.5706674023909978 0.2853788240559795
Ni 1.6535748293071861 8.414905762478906 9.377346137628424 -0.5307330280899054 0.18564238999558993 -1.2871590343393833
Ni 5.266586439208181 7.401046789753448 4.108822788146172 0.6091825277470605 -0.23639853750253478 1.2326066530147997
Ni 7.676488725057898 6.65267746789275 12.198913867681458 -0.5992099899153809 0.5810073508644252 -0.14412164504398403
Ni 5.845508424699588 5.624757892939417 10.505859489256041 -0.2797799898119633 -0.8791663574042086 1.0293064407281305
Ni 5.5929899794357265 7.601098785601015 9.397060523706825 -0.5807340425983805 1.1650326626195677 -0.9888539891400391
Ni 6.077863800189529 8.934030951758919 6.002574491438018 -0.8062300742557986 -0.45395525970821815 -0.14486880762265372
Ni 9.286829279753697 6.36412584436533 2.811284933755327 -1.2881913322586396 -0.1840732457362572 -0.02365234931161733
Ni 6.7838112788216725 1.5030719156375656 7.21168842198241 0.05829616463773186 0.7010105055936507 0.9719345876768809
Ni 3.217219043839757 6.648975365795981 4.693226839036733 -0.3018961049847123 0.2626764973624573 1.5572145977747311
Ni 5.687462824214357 6.275376947965744 0.5752531192239353 0.1525669475978598 0.38873614269840795 1.0526361165930067
Ni 6.432166972677507 5.366349320150024 3.323762957175805 0.29900669925205925 0.09618008416769887 -0.3196955950599784
Ni 3.486964727289578 1.9352392504301439 1.2274416439670963 0.6569037450824236 -1.6963778703721752 2.3730950506361004
P 6.788935135838397 3.1348588124051675 2.9056811514830763 -0.1754690490070139 -0.4184845776054341 -1.412731198515954
Ni 4.281402601426771 0.09011710470567419 3.280835190767941 -0.4771190994191913 0.1051527199799544 -0.08429053181896451
P 0.9569795437524147 7.839602789511025 11.575865779492512 -0.07830423232854257 -1.140127671847772 -0.14756512350789425
Ni 8.412246896135093 8.301506959350213 6.54848129660959 0.9505563791114209 2.5151117335219393 -0.507870521669435
P 3.491396171195934 0.5433550320554954 13.188940904365525 0.8750669905238542 -0.31685632583897044 -1.8304740128593573
P 3.778202913685226 6.287997330924054 1.9208564453015766 1.4627430116577067 -0.30259518793426593 -0.8878119488943484
P 5.1139047322846025 5.8253822836248865 5.838766167439562 -0.8652104094447487 -0.45346392189409646 -0.3748493574139867
Ni 0.40919491422552406 2.1373961821332284 11.243762294540415 -0.3204047053118611 1.2424210680020604 -1.9759899671477068
Ni 7.718393566497379 6.8204999414963785 5.027735305525507 -1.34310983867339 -0.9356956599495045 -2.6416020386374055
Ni 7.583077580381833 4.17289685094468 7.220242031939158 -0.8717685222782406 -1.931978594563763 -1.555942673040843
Ni 8.303648823904952 1.111156862994389 2.415647468230811 -2.5315531669074143 0.655523062684813 0.13360609022464087
Ni 0.3083306348294558 3.57467038793621 2.2575944820057363 -0.4750053955102981 0.881338682465179 -2.7145041261137703
Ni 8.470289579133553 4.619974148047185 11.02386481573222 -0.0897268723431874 -0.33097605306980415 0.8633173061870938
Ni 3.824548431205867 1.522533340126313 9.302839717300369 0.12924524215278388 -1.8980053229421119 -0.08586558961556824
Ni 7.083598459086665 3.768629148412536 4.859264733250574 -1.0777470527280213 -0.5628170531086435 1.5314202624194466
Ni 1.367709768647995 3.0582502258740356 6.980994837957352 -1.8802027475430525 1.2533207456336994 -0.4402973026051514
Ni 8.489446341853737 0.34066078777876535 10.279435786078254 1.7563722486479365 -0.3270450934465142 1.241264585800114
Ni 6.565562666433633 7.0256850265354736 6.892192394943898 -1.0043772815866185 -2.5157323978250736 2.854061291715524
Ni 2.112893990201001 7.45451954622348 2.5949953888608883 0.28653710603013877 1.0044443873791282 -0.4804131967894306
Ni 6.400205183502914 3.51303638893864 9.342268489457172 0.458105791541482 0.5576666192559556 -1.0003637895518513
Ni 0.6893147925036206 6.875976079899075 5.036477251848275 1.704490472176981 0.7147304262829046 0.004356734306798948
Ni 3.2234599940078756 4.043018615789225 6.148141884456934 1.0253258588138277 1.339188649242113 -0.23204386007826486
Ni 6.34900354203489 0.7782621806615128 13.01226846799391 -0.7911407840228439 -1.1495425374037687 -0.545824375205389
Ni 9.245838423619903 9.131571796059548 4.1813165943667565 0.08178910555334946 -1.0350585127205594 -0.6490605948889209
Ni 3.683083816670252 7.093366100030258 7.666118223099544 -0.32137941052030455 1.8025528609690569 -0.3913782083069453
Ni 0.650309777170362 2.438531259919738 3.992429067510767 0.6700315407136331 -1.3188874757909157 2.013477422570203
Ni 4.699241600922131 8.506405846970354 1.0830319656687153 -0.26675246720404383 -0.4936793177707175 -0.5168971506480775
Ni -0.028456332401169897 8.149748469907124 1.6453286507714417 -1.0276951303769528 1.7298137814331178 -1.015716617858838
Ni 6.919293444083706 7.522292941466315 2.6079804427239925 1.3142049827135818 1.4412799566879242 -0.913326291115369
Ni 3.1199396179204353 1.9281304758303641 4.521148332848041 -1.1396095945607727 0.4576753888722827 -0.6291615419721487
Ni 8.144236861548594 1.7242748239631764 5.5128648575214045 -0.06136220515756528 -0.11195971559945879 -1.0788014621344646
Ni 1.9059270954245588 5.178991564659209 3.48032956325729 1.2116223374536488 -1.4565039727265305 1.906749387683329
P 0.20686718728854883 0.47450978131781124 7.914540352402467 -1.5828644371323515 -2.891687843819046 -1.3038187543832516
Ni 3.1976837619525704 6.48899100860172 13.13031197826695 1.0678927856417608 0.0947862891439658 0.241945435462693
P 1.3977328011135581 5.0211398398448805 5.86401985840091 -1.159172861404681 -0.06964552821228005 -1.7393533454924366
Ni 8.443460879150487 2.159654955587863 8.695533410371272 0.17822989958160274 1.9142390111921552 0.3741027090559493
P 4.994154192890132 9.682058683151835 7.727598967995353 -0.9772086915916266 -0.30152329502632585 1.1499446579381936
P 7.205989400475339 8.50944323248117 0.6744168320209394 0.09101345236509487 -0.8615023644655421 0.12719144494754872
P 6.879973611589601 8.373010153214231 10.901781305764548 -0.05191751480489769 0.04806728782087206 -0.318488976346387
Ni 3.2574159329403294 7.493248519530071 10.73170341185608 0.5016512802326005 -0.40985441273426193 0.453201155151013
Ni 5.42079145497457 1.7416497769460146 4.56036107211441 1.1017932950439475 0.6386782232133323 0.49203072642370105
Ni 6.511009745511426 1.166337571803328 9.579340583054941 -2.089808333222459 -0.8791748420446407 0.012225081311282172
Ni 8.958773180236074 5.9660344667776695 7.126372048175288 0.05623388279206445 0.8456427717254662 0.30545168354645463
Ni 7.440957481435069 2.371468742136882 11.654507290915683 -0.8655608508056319 0.46253220274395185 -0.28519576151089593
Ni 1.5203637790471594 1.6644964921013932 8.717746946169363 2.711322643061995 0.7617656732948365 2.8255680693718372
Ni 6.732332672109502 4.53209307607926 12.877200827380614 -0.24866269958186854 -0.29612834926299964 -0.9619188553120918
Ni 7.69846130109358 2.720592664559307 0.6459503442274841 -0.22915856811066987 -0.16767577821484025 0.7077933328434391
Ni 5.424484324896533 7.589835532339026 12.234695007572844 -0.6730163343735699 0.1625034899852814 -0.2630408226804115
Ni 8.99801915533174 4.717050466120799 4.270551103161082 -0.05297963752082488 -0.7075133397091751 1.7373041762728918
Ni 4.945020558578409 5.416387707592629 8.174379912286621 1.1477242532481071 -1.1559934352354349 0.08228044336747119
Ni 3.006633136539791 3.552614722327283 13.481372810963446 -0.3898892824662447 2.7400174398935264 -1.4724358134654383
Ni 5.055391208371091 2.7173983320768085 10.880013684009533 -0.6404659112413744 0.9143971555820446 1.6907754365837335
Ni 3.4784711264690618 3.530789861088479 8.570328502102063 -0.7800385034620954 1.503940826052255 0.2901716174589325
Ni 5.328497403449899 2.702829960234663 13.384354655591103 -0.7787087289070782 0.39925375440028016 -1.4626365679868296
Ni 1.7893524241629775 8.598053646258682 0.1700806635609099 0.023088506388347335 -0.16711270662251865 -0.27184865078002857
Ni 5.310993200019792 4.200140998793965 1.5479190511873702 -0.46197144514447536 -0.19656006534935827 0.9966264339966062
Ni 0.3570857499741783 6.582697582871543 13.380449445648626 0.2574946960512017 1.2141317341390638 0.7590629296516926
Ni 3.6970613293248835 8.993421532278896 5.940634907454405 -0.8202981223130904 -0.6426161248151577 -0.7184528694398142
Ni 1.8647423636198615 5.280591648387228 1.2934775439116466 -0.11422562881550007 -0.1816003587157324 -1.6353259973661771
Ni 5.313762852461265 3.259714744466752 7.06820196116452 0.43692504369880886 0.4141365850493835 -0.950798319918898
Ni 4.653883926105616 0.3225001767200295 11.035876798370884 0.08254783809624494 -0.3285209066610923 1.3268147010577922
Ni 3.0598566242900898 5.268829857685774 10.123017818011128 0.5328845272152694 0.17904622483531102 -0.5586858045490893
Ni 1.1864914094024435 1.0766285292240307 1.882914053288363 1.6773452792207566 -0.044647206395729555 0.6716580205734626
Ni 1.1649158168833718 3.9380949491314383 9.468486167302482 -1.07883565780651 -0.4840381951365276 -0.020334340681977883
P 4.081987625640744 4.729541598631841 11.89680756510547 0.6603508230907595 -0.4229349000673039 0.46292481019668014
Ni 4.583857880210383 4.050985982645861 4.370892841463192 0.42448887481798503 0.30150349753198397 -0.7492623986215032
P 2.589264977959482 3.2417397001215944 2.695485765177358 -0.5049060397244725 -0.32236311458981254 0.5188324199975773
Ni 1.946530200216547 5.461579203262657 7.804429126721803 1.0998788516300542 0.5302499178058997 1.0314196304163914
P 2.3456648135571623 -0.250707092567138 4.064111365566 -1.0895065072567947 0.4824546526994917 1.511530979694687
P 6.863688055233742 0.1838227557580164 4.205476272613722 1.6855010755586712 -0.2940745520577645 -2.5906671994607513
P 8.045055607619462 4.866223946618513 9.036054792310484 1.2464687557088727 1.3267949035634505 0.562369938268896
Ni 1.5209269417102589 7.945883585865133 7.06282421934066 -0.03813151676439884 -0.051795130294420476 -0.1337017352622407
