# total energy = -381161.4160802033 ev
CRYSTAL
PRIMVEC
9.30385212972577 0.00000000000000 0.00000000000000

0.00000000000000 9.30385212972577 0.00000000000000

0.00000000000000 0.00000000000000 13.61712803964408

PRIMCOORD
 96 1
Ni 2.935290830314767 2.3578937840209324 5.5962036262621115 -0.4336108917239113 -0.2116591257743258 0.7640554977702776
Ni 7.8869961699143625 0.7968749116188677 3.820312295204615 -0.5338126954564936 -0.6641169750014111 -1.8094868690847288
Ni 0.43950000598374644 0.9160032915762559 5.093010380845189 -0.07234467231099799 -0.19107024587938062 0.47299530705880477
Ni 1.8439583112490163 2.170076926567925 8.124209968035881 0.895079429090039 0.48871246068374535 0.06092486050983056
Ni 0.72076196034074 3.020681582665473 5.999284634533764 -0.008649448144881878 0.5208684765909998 0.27565774011347366
Ni 6.041149176738217 6.959560305175266 1.9434230003049862 -0.41011923635987435 -0.3414658968575345 -1.4067513267834353
Ni 4.611770504271883 4.557017336088847 0.15210867402284725 1.082812640176387 -1.4684588310955613 -1.5431874302577038
Ni 3.822189812509515 8.906112190860025 12.737080187597355 1.5468527949244328 1.1670093267299644 0.9378972955865138
Ni 6.8240590067185565 7.806620193715 9.923100420885811 -1.2721515051869574 1.5626465674235799 -0.5521978828319006
Ni 2.8979544728094955 8.896212892483346 7.831169337226939 1.6656503593813314 1.1112187021229056 -1.0170062832045388
Ni 0.26472063613904634 8.733302446453616 13.401242165161289 -0.8913287037983553 0.35597231800382567 -1.4900560976503627
Ni 2.0426885869311997 1.2882206320800937 0.22754616565610003 0.2931654099799338 -0.5343505702378346 -0.41303203913129516
Ni 6.763211815568674 3.5961713393284627 8.992370062203875 -1.6747986015395027 -0.11049572945942261 -0.28879659148827685
Ni 1.1715782413391045 6.001617110194509 3.8254191794893506 0.29486285228701475 1.220200566040963 -0.5613610373884074
Ni 1.4484329610710676 9.335484954096577 9.357799312392276 -0.6378606124080434 -0.4665238404018482 0.9759568214623967
Ni 7.0555016255326946 4.394423221022281 1.3296311463138875 -2.7255344157860026 0.9850145607892906 1.6267233432988306
Ni 5.937187936079382 8.41278474995309 3.8199038561080583 0.07156562805312836 0.34721231242300843 0.6405965232819677
Ni 7.604577746771447 2.064217700130103 1.4504965554131233 2.0135129037938295 -1.0805906928244036 0.11492445465473757
Ni 3.4516732161252794 6.654012506313909 7.66316131076433 -1.6929428765486974 0.10109140542638718 -1.4083888623868581
Ni 1.4985248994733558 8.447478813530752 3.5703838531342535 -0.19535678906987647 -0.3085290369201977 -0.5189242083804353
Ni 8.972318400679987 1.705814718864697 12.811878504607979 -0.59051066236917 -0.14508760850167915 1.1507244735270117
Ni 1.8182610724178274 5.6473729507095305 11.259117731114877 -2.797549986892356 -1.7859666744756015 1.8885066394230572
Ni 9.230704974474257 0.8197577352630778 7.416799965496241 0.6409927302791218 -0.4570284993169032 0.08701692961119208
Ni 8.87365105172823 6.149232023770049 11.77818893011229 1.9944862261796812 0.5082775272998666 1.7678337123203167
P 3.5911379554734033 1.1907441761661313 10.005865626242251 -1.585091269580341 -1.3049292138386108 0.5015355805903428
Ni 6.360289903163791 2.8492488083340164 3.1757860969865255 2.202811402484768 -0.7954345263021914 1.9511981049150073
P 7.109333712381811 3.085343353077045 13.18154286816204 -1.5477742782974377 -1.037553254117955 -1.381881560124949
Ni 3.7970042855305044 1.9332659852318477 12.07920947465965 1.130985857447504 -0.38444265752937656 0.7543398131444106
P 6.820095565827143 4.583105336698063 6.113790860888207 -0.09240030541029247 -0.405365780835289 0.285593768280263
P 5.716202846753388 8.403257605650722 7.812254606400071 1.5321234591340582 -2.5404142168424695 2.3666014724919564
P 3.4378290845609025 4.03939753798125 7.3192881549452204 -0.6519194044939547 -0.1743948421062287 -0.3284648566121763
Ni 7.999972843023386 7.980378931010901 7.344097806309176 0.7575351801532566 -3.155013544729728 3.2003855451066237
Ni 8.238886454879323 7.068750310578174 2.9958765832274454 -1.6112373318480895 1.1940447335812017 0.4953561912525081
Ni 8.989381664987155 7.8611500694534495 4.8198232395155625 -0.029766946849787444 0.2729513969259041 2.943376787552905
Ni 9.209092126608633 3.1967476752221042 3.7562301547637826 1.037205383860233 -2.0852865340927056 -1.7488378879441042
Ni 1.6911518483368353 7.647998823391706 1.092061010666215 -0.026839488790347327 -1.1819458934351386 0.2532616318064606
Ni 8.272054686752309 6.611791626583304 0.5939383645117818 0.5377343991084029 0.17164016217922698 0.33923777885796413
Ni 3.390658555641957 8.818302437026295 2.2772061287843344 1.0275354648706367 0.20669355423893435 -0.6411040590460055
Ni 2.2285330277903577 4.057195806585183 3.3044546466388813 0.6427145980662351 -1.9803377025934408 2.247654269831071
Ni 3.379242729412461 0.1986083952228465 4.875980358943937 1.0674466992432778 -0.5896670834219522 -2.4576655755893286
Ni 2.904643942295239 5.270920496840032 1.5606857945055563 -1.8054785192562839 0.3120810159375141 -0.6444992007704836
Ni 1.8471681401399502 5.116392821334162 6.1528986717872 -0.7021636453614875 -1.9506311766679438 1.403853179300034
Ni 7.27048573041042 0.07449966336598857 6.127012564763298 -0.849107333235299 2.72363385632918 -3.477196424987934
Ni 6.193713739502095 5.531260879524434 3.74540419274207 -0.5579139593800714 -0.8806216017934962 -0.1411175681103376
Ni 8.694440257243668 4.97004323161128 4.82902847054365 -0.8765260915678841 1.3613461591757585 2.2269957130404547
Ni 8.856197025643032 4.174517378511791 0.1368317492723723 1.2639617702873136 0.10410011034572393 -0.9827735872739137
Ni 5.311196871532362 6.826347754275571 11.268581609224613 0.37083432271732264 -1.6390641242523707 2.7178421893480675
Ni 4.73998688672395 7.107798576825276 5.775922411058107 0.7900066704184007 0.7434067111716746 -0.10712321344276389
Ni 0.9512816370505867 7.4591957576417744 7.7965273752196795 1.5940348519268739 0.1178935645853905 -2.2615233145036795
Ni 6.937519480124186 6.667763599359708 5.554399559094734 1.3338109298699674 0.6748724137457022 1.0650830841071077
Ni 6.6571572082418395 6.108602102707123 8.592094165267342 -0.966614203905232 -0.0587597345377117 -4.169230438114587
Ni 1.7944618193656259 1.4634679856732402 3.3685916798056743 1.6368020676910713 1.3301957017148833 -0.30830663649674644
Ni 8.88253623025241 5.561768209766096 7.375063816447427 -0.5739216476622374 -0.8668350895323652 0.11686486621056003
Ni 3.725876338077775 6.601613212650891 0.05419865861231233 0.7553543704518539 2.4620228241167594 -1.5876135217815626
Ni 4.44468262875801 5.3666106131973 9.039226120930028 1.6349308188102876 -1.6877250797931838 1.7377083536898459
Ni 5.274586214471997 2.900559551329674 7.012289885579236 1.1789536435760342 -0.0017401226195582935 -1.2085825221860604
P 7.518107747605239 7.657218940582767 12.407409361639145 -0.8919614522863477 1.0870642163638893 -0.09549745627837747
Ni 6.48498012576176 0.48938819003034917 12.799977017311507 0.5199238532895433 -0.4157095859634583 1.4753154490060785
P 5.090974698058706 8.577416408576509 0.8404625271873817 0.1634026047607831 0.39365209194278655 0.1408537729259897
Ni 6.960872148287214 1.0284198728034415 8.264657194140186 -0.6596090598287286 -0.18795149774474082 1.3082418231516113
P 3.1404593714825344 2.7360953620396944 1.4120279191367595 0.22026615071704647 0.4055969230094886 0.1226501054337694
P 1.6956270010804275 7.114636907940746 9.834125824799488 1.119336960354666 0.9313281270094284 -2.3798974182699144
P 8.880405648176977 4.145721957011961 9.254173010400322 0.9614971943936409 -0.2421747778646797 -0.6010992365182938
Ni 4.08340475726855 7.658605214509576 9.754588125652512 -1.2599061121607011 1.986004156850599 -1.6853352394047683
Ni 2.338569683712323 3.1843735522512566 10.927948985007566 0.25128959568175435 0.34689015319689936 -1.602756290960272
Ni 8.134097171405145 3.024151919408425 7.361814201016761 0.9655271414886405 0.2419716607149381 0.7302663171349746
Ni 5.499227717578098 0.34259759772940906 10.78272237020392 -1.0134005681311515 0.21203244995334453 -0.9533488542548937
Ni 1.3987131767430905 1.0880296516562389 11.323690184548617 0.7329657183440087 -0.42329382606861937 1.613863199506711
Ni 8.114270663096216 -0.03946414842514595 10.955837280951263 1.2019660453108074 0.7564517172810908 0.9218096459960319
Ni 7.207359095555383 2.3929786093766214 10.953699255794344 -0.4006166961860778 -1.2598462054570432 1.1055622751680767
Ni 7.665527280291764 2.6367581357541763 5.207270985510586 -1.5141625037802633 0.05446393537583523 0.87976928109553
Ni 4.350639294179568 3.8931688983325197 4.8533487392998875 0.8652659452730325 1.5157331907014928 -0.21791796219984405
Ni 8.973965182458814 5.203588520945276 2.545013782969792 -0.19151350406438628 -3.283951540054738 -2.7482663101658797
Ni 0.005727451203649444 3.4231383024774678 11.320789243539359 0.3427213665311904 1.7808054419896362 -0.3498530924799652
Ni 2.593625478541507 6.825035911163623 5.20603171244313 1.111921127506569 3.2682295013337908 0.17198623266473606
Ni 7.446747203856065 5.330762871989274 10.38288282391952 0.8947467283409688 -0.19350353791122157 0.8045920244317434
Ni 4.855094141908406 0.28543473191520796 6.5036762160699695 -0.49956662978942995 1.7314094080550115 -0.021973933167929897
Ni 6.800790073222248 5.456197402735865 12.707285532408001 -0.5784928119726875 -0.06436731053247624 0.8630385986044103
Ni 2.3354715010436826 7.772400626582085 11.677980863292882 -1.2024265298869936 1.2546788023234907 0.8542793643545417
Ni 0.3354010683174161 0.7071336781394637 1.8139515282373035 -0.10213270220670796 -0.39428072666572095 -0.028133010790790256
Ni 8.941578474141881 7.07333710954406 9.568646924734033 -0.8333883798381454 -0.2518943191452887 0.1365913981052099
Ni 7.720950325808561 8.778826193593734 1.6746347201337184 -1.2314103187138532 0.7348660206905151 -1.0281067639930745
Ni 1.8016723045554053 3.731988968748337 13.098247343249707 1.126247828541886 -0.31316704991284133 0.7451977416338262
Ni 5.750013044404562 4.153518584868781 11.07950780138562 -3.1446232026343393 -0.8379736852159827 0.803299530872565
Ni 5.40223506196074 2.001258534608505 0.8805118878943821 -1.3652251825151909 0.04343004615917682 -0.9913777840031571
Ni 4.748602253544256 3.948666374664178 2.3989842457508184 -1.9127948225464606 1.4086791399337675 -0.3995882549215634
Ni 4.442170588756409 1.5156718984472444 3.0600136163942384 -0.6709165144217477 -0.11211398178913595 0.7993518590787266
Ni 2.1583819847826953 4.653014479557423 9.07822600714747 -1.1447731410395834 0.45978575034706626 -1.2212866000162903
P 1.0490186008165667 5.701958649559127 13.57089790378791 0.58975887180481 1.7407543396050216 0.3281588953359832
Ni 4.390841238057036 2.8976660534019043 9.166764252581663 -0.18037702783159257 0.4638030990365754 0.4170645573294559
P 5.8847607308607905 1.2944914282322377 4.945155427891718 -0.3610278781498621 0.5812595760845473 -2.105450153524774
Ni 0.8903125654413676 3.107579559017139 1.7154172243671115 0.1306529211335879 -0.7649803235773923 -1.1443442810322808
P 3.6342147895749255 4.975485984948081 11.12080853016749 4.265867664424363 -1.3241479528589064 0.028078246293454873
P 1.8474379518438258 8.852038203862605 5.966126636897821 -2.275453037210894 -1.1988658091189288 1.0873966600026432
P 3.6126019417093023 5.832407956457062 3.4899334461200286 1.3082083988105149 -0.38771567185369354 0.7414205339795811
Ni 9.15034760597861 1.7315584769551744 9.71327437147804 -0.5182256396515139 0.6994459893200082 -1.420147288474367
