# total energy = -340870.28107899055 ev
CRYSTAL
PRIMVEC
9.21544650227129 0.00000000000000 0.00000000000000

0.00000000000000 9.21544650227129 0.00000000000000

0.00000000000000 0.00000000000000 13.48773746768410

PRIMCOORD
 96 1
Ni 1.4213443839866422 4.237796775902546 3.6901098914569688 -0.6169601148099503 0.8501679132893294 -0.9176190049534518
Ni 3.4600499568865213 4.979990402495188 5.254215364201214 4.378900558483342 0.5753028442804802 -0.9424658887938027
Ni 4.632042790693823 1.3952462396260874 3.583529567026333 -2.0523345046467174 1.8050352610712783 0.11430816122697733
Ni 0.10054236391332098 2.842826999670109 1.393809551523753 0.4808317723840881 -0.34453065182578724 1.5100659651133863
Ni 7.983110877803536 2.8523465558581225 3.7195403412556503 2.0708359058850143 -2.228439130355201 -1.4447257491446794
Ni 2.93770923637077 2.557701086352466 5.062797639705865 -0.7900262108024265 1.5424271550529114 -0.24552775349731262
Ni 2.0461977308677923 7.18132095898642 5.844843464493148 1.0377383735455674 0.051032541096783075 0.6090958815705252
Ni 2.6392393565862897 1.8802183247668205 8.885977656428363 -0.31437521128832957 0.6269105411544429 0.6869563414934298
Ni 4.878500690686295 6.55143597834084 9.003428521497314 -0.9956015922765176 0.601353775731261 -0.253100423638248
Ni 3.4285423454568824 4.355017254810123 8.082000912167475 1.076435018784817 -1.0755898971757025 -0.19979039936119786
Ni 1.5889825704495135 7.1585864525819405 0.3484839507850466 0.1776647711067521 0.062173131094634855 -0.02902158404333066
Ni 0.21974324226407677 2.58704306786518 8.67138769182192 -0.40612142805439094 0.18518730473604234 -0.2965294413561603
Ni 4.381124614617133 7.231664942970076 1.2475318483989215 0.23293988952997305 0.5544177733013548 -0.26295726182766965
Ni 5.582109242971859 8.974637623682607 2.426134000403748 0.9012829867975898 -0.6993146059484666 -2.077971231378215
Ni 6.826913319220101 0.9262260922989556 4.086163976842716 1.097009500502059 -0.7870028505950704 -0.3055002773962029
Ni 1.5290821684920255 4.790419453469421 5.922505717947999 -3.3857872798463173 -0.37972211212525575 2.965556408973738
Ni 8.352843805024516 4.941672576135306 9.435575824468707 -0.17685050273557282 -1.3612080909359978 2.5159892510308866
Ni 2.957992434018221 6.605678096174961 3.5923376907480202 -0.22819594708708443 0.8783775429543258 -0.44877268706601425
Ni 5.707789501725124 7.658072865889295 12.130844173956739 -2.8534002610927574 -0.14773507342685524 0.4093252797036692
Ni 2.587457762955655 0.2769730078389064 4.750515648774633 -1.3776384685778789 -0.9058520942255108 -0.3781056595677553
Ni 1.1134010252464233 8.200217580836838 2.85012102553924 0.5127129373634008 0.3692618360238802 -0.3038884528243928
Ni 7.356202486362921 3.8490339517519936 0.7244465198096067 -0.570217973558405 1.7686762628262702 -0.5381455185038925
Ni 2.546320009980543 6.495295478536992 8.203646648462742 -0.7957343169307972 -0.1647408639562324 0.20172926825512355
Ni -0.40302096290572575 7.143897030932673 6.464713097931435 2.4129219528250507 -0.3036133447861352 3.286347293980424
P 1.894059925342228 2.9289177004527023 7.146761191690886 1.9652741233920992 0.09359946792471623 0.18221485237127974
P 5.0269246712904945 0.3568764578716135 12.851925212720982 0.4184046162971181 1.4107162249684542 0.7975268900548458
P 7.012097715733289 1.9962776574210677 1.7476467551545083 0.835955112124057 -0.5376323263128999 0.20335857632843043
P 5.782969113904999 5.418802316342837 7.4396336092986015 -1.1165002622368192 -1.20330276184436 -1.1415489776753307
P 5.459875561192764 6.439468303912613 4.500588133191856 -0.8294121687992169 0.08267176526861891 0.534727493961279
P 1.2385744344446634 5.822899643394505 2.13621513338486 0.7113715371130007 -0.018430953011677933 1.0567514243129605
P 3.345630973701264 8.742030539712 2.895641644848349 0.5241584601961812 -0.39537113151642234 -0.9576667649039572
P 0.9529140252326302 1.8527931561167463 10.666089507899182 -0.4828958540019683 -0.8881816735289414 -2.159460032082326
Ni 1.2070576075685695 0.642948797540185 0.8272190217650373 0.37786628986343956 -0.11743693666394614 0.267740542148926
Ni 7.589896993015219 4.982948560807243 2.9932387520746526 0.7182078433085438 0.9247605010942396 -1.1080207640108983
Ni 4.369043164314631 5.582459429937148 11.01627094392124 0.6783076646794963 0.021201316667963488 0.4866856600617038
Ni 7.994104905424349 4.47006288835432 7.321534898343863 -0.3415515145928053 0.05067695752957724 -2.6193167448766435
Ni 7.381692411257445 7.413863534831844 3.2662850581790845 -1.5485558936584687 -0.0505417175032936 0.512915283182194
Ni 5.077526687774889 2.8386708333189046 1.624125675505649 0.09687788156567187 1.0388292926169012 -0.4940834951876717
Ni 0.3753783097193133 6.603530897150946 4.493494082510798 1.2477787327695478 -2.5176406705913803 -3.3897724897463104
Ni 3.0287670627926073 8.774846744538248 12.866762081513528 1.1948656868206002 -0.6362212770324076 -0.15471741828195934
Ni 2.5340450353024857 7.278156870335541 10.66660188672208 -0.01804374487558828 -0.6266686003469659 0.6403916063600132
Ni 8.099290011261697 6.461511651832969 12.515959524400404 1.5240841337693494 -0.09955311440498983 1.443972673028739
Ni 5.103035043562325 3.150788789303238 6.521698654175208 -0.42568726600146045 0.6552728943472199 0.8626683597491852
Ni 7.1430492098588125 6.878740990083011 8.262843911855715 0.8011436608718268 0.390219926332786 0.3120391069559852
Ni 1.2270090491436405 8.929196257213013 9.372655520707916 0.23493095181807283 0.669591367852421 0.0615018160592231
Ni 6.222204938289576 3.9750920438099135 4.614060690026185 -0.05849105425735733 1.664458138845443 0.9995762606535495
Ni 6.315926028736908 1.1313895767265798 11.219301974039178 -1.6573374686402618 -1.1347036726187232 -0.43424389732221985
Ni 7.50521625554024 6.073900758489291 5.1856036007098165 -1.6921664033939892 -2.8475067784264576 -0.29556347789846515
Ni 3.973976974788859 5.077941382865364 2.0878478626658024 -0.5491619242190542 -1.3057933616111188 1.2672283568537273
Ni 1.7206805157378924 4.19163660460946 9.829337106776451 -0.19306979280791264 0.545996382006879 0.44889481446617524
Ni 2.1750757495409423 2.296977675247658 2.642584563649454 0.9291555448381418 -0.40868173258239937 -0.4524740471770014
Ni 0.24376606808296597 2.106494397022846 6.154495367006123 1.8927769846636373 -0.35300629339696626 -1.5944968791649572
Ni 3.7411302892104206 1.0266283814261605 1.199445648796741 0.21593024234585392 -1.6406687497353292 -0.6028329313799489
Ni 7.768013142097423 2.7458989338564384 10.609737052826869 0.9691359418858213 1.4948769160777737 0.7263299581950458
Ni 0.7298799470394737 2.4600726466082152 12.622997856519854 1.0527759846049802 1.502207388300916 -0.5270005576306666
Ni 6.596849698471072 7.971305890894683 6.161400501034853 0.8916228380000063 1.2931957274517663 -0.19101059628603875
P 7.165378236619274 2.718925322082659 8.339239041423003 0.4252440078164547 -0.7431683699086233 0.39513176181210663
P 8.702533136205878 4.103343412124123 5.212093401544709 0.27813628356095327 1.7591876066095444 -0.19371642525297605
P 5.694989246599131 1.0987023881507012 5.814091519672819 -2.4373672303516085 -1.33653167123524 1.4701585873954874
P 5.756907831330263 8.383955152256592 9.906554254167526 1.7340766704745296 -0.06422538563797327 1.374285750055562
P 0.7101957534115977 1.3383961504452035 3.9014901160631346 -0.3847046529415116 -0.6074665734972182 0.17475505365912483
P 4.510021064183192 3.51595085508254 3.639693105446319 -2.53664729360087 0.7370761409679564 -0.28409712913007845
P 1.110276988898179 5.713844050046058 11.501573863589709 0.1299587232800407 -0.36988661409207263 0.4010643252464577
P 2.970451717625379 8.538765437254105 8.034172745066035 0.6829305081634883 0.8778054725009398 -0.980814406665014
Ni 5.98051142411434 4.213034871277967 9.526172878567793 0.04867098284314198 1.7306545321668583 0.19400927390304654
Ni 2.9201538108739986 4.132685393636837 12.025424074234788 -0.8639883641121895 -0.8000535131314415 1.3628068028816853
Ni 8.642789396838124 6.764340437790663 1.43183156205243 -0.1375157096916922 -0.05339872733611449 -0.1006579174333944
Ni 8.248451227582297 0.6635996915011905 9.657435854783495 -0.42125391282045516 -0.6009241443930103 -1.0932238082073817
Ni 5.177412911900614 2.1229071071591976 9.052146900726306 0.22555696680234055 -1.9741886522729097 -1.1049115289579552
Ni 4.975898744269169 8.645203843809334 4.6230429856858715 -1.1739603041265005 -1.932566862967065 0.6676789813210566
Ni 5.463801341382592 9.119089746864704 7.936522188250293 -0.05031520331478431 0.022695127604670594 -0.49993892552718416
Ni 6.835714070584624 6.47868002857863 10.625963610944831 -0.6153914847712498 -0.8367061313574686 -2.0090512684780495
Ni 6.882242859735911 8.226398664215488 0.5347917102210991 -0.7509734677753389 0.0565033344033672 0.31446134324423264
Ni 8.852016893152403 8.688728397416291 4.771974737389742 -0.17456376358392517 2.593320063702566 -0.14830071612233814
Ni 1.237219763815779 9.137714164150257 6.819507786448865 -0.8733255823527152 0.5836517304658078 0.2656556345954393
Ni 5.809859786660684 2.923692542312718 12.65478838215566 0.16489564436654183 -0.5666310275380951 -0.8801508328046648
Ni 7.741620103450309 8.598757993676143 11.561311152144944 0.9337876442935145 -0.21102997683075914 0.1792115467685817
Ni 4.374213029775884 7.289196975188629 6.560287414660866 -0.3633999779264645 -1.016528572237172 0.2814866880904249
Ni 3.835634692606426 9.29451498558205 9.846385682718196 0.18960548840839603 -0.47555329759396814 0.5188018238699581
Ni -0.045879100176208366 6.93187725434253 10.099172751335962 0.9544374593333821 1.6092210727490093 0.10801821445320753
Ni 2.9993329268153426 1.5406567692395032 11.571750409889164 -0.08018062341564901 1.061252654617424 0.1087023850044257
Ni 3.6298076960340424 1.0938827096547372 6.679734345431971 0.3352091173145453 -0.7797194295597797 1.5279680422047879
Ni 0.6621841989257027 4.928291747882649 0.1979256727818686 0.08635409921621258 -0.9146979746519149 -0.7278487088324175
Ni 4.9900536700240465 4.844504908713805 13.565562013838875 0.17578863712996176 1.5686477793123372 -0.7672783755829495
Ni 0.9730497757368013 8.945793276278465 11.849975796901305 0.11030829603896487 0.8343749121211307 -1.4546309240735333
Ni 8.136621784850895 9.407772822513977 2.319608047107197 1.4382625100178392 0.9699298985420263 -0.9458116653375841
Ni 7.338757646223609 2.243951996345598 6.002541870409657 -0.43010493545318185 1.5700300043718445 1.5169763190799745
Ni 8.067717891706874 1.5001180202839666 13.211993901244606 -1.9793748244595395 -1.298303995212609 0.3457745515352174
P 7.313470461151095 4.69456037944453 11.741588323420844 -1.0677665444765416 -2.4095556074559794 -0.04443097661986541
P 3.5652074163845056 6.596342848916047 12.830534318409638 -0.04284332041777138 -0.8224923017509319 -0.6394662663322663
P 6.425534548872656 6.023925392363835 1.3908827257296454 -0.07011089788447279 0.4375691050407109 -0.0054821061604937845
P 8.931463257040942 8.550533562377138 13.4813309901509 -0.42831956141798494 -0.488765682519184 0.8310651310216073
P 0.588151909829475 5.645474652796426 8.093505475521896 0.18726398475941297 0.26349462238837845 -0.19496829538220614
P 8.287607659569586 8.720945598222963 7.727570233785019 0.3059432784708925 1.0735319862054091 0.5214320624039536
P 2.470707271817283 2.5895773156403044 0.37556999100557725 -0.12753185900610292 0.7967617297540471 0.22103233945910966
P 4.077484869371398 3.3124922282490905 10.294124599546802 -1.580570498891852 1.2271793113516414 0.9567380824421006
