# total energy = -340870.037967453 ev
CRYSTAL
PRIMVEC
9.20159796322569 0.00000000000000 0.00000000000000
0.00000000000000 9.20159796322569 0.00000000000000
0.00000000000000 0.00000000000000 13.46746873095750
PRIMCOORD
 96 1
Ni 8.35448038274062 7.6614712394447935 9.892434533490153 0.5595414676811654 0.5575653177914011 -1.1549739928319849
Ni 2.0734052535782475 6.17100561523263 11.864274389906244 2.7483814955875054 -2.560001137835462 0.49723232522929856
Ni 8.724835496112819 3.0343925321504432 3.8255284354778856 -0.7144056959536341 0.032895979397072374 0.8272634978873301
Ni 8.102282987841239 4.04799454744311 12.793556642797423 2.414284380390216 -1.075805098510302 0.5953440792020716
Ni 0.6565266479916438 7.966163750292108 8.021749682970439 -0.6099116926036011 0.7818315908067761 -1.877745030031179
Ni 4.929121157950078 1.5414792829002169 11.252662581522847 1.0675857959243034 0.5647806045929176 -3.6801217704336877
Ni 3.2593716004987314 1.2116664098201473 5.410124565759141 -0.129829396791028 -0.1801911370730316 -0.01945090963576005
Ni 7.250353047431166 8.710214157069652 1.0796428034907237 -0.3526162570473992 0.3503994519017385 -0.059185766331536785
Ni 5.631212278360825 6.151415413330237 0.7309399701074969 0.018816361375554688 1.2294187422051215 -0.14995444967567725
Ni 1.9849594946840246 7.12123622587439 9.560529217050478 0.9070489427470895 -0.7206575904006169 1.0985076823141404
Ni 3.885678360708394 3.936830043364759 1.4614355030370296 -0.016257856619759096 -0.03834543254741783 0.9115180342620366
Ni 6.297233135052746 2.6070703262570074 9.264568102438567 0.8253079168228561 0.02964919032500055 0.3581860378256928
Ni 7.380960527845711 7.6162545874258365 12.185514134234571 -0.15602302446726035 0.16327096427892526 0.895126994498523
Ni 4.658152503360288 6.794864750404229 11.668430340949007 -0.6637266815415278 -0.821290825243663 -0.19547197449150205
Ni 3.750580500524771 2.9803331445616417 3.7111498132574465 0.07966845966592086 -0.9977114395306688 -0.15672390718902685
Ni 5.084361315909342 5.82738114372349 6.814350974250494 1.9253626319091421 -2.429087249731004 0.5222424741203909
Ni 7.400164262636831 6.610970816623429 5.195022492583248 0.08459880708800269 0.4059638194306041 1.0699113587336864
Ni 1.7377493658396437 4.134176713257018 4.526793252398338 -0.48851885661570066 0.06427526503930221 0.9816890959604836
Ni 3.5891384655893637 5.049229615175037 10.017789741830537 -1.0183882511537299 -0.07698088553142872 -0.9809175079017814
Ni 5.013950688874532 3.264230044183308 5.875788909889816 0.7516028738292218 -0.06684791086248487 0.25375039851742104
Ni 0.5017465699267539 1.0247267471386003 1.8623215181998056 1.1748835872717185 -1.8268680406756534 -2.107444044026351
Ni 2.3654823737218615 5.763982134278922 7.768143523434488 0.48619046559284007 -0.5062255298668443 -0.4940117614094718
Ni 0.9987138299107634 6.514114797260073 5.7206306461517515 -2.156849848152989 -0.6428621793876927 0.9625688301912648
Ni 4.898820296106687 8.067574560609756 6.651071380216962 -0.3855006664802457 1.4721007987235228 0.4197541883464771
P 4.5156565584751505 4.932304910819139 3.799145614014973 0.6315650092073188 0.692980950420955 0.24117076208019753
P 1.2632045595877859 4.1395320432275176 8.926749839196411 1.7902588740930523 -1.160808340125575 1.5675128943769456
P 9.386181941077911 2.0610843140069446 -0.36022415409811004 -1.3487030164904514 0.19844365552531631 0.22014145221372408
P 3.6410262760767256 5.627218784877669 0.17562905855828667 -1.5081782611723702 0.9555286355150318 -0.8630524825614813
P 8.20820258112374 1.0930486114529578 9.192382487171267 -0.09428646668941182 0.48477995839855864 -0.7329546626004151
P 8.196323318251036 0.9712930682061459 3.341642167050683 -0.2878280569274204 -0.16350570599755065 -0.18975564083301513
P 6.3493325822915185 7.0464640414409265 10.176356277426116 -0.40041357903633623 0.3186753813255802 0.2432474421035682
P 5.2683656688647895 0.639698765775065 5.436897534972482 0.31958889427878506 1.1007967354586332 -0.035742447706931996
Ni -0.03307422344667024 7.7363814478465684 3.302236324097654 0.8478832310202107 1.3244189471321062 1.531587127014614
Ni 4.168829930901176 -0.15819479104092463 3.406690102836684 0.1078004420154466 1.9915957920057634 -0.14958935302677462
Ni 0.9555951422101467 5.64612806853639 0.38714894967659375 0.048910095437141574 -0.2210194839433032 -0.8450593884181704
Ni 8.372147450684535 0.3254485552020493 11.280163397129087 1.1049377542102004 0.5149168869932551 0.31323852658072504
Ni 2.352719757451961 7.296397843259994 4.158202085341165 1.0271325730052634 1.501350953837892 0.0813659019730018
Ni 5.175631965355014 1.2777338826520783 7.571464889548857 -1.9489337343608626 1.8232674678085892 -0.3255397125455813
Ni 9.49982167498799 7.712917373233558 1.0363226007963717 -1.8306881857526924 0.46417693743622646 0.31802103557103295
Ni 3.4580709052804464 7.094468777619782 2.177326259799593 1.1749550639396025 -2.19420617731426 -1.5253599151579795
Ni 9.012035769376082 4.143341504752924 1.7478757243147884 -0.569302146612355 0.5156308823411443 -0.08558096849561389
Ni 9.078176854991112 5.451661498782904 8.330100749137808 -1.3132822137889963 3.47776720988974 1.0527001370617226
Ni 5.886602627727154 3.476722544198319 13.702341416234505 0.9544341168992725 0.8011171785092653 1.337948863297741
Ni 1.9694916086352119 3.4618435604143034 0.22061291015069065 -0.2122543361561635 -0.9960026843696783 1.0110048142054653
Ni 6.477391220091238 5.466595692154245 11.881405004693319 -0.07940286470936002 0.6709877339793153 0.09154464227821653
Ni 2.193311275649681 0.08755504421871708 10.438056162463873 -0.09019738422170273 1.6599088289118638 -1.9228092693596692
Ni 0.7704599128743298 2.0099694377421287 10.271988484270441 -0.5832035871847956 -0.15738570914274186 1.1869508028488978
Ni 2.779545077059474 3.4632145984995346 6.5607181300806685 -0.031198537089991426 -0.7574865863035084 1.6109570816035095
Ni 6.0709750445981 4.635783418895882 2.42431923093383 0.06527799527220371 -1.8337961352540546 -0.5615047620551233
Ni 7.740236917361413 2.5895044758898544 6.867102814779488 -0.1982279399700844 0.4646687894709804 0.144833326399028
Ni 7.87072477700342 2.1384053410552335 1.4100979481033376 -2.6162851571391714 0.43166096708639207 0.0719536075201664
Ni 4.512454402410316 7.040151745290132 8.769826708983533 -0.8610879026359427 0.6186801828248506 1.6230492368813534
Ni 1.2681090112617996 3.9131451304024485 11.62542851354156 -1.0392738363534875 0.9069406993039993 -1.6100469110844142
Ni 4.615438685966719 8.692887548247574 0.7766691511287848 0.8962791058250952 -0.971288983673082 0.5936052421340938
Ni 2.061802038642166 0.9462187139628296 12.846052678905146 -1.17729425359574 0.6829227948540045 0.41368844176837144
Ni 7.047154161282486 0.3007882728636684 6.898468301498457 1.5958194546311226 -1.5488055477754292 0.2842028014700073
P 2.791258711170205 7.590885782050122 6.452897486674619 -0.4155658612967424 -0.01602799999714014 0.12428481282371501
P 4.054950955446026 9.182716208590495 9.114445873224307 -0.44089354142825365 -0.4828493170347491 1.8184404787335906
P 1.762455656167462 3.342195183083719 2.5677206130510926 0.8232978283713627 0.7741689320551958 -2.5793556311026737
P 2.0773619406698534 8.719636593306406 2.4414903327516106 -0.7141778962135442 -0.07367110443190537 -0.17525590455494336
P 5.913324067992325 9.140922550985673 12.445947879403015 -0.001049010089804645 -0.050216215843074806 0.5888181051580956
P 4.668706736137199 3.550086884155002 8.087066305414755 -0.5353345314176586 0.5654961426027035 -0.13822841948800066
P 5.2646022153288206 1.8798864484071698 1.8271318473988094 -0.1147082248788734 0.9649869527144542 0.9681031297459327
P 2.9270466911953865 2.5237958653755346 11.693641799000847 -0.027607477304623422 -0.36035990554856007 -0.3919960443966023
Ni 4.537942828558569 1.5412124365614805 -0.13914564309431415 -1.359729449507942 1.2435225285963551 1.5451083014295002
Ni 3.446219247201404 5.478953438117098 5.547196168689624 -2.042563541302882 0.06823553523863087 -1.4774618059251199
Ni 5.997859147784379 5.1524439386786245 9.298882701280466 0.1971442199876024 -2.2979301352674875 -0.24148263689366153
Ni 8.79361744032155 5.8915806921842675 11.325562240786214 1.670948374555477 0.08507394695220831 0.44889224336301403
Ni 2.7817166541609137 0.5804864833692887 7.7168860224024165 -1.7591104735147058 -0.530896293140647 -1.6574289999128036
Ni 1.4136782898413465 1.7282901232113395 3.816720665980013 1.3417394406884247 -1.4414522205997304 0.13562851997130837
Ni 6.828956670577251 8.893914857294815 4.423672785193202 0.7174635089433515 -1.185244104570436 -0.605490423607454
Ni 8.32131782395423 3.910265030263675 10.157204991742955 -0.052515039179580524 -0.5301439883556547 -0.28270847631266793
Ni 6.064055442986734 0.12861073367296627 9.402380433998989 2.3876464660877135 -1.3090301233808617 0.7409340812614659
Ni 3.675743904906095 8.776502468250882 11.976606576756513 1.5643491519369834 -0.08493382182991825 0.10546099524899258
Ni 3.2194918752544988 2.4334729805122706 9.515587692808355 0.060615813909844 0.027114596828604915 -0.5940803819982994
Ni 6.145103117179443 2.0725403033768264 3.945671858774815 0.3539925685696355 -0.28311856726689305 -0.9370364902481153
Ni 2.945054218261137 1.4114423015546949 1.6794876084956414 0.24278695752738186 0.30939472735460266 0.7050985596200953
Ni 4.929010738775428 7.136980159859826 4.443187533992917 0.6111633056225151 -1.5358885826034452 0.03627518028195043
Ni 7.428238337791457 6.5160103264248885 2.5676939284172184 0.9337642472547467 -1.0430060497024103 -0.8049455511164202
Ni 1.101578492694629 2.178708339802289 8.078353312375121 -1.0799453459309207 0.03923117758648082 -1.55809597193842
Ni 6.774474009485628 6.891435520233076 7.924056318199324 2.2438037857367292 1.1985176817508907 -0.3526437678512249
Ni 0.8953320373256227 -0.09440195320677278 5.221889318095041 3.6300569925668125 0.9358105882608141 -0.8752431110904023
Ni 4.453886231856662 4.017537258435632 11.954021254741752 -1.5857021636914626 0.6148970616333346 0.5062885218942957
Ni 7.127060837337149 1.822910154288045 12.638869500871197 0.2309398283808087 -1.4687933316168447 -0.26285801724564406
Ni 0.4040955325059206 4.2660356109842565 6.496181803137211 -0.3535868484907846 -1.3212588042365696 -0.7500244735985083
Ni 2.2834869349467453 7.90703428226732 0.12784516072872998 0.695898381178066 -0.6793754438223784 0.2583336470127293
Ni 6.84693659284934 4.3622291152997175 4.517230951873694 -0.8979603501822601 -0.22511910793397358 1.8798880445161106
Ni 1.2607293297560602 5.637911041622893 2.86793746668595 -0.14137005044077589 0.8642390466704147 -0.9815415146390256
P 7.83499497240643 5.938895308521563 0.323691970165334 0.8639078885832412 0.8081110933285954 0.17890661393365317
P 7.439758738346552 4.763096727266719 7.148195987524846 -1.1837739477828129 0.3550716605664272 -0.4070537100606732
P 6.433775646104698 3.481792624634307 11.442095877231896 0.4775461596542808 -1.955442482013658 -2.1867237528942858
P 5.776266267458674 7.735176038523312 2.4892457056277166 -1.2258947882122628 0.8952640342970195 -0.40531615854427616
P 1.179626445976027 1.9877843852354735 5.856301765883763 -0.6333562967797866 1.241446877014249 1.8059019799469478
P 8.73864709454189 5.257222533823081 4.130136291624637 1.0699517250533186 0.4746048176377697 -0.21508846317084895
P 1.0990204484819164 7.80827353214126 11.433423371222968 -2.663317575937626 2.082897722145555 0.48819104096263666
P 8.656145567882962 8.22085477821899 6.090110687564853 -3.6148998252104 -1.9795170064643586 1.936682684907652
