# total energy = -340864.5690116868 ev
CRYSTAL
PRIMVEC
9.33676996821757 0.00000000000000 0.00000000000000
0.00000000000000 9.33676996821757 0.00000000000000
0.00000000000000 0.00000000000000 13.66530662365940
PRIMCOORD
 96 1
Ni 7.613949081520913 7.376300278396433 12.489925882729008 0.46563423870804327 -1.1619008018588055 0.9168615579621372
Ni 1.2062826549826575 3.759188952641528 11.123955519235828 -0.36594665560771816 -1.8262826004858292 0.8155624074003179
Ni 5.506219970558121 2.078374306538035 5.936236110363319 -0.7750719034854393 0.4712587839836722 0.3241351188885708
Ni 0.2048823429946318 5.416577643178317 -0.040648561241611626 0.37068802694744546 -0.39398299291964406 -0.5516988317082951
Ni 8.846636121654086 8.838485121570493 3.555603486979784 1.0326794709654215 0.40617696388267466 1.2841248754987495
Ni 7.003371016839916 4.708523701209001 12.885209238672852 0.04187709984976014 -0.42478275190931997 -1.820934191689722
Ni 8.159048379207373 2.8489285859180806 7.43350293259132 -0.005173573781139477 -0.4141586965365706 -1.1327105534480943
Ni 7.404366608581173 6.645940793243035 10.19639598532466 0.32161723756272353 -0.9758048692655646 -0.44448408699298936
Ni 2.3544345808468212 5.441161358207067 12.871010812754045 0.553072315017054 0.45139804050400323 -1.0880967713934615
Ni 2.366058859316549 5.53722738324725 10.269792333156412 0.3811493314900855 0.3825187010337864 -1.6061789434885758
Ni 4.352540676939676 6.94281272755907 7.477696665346951 0.21820026932695324 -0.6034679938607865 0.5895045897021589
Ni 4.9511116555868835 5.991629298560267 10.103990907744702 -0.2845995226877937 -0.7214145231712995 -0.5323152849753606
Ni 1.9917104087420414 3.2720243119066033 8.541103399620365 -0.1228244262281046 -1.2723919033325377 0.5919713060750965
Ni 2.9637335080576563 1.289809398107303 1.4910083853940574 1.4249051148743268 -0.429135372451061 -0.43042375224518126
Ni 8.562695613587508 2.389839612137751 9.651491826128176 0.09892653656458446 -2.0988097653901208 1.8184623331104617
Ni 7.126616378928595 1.9374451023436017 4.014648577941794 0.5854826130269594 -0.3241376899917321 1.225684986194302
Ni 8.98995553893145 9.352362260861154 12.426382628125454 2.5172010119508004 -0.3938158712141605 0.809766112433515
Ni 3.7420653167270856 3.345710099603865 10.582317362134694 -1.3947545594328754 -0.8949480457184975 0.006997000143123433
Ni 4.189950166681172 1.070507347748296 11.245003005700593 -0.2161768111390212 -0.6471425519306016 0.9967817286275478
Ni 4.335538419033352 4.1316980595545605 2.1994451349274375 0.09460939724646932 0.15276955052696914 1.9823105100490956
Ni 6.3392932608886055 3.0828240075607702 1.089184622166644 0.32216925341145164 0.15270218762414348 -0.35736431325534584
Ni 8.39053491422742 8.425118309771092 1.2662639318864524 0.18098997882524315 -1.5454289179937126 -1.3623198359429376
Ni 5.611183937270312 0.8334075466913008 1.660772335932314 -1.6142828035426329 0.30056864442254044 -0.23316126151215974
Ni 1.7570587087410803 5.167481960211357 7.244293291475631 -0.4152043641922656 -0.7662409354573707 1.2849003202121934
P 0.31195735337108493 1.5905841022228115 3.8640296739916313 -0.16802596246540738 -0.6113512532636052 -0.0027377106461372205
P 1.7631276091469623 8.307278937428576 1.6087067725117605 0.38018953867997746 0.27595804496271187 -0.042720421686661916
P 3.6107903325629325 8.147386753658225 5.856035124661097 -0.5744289263159591 0.7823882346411944 -1.8326936462184953
P 6.94073062788136 9.879609654584465 6.605740396954475 1.45237246705666 0.13013741494975006 -0.3137787153549112
P 2.8575370877245776 4.902112287386778 3.8977279437530297 -0.40908719555093415 0.8815417996149205 -1.3344233666429857
P 8.327250288148855 4.336266687082057 10.991771133687779 -3.39826535770867 -3.264178214082553 1.6090259260190676
P 0.6568146826809484 1.4325592724235015 7.898287335983322 -0.4293449173587057 0.05508974188529222 0.8800880978875295
P 0.44115117153451383 6.733024845682515 8.787885431017205 -0.8497722205128074 -0.4267231634651425 1.0543394724373583
Ni 8.30249851126271 2.242878854616856 12.318986432865982 0.7212304321849514 1.2910606833866345 0.1869593090348006
Ni 5.824650506469817 3.9069713459096804 9.772333903656126 2.473826244509591 -0.24382542609422525 0.7248330619345452
Ni 8.486330172941804 7.40150955700548 6.717768563739113 -1.0354416070915908 0.14309191822788905 1.2075846770491654
Ni 6.083801890570831 3.9477543566372075 4.522068407200597 -0.19428206794845893 1.1573975146718132 -0.5672576053785005
Ni 1.8004466782582085 7.523597159632115 7.394365994389265 0.06872918704559777 1.7385627312703413 -0.18986568404831816
Ni 6.087629966211464 2.6857031753094227 11.726281746718797 -0.8517735672135524 -0.3759595597590299 0.632521202473001
Ni 3.5544149161772163 7.666141625011498 0.01817495620013809 -0.999899448320923 0.2206232769461491 1.4719084802070586
Ni 7.623323198455537 6.075268082923175 0.8989133903184193 -1.9725539448829643 0.20497759998909212 2.352046714606233
Ni 0.7626105555872389 8.234993665209593 10.598989098388143 0.06085904026890164 -1.4241150148728636 -0.5400028834276055
Ni 2.1683154105532054 4.756570718883875 1.3621413541755605 0.6410863184341927 1.0233630786605021 1.4170645357839853
Ni 3.3092593500891523 6.6466223774424655 2.325138598072151 -0.2910373078933375 -0.7970718047952983 0.08220125339010359
Ni 3.5043791665231843 7.142806337857517 11.472994787763836 -0.32893742537322057 0.45908152519119 1.9692860727649697
Ni 6.1463955956801115 4.506485338312263 7.6006983377424095 1.6336990032857155 -0.2631770911479597 0.7991471992670882
Ni 0.9262449167155549 3.391226852647979 2.852031194540965 0.34264011967129376 -0.33583286694147324 -0.4344022772769551
Ni 7.910260809645635 4.136814609435212 2.8443106195476973 0.37097547628087724 0.24874291800050063 -0.42668331136614257
Ni 1.9490693808133293 0.7870364792054353 10.213669009556787 -0.3261341515964706 1.7736071244689842 -0.7045622275006511
Ni 6.676126570184907 1.4231944922587327 8.595068062029467 -1.0893051898792658 -0.815368289111641 0.3888158468964078
Ni 0.11601403383582444 5.9310336622 11.21886098378301 1.7571996296452381 2.291423187386905 -0.012096783263534005
Ni 4.5293044038383785 4.825606795193246 6.161113146002868 -2.4276957687001155 -2.110158614744037 0.34145998332026356
Ni 2.022829862669433 0.7492683114641538 5.255553842901516 0.8352696560212582 -0.8796736360579301 -0.7337558183454719
Ni 6.579761768509357 5.986503411909761 5.899216751564425 1.0832502419344376 0.5714101940942933 0.712559900994147
Ni 2.2240746001284775 9.253719287340935 12.4275982755606 -0.3916970250989447 -0.5702894502262887 0.5985849547368723
Ni -0.12133505897630462 4.4198401140559795 9.169448403658828 1.1127569931443029 2.8085980171764016 -2.300258783400664
Ni 2.901429242813887 2.797006808753297 4.377435306404604 -0.3217324229843491 1.1581701311717796 -0.8310335064527236
P 8.200793077229985 3.5693070640962654 5.2951557522423585 -0.8204179357204064 0.42585747303073757 -0.3538545003298745
P 0.40803458253509445 7.330671484114055 5.097145271861156 0.4808988781765976 -0.47832057592646005 -1.4319095712166179
P 3.1643993657856786 2.2095932700830576 6.330562447397005 1.4469764928520692 0.30307701266669096 2.609911906622976
P 6.109534028291771 5.4419549836447585 2.6134757910635433 0.14830817232150587 0.14628008614788357 0.042901941569848695
P 3.6270923327301166 5.0630781996904775 8.384007578421649 0.11917320262876249 -0.92644071701014 0.49210117465032027
P 7.945889923413089 0.4003980384705239 10.56560454409388 -0.12018338906083172 0.6404180887225746 0.7525549533298459
P 6.546681592912373 6.702661670113394 8.122753553749243 0.8677334329769185 -1.2201378311238278 -1.416278292437264
P 8.45443576711643 3.6808161064769545 0.5657615693760237 -0.1780938882243707 -0.8765132360520775 0.8524112007975513
Ni 2.4590250767648048 6.247830263387036 5.508853873334273 -0.06465655963812092 1.0831985627608958 -1.8620715851599803
Ni 6.851134984350831 0.21329103792622756 12.681103714930172 -3.1119285406147954 0.9040962878766687 -0.09721521030043258
Ni 3.2853105354105567 8.200344912276936 9.600930416331295 -0.4348272806295157 0.5470219950579159 -1.6734379737465501
Ni 5.728061622317743 8.105035165595025 9.464249442420979 0.14580211807020052 2.0433688108129973 0.3761354232152619
Ni 7.608897889029248 6.862030994771853 3.88792993746698 -0.377299361616376 -0.8824334581912545 -0.4735534935551199
Ni 7.88609724926037 1.099628732926674 2.099346558986792 -1.1096235897216438 1.8082558248911051 -0.8077138578901768
Ni 4.23608314653573 8.641357899617592 3.17693771402423 0.9472540542110653 0.8808545437399088 -0.20279499051547656
Ni 4.443116681305001 2.9035860366504385 8.336206117793965 -0.5666989046615531 -1.185331779188236 -1.893615164294216
Ni 0.3152093503116521 6.145798042409379 2.171225681717072 0.693692888886315 0.746095056637115 1.1200460706065485
Ni 0.6861638850437934 1.025989629078688 1.5332339270642126 0.6980917892849591 -0.7462439235101536 0.33109818046996525
Ni 1.5366082356898831 2.9353777380074044 0.33323024980917937 -1.30094914614494 -0.6458361744143523 -1.4077573994504464
Ni 8.795293224220325 5.080556632859417 6.918307441397104 -0.922679707305811 0.10796602105903343 -0.35628342148634123
Ni 5.717847196096151 7.70212553603345 0.9584857167025563 0.46877664099176686 -0.2070524802402499 -0.19289958577863553
Ni 4.721576505466573 5.470450805242837 0.261704056979426 1.098496883680863 2.220382064378679 0.597376793361384
Ni 4.710549780267579 6.4306255436122 4.67472366065618 -0.11238034807664515 1.7330528571957058 -2.3920317396396027
Ni 9.355256659516268 0.2231086514289735 6.072178545778089 -1.7512858352639644 0.24944534338416394 0.7889332348485638
Ni 2.0553498320751045 8.187068025542837 3.7695060833315273 -0.9289714538517937 -0.4948422277305672 0.6263197016479795
Ni 6.150578468575243 8.96554922252995 4.773619660639476 -0.2709431082466237 -0.410698505902112 1.0270513261453666
Ni 4.885716919521042 9.300048339362451 7.168164071107262 1.2680143430901323 0.25861723969141914 -0.54373098301147
Ni 0.9465337176109109 2.880141407544024 6.174545956793549 0.19698995379792525 0.03287181102735629 -0.6151868249596114
Ni 0.3848952658029449 5.001054037542365 4.645575198845222 0.409420667630953 0.8112825490780414 -0.35641403352693457
Ni 2.769650073077552 0.6448906938988689 7.929799867921618 -0.8519540586554747 0.5528933662370284 -0.28997595650835867
Ni 8.582891046784312 8.83081963351937 8.73935943704876 -0.13649832417077137 0.32431432477891237 -0.5534214708263566
Ni 4.086003907883197 3.3982387668092366 13.628273266568224 -1.7568340187757034 -1.4665860395528807 -0.5059131408327481
P 4.8119844479745035 1.4735476920878423 13.32488986895517 1.5398807344819738 -1.1507226737547989 0.1868451520544395
P 2.098728464822378 2.0225404228039214 12.061190747747942 0.1953177083018249 0.3855639156180134 -0.32299380619527596
P 5.581707754837437 7.573941022691369 11.760499140884146 0.6844479732492792 0.27535280727854516 0.23994048921752226
P 4.3048764668288655 2.097318612574242 3.0206616612187998 1.7995148454736816 -1.2127181416209887 -0.7912737100562824
P 4.670980549621229 0.6578053139625855 9.211618858386839 -1.0358319005514742 0.819829410206788 -0.004754998186482133
P 4.215803682410229 4.792629324064668 11.943764994310012 1.1680141138453948 1.5614137234577432 -0.30008861946232834
P 6.577801046839765 8.55420848978913 2.7423260160963006 1.048716469823626 -0.2830920849043318 -0.1566971677161495
P 0.9542738998208743 7.324705288176581 12.725023880329047 0.13669887021735166 0.804413332762034 -0.29128979022377577
