# total energy = -340857.4005648595 ev
CRYSTAL
PRIMVEC
9.32527383074257 0.00000000000000 0.00000000000000
0.00000000000000 9.32527383074257 0.00000000000000
0.00000000000000 0.00000000000000 13.64848086441769
PRIMCOORD
 96 1
Ni 4.518831954263404 5.584095305467906 5.797137717907395 0.24459958525608844 -1.9123945017842487 -0.26003546019518436
Ni 2.231575371576254 2.1953093809531974 7.358360172144273 -0.20473257385782162 -0.5888882962743986 0.12891048452118445
Ni 3.688863916867332 4.9798455254724745 10.34968426782485 0.4649786074019154 0.4803939135157211 0.038216363168721276
Ni 8.352470750128669 8.540365696146663 9.524210079973969 0.7216487506692926 2.2879668534071884 0.0710812322175421
Ni 1.9586898782354163 2.751561975621584 10.462216079407437 -0.32362038403568133 1.6511413671318789 -0.7632875092560016
Ni 0.21275332894519428 3.321746529660206 7.273985092906058 -1.193354906603029 0.18379685214641894 -0.6590277334039618
Ni 3.9869463005819163 7.327781666139628 7.006038264680666 1.008347064867644 1.289943796173372 -2.5692794778135943
Ni 6.717069471255593 4.3299765050224295 5.210416655467676 -0.6388229763213127 -0.23233748005928373 -2.4761433226785416
Ni 5.385905256943391 5.807650099298336 2.016194180415175 -0.3939364559524248 -0.6586176424497366 -1.144974972637744
Ni 2.0201434339582103 6.267712492558434 5.637272680507242 1.1231668756237174 -0.8785312949233709 0.5270146986980537
Ni 1.722667193054245 2.2541705105013423 2.590659035224171 0.9917719341177822 -1.0422956538989467 -1.4778870663879968
Ni 2.7155011410267362 6.597584735371503 1.4693955485376484 1.0955149182344035 0.2613510936828144 1.3350610002269845
Ni 8.909077705209418 1.3289914254679818 3.1607428763034906 -0.5150865798019001 0.6417144389364948 1.02414289424932
Ni 9.097345662187793 8.143276878272912 7.4075771033117634 -3.1173432838724633 0.7616399463502496 -3.435043188658652
Ni 3.509958534994524 2.000103420111733 0.5992663535647386 -0.6179967836045808 -0.8147154860189905 -0.35155824809653
Ni 1.8284904025143767 7.980121884202197 13.368646610614867 -0.8937961915022413 0.7330407945563182 0.47552064458381976
Ni 5.1917064256949566 0.722387013785145 10.396785294319576 -3.890851956635841 -0.530706288617028 -2.174869424658861
Ni 3.6143363269831785 5.325925094514103 3.520148261904736 1.3761886235052299 1.9766594824109054 1.4833416617446646
Ni 0.41283174545663714 8.830586873871216 11.522689037353242 0.29725834910238486 -0.33882923056563585 -0.14756718039042327
Ni 6.954089960755784 0.25213582614223584 11.320459280127801 3.6654983640935583 -0.45011146048209577 2.1348034098759108
Ni 5.758981494242606 7.076829217269201 12.445012723484885 -1.3045399488199918 -1.0583809894965837 0.9997228135337428
Ni 5.491038396126818 6.1269195055625705 8.531214804761111 1.19284608528741 -1.2510311782685744 0.46500303288194755
Ni 7.933504839428564 4.352357162645299 9.346261471214538 1.5404702884368566 1.4211482189350557 -1.5196078431655506
Ni 4.563574618961123 8.245369978129231 0.6418474197470484 -0.34645820786580334 -0.18619209185147287 -0.20136160050305968
P 8.17119674865744 6.929676393398838 5.178424437923185 1.0259359815940008 -0.8073233073199773 0.38594855265094175
P 1.4575869540593822 1.1410871541759786 0.33562034171254146 2.096278514327835 -2.5079792362422166 2.646307928753507
P 0.313389821001226 6.8173627932280745 12.231509642509323 -0.32996046732109624 -0.8038410051983317 0.6791533005092432
P 3.5931866055295676 2.704236210023226 3.7666805308946456 0.749913916162573 -0.8539613188934906 -0.5790538266824802
P 6.256447561554924 7.908196045766703 1.9977012295268786 -2.4594267812548094 0.04545144746457979 -3.2292569767253356
P 4.872045357922323 0.6600699376890685 12.534614618805442 -0.5371574435590104 0.26935262383105224 1.318738351807561
P 8.6207495581088 6.525295211249636 9.042445909038896 -0.23842225280078294 -1.4002096690101757 0.3095204542991895
P 4.161254322368027 5.716150510716841 -0.15582159858962066 -0.21879522259847478 0.18646874255162724 0.9161812440656607
Ni 0.6337316337765557 5.975868717156224 3.707364327974836 -0.5407379618214171 2.7884693647473267 -2.0105808177486986
Ni 6.450264056568968 7.082601561881099 6.561575189783707 0.341438900274341 0.4927838025396417 -0.5955099153559744
Ni 6.545055466875827 0.47469468070844956 0.3710022963594953 -0.29808007367273176 -1.1529073401109435 0.26791640560515795
Ni 8.83660167560736 0.06698624079264746 0.9653560955760141 0.3851628235248528 -0.007844692855399392 1.9276231458085449
Ni 6.949306095188896 7.317281407604899 10.585611835211123 -1.3254219344753237 -1.4554508488716673 -0.746375049771379
Ni 3.6301892927993773 8.123087660042282 11.987065302370148 0.4275034932745928 2.671372327921303 2.1205870091662122
Ni 7.877105582218935 5.153677958284098 1.2307030374075494 0.41928547624017465 -0.9699733501854523 -0.4298876772360532
Ni 1.7109919499943151 1.6170211638002945 4.837076512913991 -0.49152833286598574 -0.09085687218257255 1.0231748739090958
Ni 4.491508901415485 2.781570707384247 10.95477612006334 0.7687143366985277 -2.2688051928770734 -0.3793441599605467
Ni 7.915059447437716 5.327072103217275 11.473964480653455 -1.2967016837224958 0.9748396771388179 0.06621079149911824
Ni 3.613291896294111 9.379453851524055 5.372533746541128 -0.13471886367284538 -0.6173784332942917 0.05603642206927769
Ni 3.839840103081601 3.754560472264461 8.422695658584827 0.7298626539386528 0.3981525509163014 -1.6961333584615368
Ni 1.6976288323386606 4.680196495724289 8.724532397615647 -1.3559774386646777 0.39537704505369325 0.1675351388719179
Ni 0.06617121184421465 0.982473568547905 8.403397004022105 -1.1376046483156022 1.3953564546829325 -0.3981651493217917
Ni 7.825294359821993 9.119250730836175 5.395680941687581 0.1006129231280719 0.38901844982551714 0.9574147967941512
Ni 3.291038402346828 3.90772809787097 12.215308843972569 -1.4564888032178789 0.6946341697536618 3.783239462261484
Ni 0.01338363325847558 4.179149523192312 12.7728763022763 -0.7079707389615678 0.09391134273818019 -1.0231103392197476
Ni 6.11288496817823 3.1351757725515657 9.178426122118442 -0.5925148372833925 -1.0810840875210543 -0.06400864164147686
Ni 5.660217517207688 2.626612629167909 13.461087119343924 -1.2067848068556892 -0.22737242274452454 -2.012456951725489
Ni 1.9391907302814917 0.010247543609071081 9.715466787272398 -0.24059586341333403 0.9463883637766605 1.8087160523569754
Ni 7.682720245490309 2.49461337556303 1.1431051434716404 -3.1005403533825118 -0.5961652895517862 1.1146714365581964
Ni 6.1393687463652915 1.8090005798344615 4.497284043609587 -0.1793357310512718 0.7356620342292493 0.5370108906788171
Ni 6.544887611943656 2.5270373532941615 6.88852489172219 0.7470659051908167 -0.9308326754302486 -0.049769615223959444
Ni 5.366695192483763 2.1990394905570088 2.0048257388701582 -0.14258978178048992 0.10961126997194026 2.193580885025435
P 5.692119279594285 4.442318081015221 11.030252090314264 1.929280993126942 1.4225890651466404 -0.4298295703046081
P 2.555274282995014 4.238178507672629 6.156789290742492 0.6311981127862033 -0.6748644433259022 1.5210849419317094
P 2.9212912878690154 7.469022266287949 3.640773478800192 -1.1911090479916455 0.3558787298487548 0.49813401110796146
P 0.913577511638106 4.836805147440314 1.7464736850731708 0.2849895590373608 0.8338318951334671 -0.6089282456444093
P 0.3053159987637761 1.4133292036101592 10.441361036612525 -1.199493929621231 0.22577011125441118 1.762493788164642
P 7.130598747208143 4.0454344191696805 13.19690770181838 1.0912653989294303 0.49671527638356394 -0.6043485966935269
P 8.92760702466635 8.56715720837604 3.145224687824234 0.4638771468076205 -0.9136350806050394 0.037174552167768236
P 4.6428487733161266 7.602672093392514 10.379601611902219 1.6985177995333134 -1.2865872209963134 -3.0984631591385092
Ni 7.4892860867106545 2.595205106303816 11.352506516788948 -0.05794032396020989 0.6953561355213509 -0.07732387069314424
Ni 2.315670692594184 1.2486821656979206 12.14935957364978 1.2008103344398091 -1.0946281447540762 -0.9430839819937757
Ni 1.1169813208613468 8.308613986461856 5.097993949591 -0.7275471184315986 0.0750733840960707 -1.8026356504908505
Ni 9.268082104028252 5.887884756876321 7.068657479654651 -0.2899204206800749 -0.47370184620752614 0.8255012637805847
Ni 5.594847346400892 8.670089582893217 8.499127469421724 -0.17878577208507274 -1.810065110185702 -1.1203800569071993
Ni 3.2797921218913366 6.464401171967413 8.759677490302758 -0.3663125235875691 0.3374943138042962 1.1337130265706798
Ni 1.6742596956707816 8.597566926921111 2.1638440413902456 0.8037368755202997 2.058768690307835 0.6172138826919693
Ni 2.2648665997902717 6.814276127530921 10.925950765572486 -1.9799420098169191 -0.35428438877844143 -0.5739525009001728
Ni 4.971844440372299 7.625425761975764 3.927827793471108 1.1709644547229705 -1.714626789280034 1.495465184481076
Ni 0.3317895191494271 2.7725997937870805 0.6973272049393385 3.216622061570144 2.849431506252996 3.3261130039141364
Ni 1.8772988866802496 4.103577502619092 4.069649358190223 -0.3641301712242697 -1.5059316312300386 1.2146600958387082
Ni 6.745763339382913 9.197778863270416 3.4258371032093673 0.3207098952571057 1.0923897423418607 -0.3847131375819439
Ni 1.9092192996148665 5.247835249958309 13.480891203757958 -0.6793913846619783 1.1640304466072986 -1.1442193254186424
Ni 4.228013959002243 0.08042302811297736 2.789012276043851 -0.6057634747631825 1.527612715747898 -0.42343369408059334
Ni 1.3197500789245389 7.424624636728583 8.572583585322183 1.210382808619593 -1.1411437718171122 1.7454314333657164
Ni 9.031975491380996 3.7576751137836437 3.1063672035539285 -1.2108474069608373 -0.8618903439325802 -0.3985374450595459
Ni 9.022267881137077 4.695937558252373 5.210894109496963 -0.38252898544643155 -1.5698880794773413 0.8800333333901941
Ni 7.433959236012122 6.554940257325928 2.9337004299934955 1.3797490871629787 0.09228537709898299 2.5813886023723027
Ni 3.0573190598460105 4.171997038027004 1.6907878113252703 0.5271831059551179 -0.993968684658785 -0.9105132471466061
Ni 9.368170269972524 7.176768178829319 1.4522118661202899 -0.19468213160035505 -2.037504124502104 -0.42148736898749994
Ni 7.886757240818797 7.9192931218380425 12.98564268660511 0.4411123423072791 -0.43096934033600615 0.011342935816644981
Ni 4.182581224027819 2.4806907414668036 6.077599996380975 0.19188065759581793 0.6638801764002566 -1.1566326114813306
Ni 3.286366440068054 9.143962706961426 8.001981259007934 -0.20610168629120634 1.7863261146975493 -0.9263353017805273
Ni 9.07207416962197 1.3106765873132673 12.866627944531096 -2.4239890092724896 0.15221084981002173 -4.533764272535179
P 1.1445934572035612 0.25615595176774364 6.75633913263712 2.639599663495396 1.1871243523122845 -0.6089992080916609
P 6.75968597347914 3.6695046480235503 2.8820542649465226 -0.08667394444947653 0.6183636800256963 0.030366528106999316
P 3.4492230253704634 1.8561771410486672 9.218770987593267 0.5455505527187121 -1.9965022281684455 -0.4255152591999704
P 6.647120590910118 4.704759267465388 7.170843832251066 -0.3436071115702534 0.44614527674549614 3.079955073031993
P 5.600405209710571 9.460583735406955 6.194909145838643 0.48615421303826595 0.02961833708706512 -0.017444677839008667
P 8.741968794958664 2.280038820603775 5.290834088416247 -0.1261277795697247 0.9298137472474309 -0.048824220591554626
P 6.848285401843672 0.8951890038187164 8.97505028871723 1.5511000002365607 2.324116563854868 -0.1291033172582809
P 1.2263481344450995 4.876754621297135 11.092748211671323 0.748038553516731 -1.065265632431559 -0.5396925512760383
