# total energy = -340858.8934001542 ev
CRYSTAL
PRIMVEC
9.36659772368913 0.00000000000000 0.00000000000000

0.00000000000000 9.36659772368913 0.00000000000000

0.00000000000000 0.00000000000000 13.70896255882852

PRIMCOORD
 96 1
Ni 8.91723494469447 9.167294997023461 0.8169733634580405 0.29062207473278984 -2.1200018260867037 0.06594262543939612
Ni 4.185258008842142 4.846933186451036 4.9328136452214615 -1.5437134779645028 -0.7348531651747087 -0.8872529910670849
Ni 5.9700725210098655 2.737341274034017 10.03916879816049 0.24487340774276536 0.5264290013979127 2.0334523230302337
Ni 8.07320148118105 1.479753799566946 10.383085903654909 -1.0582984570851064 -0.5137845731610248 1.4267100292935495
Ni 9.281530019617925 6.430319020290296 3.498938376662218 0.28993893262283615 -1.0984637164500823 -0.4385597510887544
Ni 7.571592087527288 7.214350060489504 4.912826262906414 -1.1206515654010312 -1.2568297872282226 -1.4055760755284117
Ni 0.8049569555795201 2.1913435750280774 11.4831890284262 -0.9246008355879237 2.721252243470881 -1.5050309737926404
Ni 8.916794714613957 0.4329381843924219 7.1605745511651895 1.2540810208384918 1.6066630822138461 -0.6656226130126601
Ni 0.3867196458970038 2.0496737884799257 8.79131040847276 -0.29414602872564827 -1.302958720375801 1.1720031804001299
Ni 4.756657920153443 3.472263243762352 11.995657118512707 0.26503497029230483 0.541781572594583 -0.7356586917951395
Ni 2.3728776003563237 2.8905038756628025 8.261788554394967 0.8110660621918613 0.9611382683923254 0.007480367537445182
Ni 5.868482404983336 4.72479275560225 2.5450553314840443 0.20563580239838133 0.2932196602566369 0.5500782653857366
Ni 7.057066155979317 0.39717276865982937 4.67507110965764 0.03048608440399911 0.07334791676453174 0.4829076810765102
Ni 2.750379577695176 4.1757415458250895 13.447395425083585 -0.34679065150455757 -1.5931596484107724 -0.49880429770210877
Ni 1.3401165646671218 8.330979609815211 2.8129971550195862 0.2205944805907427 0.26894741797283356 0.7190938454579229
Ni 7.51841791375976 8.173442807173666 6.866572043523007 -2.2111654308764175 0.032685406048163064 0.9997765495898138
Ni 2.639469697198207 1.0320398076849566 12.097747410843478 1.8698820823433346 -1.147196148658779 -1.0543011630002552
Ni 3.490612408182043 4.873178392527592 7.594737886505082 1.5799817162679177 -0.15395380064305744 -0.22379421847496297
Ni 3.4907248073515356 0.8001865474942986 9.294100930065943 -1.0489784652357612 0.5148464387666359 -0.3546823955478085
Ni 5.369430092435533 0.7606473296459871 11.894882833124745 -0.9146910326733796 0.36911862557779657 -0.8593043283729587
Ni 0.2170680861036327 0.48532181733451724 4.710303565994889 -0.9383719212300871 0.4851108593754161 0.6005179100935271
Ni 3.729779107667696 4.9304645025790625 1.5898965557321274 0.8518704978027329 0.01665946293355195 -0.1136854400413139
Ni 6.321310559077245 7.157026484048202 8.911825734662632 -2.4302079935990077 0.8785953153920869 -0.8439214181589854
Ni 7.84998609716591 4.238788113313063 1.0519747370542412 -1.4428858677224634 1.5950658642945497 -0.2845391017635035
P 7.19039967079009 8.790795245612586 11.030176352362371 -0.536366829336915 -0.0823506344837743 0.27165556093261606
P 0.9659678292181361 4.185295475231974 10.019167365949254 0.4256435572477186 -0.18279592168573033 0.36278805537407843
P 8.36241391088335 8.657293132047574 3.394078381463196 1.2074342675142302 -0.5549746742460893 -0.6601132531586567
P 7.481476053386477 2.068894046463186 8.335076559543221 0.14814902103582228 -0.41748621824790677 -0.4286489197329456
P 9.00681708278019 6.923564042414307 7.640662313840328 1.29148337274635 1.3368078077147623 0.39881178176685506
P 3.898274829334783 8.728479272726315 1.546974122882084 -0.27088680108739155 -0.3979401777951792 0.7871864273607861
P 1.6264347157549823 1.3105462164930715 6.960410363493521 -0.5209718349380834 -0.7448141330421625 -0.09799168345514091
P 0.7876315602619586 7.290753395952199 12.875991767133302 -0.03806878184726347 0.20875095098859534 0.3868175855194564
Ni 1.805767590680662 4.317486265152903 2.6135036157258904 1.5809314817756968 -1.190450074251408 0.9145056561354508
Ni 7.806590651144251 2.308004546364092 5.775887032495464 2.123437848351446 0.838986185640897 1.4865303438852915
Ni 6.782709149844976 4.813101036433719 11.122341798026934 -1.049486000999799 0.30939935534029295 0.639935235548885
Ni 6.074472616273713 0.18958555250291 9.14947129872115 0.288950857677954 0.27092176809038504 0.3175584941123176
Ni 3.6677722324975295 6.030355942247809 10.406062167218717 -1.6399125882955952 -0.24602706173123434 -0.9545223057377045
Ni 1.8647303216770665 5.626543192650195 11.84927312346408 -1.7602381593612457 -0.41633976334828937 -1.0948271481387597
Ni 1.3030997715141766 5.556752674992657 7.91482824138653 -0.3619822716433314 -0.20820176335334467 0.4997247526338491
Ni 0.6580325078575826 7.5814925810401075 5.3384481980246035 -0.07631008471664923 0.8520196217860875 1.56188346400531
Ni 0.40828248990444177 3.2250974700477983 0.7573793237929854 0.6243080705345893 0.9918043300176145 0.1469981952608307
Ni 2.0222109247338644 9.031376301314356 0.38076342657363393 -0.1642785796078332 0.14878999705393084 0.36811872355837244
Ni 7.341164423469697 0.6975988888385215 13.015727351306431 0.12699784087950386 -3.2803085439855115 -0.2815540509932506
Ni 8.166792522978678 6.850204851125372 12.034645580430503 -1.479769371012374 1.6330641979151939 0.3792462009301017
Ni 5.171766786285079 2.224566896210642 8.1193244803824 -0.7762816075228244 0.07173017865545066 -2.603807593497451
Ni 4.190971633291357 8.348083016773023 13.103313467473908 -0.274340821074263 -1.1760742651457101 -0.2584285207193807
Ni 3.8695755747243012 8.410249124099971 10.702079429974056 -0.5431321730852066 0.30448931963318526 0.12511476492417808
Ni 8.207050158851997 3.782044721481823 9.535625202131705 1.5424726635788661 0.27689598339594895 0.45809550712883684
Ni 5.207884386082081 8.196765634843413 4.825170833917748 -0.8775208513809856 0.7219698814541372 1.1849399430664562
Ni 5.481276632678276 6.876796621307865 11.284504763152851 2.138825129440794 0.5273309443868919 1.5624737892911413
Ni 1.7603770594005075 8.199613080470561 7.678485571034383 -1.150244962787432 0.45430904350321116 -0.23223746414630972
Ni 0.5223320538692419 3.4855357123599537 6.925479511594411 -0.06826253182182436 -0.27525047737272595 -1.5999561025073155
Ni 5.815205198643773 2.7579758882333945 4.9894450301106374 -1.84984239008364 0.7752873619303551 -0.33876495298660364
Ni 7.327536024168701 3.0559273533637543 3.213901576106575 0.7675164597356846 -1.3945190463833015 -0.6390777726445962
Ni 2.6757465291519913 2.2287818650666202 1.3712661211725452 -0.023572388003301338 -0.17433159296846104 1.0867330582767156
Ni 8.167804115504113 5.07673328847896 7.013450594917402 2.6346808860375397 0.19686499818428677 -2.2174972866317164
P 2.414371627094063 3.612556140484217 4.668422698782145 -0.5683467246776213 -0.1121432923651746 -0.12518315626826826
P 5.4846486077630585 6.883737270024042 6.695922941100389 -0.1562654794953696 -0.028803554495253618 0.7056166369070944
P 4.596320504872038 2.913957835696956 2.540283986739077 -0.06234642344770552 -0.5214814275846502 1.2415546062367069
P 8.053962490002874 4.445696251154298 4.738365891978245 1.1024275861938366 -0.24541873872327408 0.2572463274858215
P 1.0398047169774138 1.5288535034403616 13.533803223290882 0.06087626666008225 -0.3727371961669903 0.28597197755528814
P 1.3593836556376704 0.08971982706834897 10.00810447769193 1.5876312623933755 1.6609169584614043 0.7247356171247324
P 0.4978665013096537 5.4726968294069955 1.6953054335421724 -3.04657032692396 0.08959831718512311 -1.5338245009855647
P 5.578052317611532 6.449848375989661 3.8554404425008424 0.06866979456257206 -1.4455675283196845 -1.3174330027325762
Ni 8.826800446240096 8.844428382655542 9.359231565488262 -1.7122875996238964 -0.759467364178963 -1.141169482848725
Ni 2.069915005586078 6.715634945450179 1.052169562281362 0.3713732259399281 0.16319743072851248 -0.7633469017390272
Ni 5.2209133231457825 6.863505419515347 1.5850989845142784 -0.22691296660960275 0.1260627306597442 -0.8275141804455555
Ni 3.0650691524824984 3.1298953734874404 10.281831111817368 0.4074648294561627 0.7620418097743585 1.786436929243801
Ni 0.40248081943912445 3.0578006728553007 3.957023065249405 -1.362582345575705 0.27552918495540935 1.1982896249004849
Ni 6.608677769080372 4.830972504383065 8.367223658677892 -3.2294855477963735 -0.3388989074613067 0.8135206943799409
Ni 3.3669358553501887 6.555896992406068 3.302817749113051 -0.44394698354259676 1.2440807150926703 0.5692404401364841
Ni 6.1590998243042945 5.00199720736374 5.7688545911242 1.5004225284863515 0.5948650826831238 0.45601471334040816
Ni 4.393898967213056 1.0798750209015786 4.502448465150678 -0.38835433387895696 -0.6384501663629263 0.019693621774185436
Ni 5.925983946776334 9.116509305607655 0.855543138469477 0.7479686195107441 -0.5317231599173166 -0.5730716409571164
Ni 8.87718337396522 4.731414940004863 12.078774431033102 1.4014957348114507 -1.3519505768934716 -0.035665057501777286
Ni 3.9664261924372193 0.024144278266788093 6.700392681407217 -2.058986719855912 -0.7077277697128262 0.7582694872161199
Ni 2.173453373883815 1.4642801805667776 4.146316379911634 0.8282333179997672 -0.27547133513428046 -0.25996835440267485
Ni 0.7893653174513843 7.5001062157299 10.649450392178569 1.2368754555934827 -1.404325490950762 0.37754027398258844
Ni 3.1239101177119517 6.779908537205116 5.869642926408348 0.6219688808784514 -0.06585906458665432 1.251678067823954
Ni 7.566580957887403 7.265660281362943 2.03309397432 -0.4490765914596782 -0.37934107463675315 -0.5564720847272223
Ni 3.268090152378775 2.540155664353906 6.253617222590492 1.4633708750496928 -0.2671083078815658 -0.8336912557905448
Ni 5.793165594825737 1.0054199377100907 2.688807312647049 0.5133233172538901 1.1310640189836068 0.0054103723822939076
Ni 8.164469606809162 6.3477337305054995 9.582030135916533 2.114625392266139 -1.1032601093974612 0.5298675947658165
Ni 0.5924569590560218 1.2492512027296925 2.3278504930575283 -0.5298033171867844 0.6824687380357215 0.052751066449786575
Ni 0.26178796900581414 0.06702737140750886 12.168733106336624 -0.5791826389508606 -1.774508553237331 -0.6034523101315027
Ni 1.264303324844263 5.3249387545113205 5.1429448292479 -0.47938681240744535 -0.7546583728260938 0.597124568141262
Ni 7.724895188117939 2.6731800814485736 12.818277603578013 0.41320456015341744 3.5276620378376533 -0.4015443502066698
Ni 5.335907040134321 3.2601472777346205 0.542273539856747 2.3858862888634977 1.3597744438132646 0.7818806988771566
P 7.796212461161088 1.4316001220367611 1.4961275485828023 -1.1771620988932503 1.5202413629844913 0.056783070427315105
P 4.805336127141261 4.588049799316863 9.449258616953223 -0.3853541136000525 -1.35213929586551 0.40542748731115985
P 3.4977310222499165 6.154172994041529 13.00488364142962 1.7902187648837364 0.7677679136248584 0.0183929006848909
P 2.580947196282316 8.501976213003513 4.848475865052324 0.21389161464927034 1.4374775522226986 -1.4132904134535338
P 6.296873106310031 5.578164716781025 13.453715068388314 0.7166219868786625 -0.5401928879512246 -0.3197773561405073
P 5.800818104948702 0.9161084942908987 6.427391958584755 0.9586787511082393 0.8152250786655573 -0.6365838025781488
P 3.9306176903563212 2.0666366964758733 13.407254871678488 0.04398437600075006 -0.9016959059652923 -1.9945332773675328
P 3.6767828992518647 7.995243290540372 8.5549817880168 1.227910275980395 -0.42626242177864004 0.7241537764793334
