# total energy = -381169.6275095777 ev
CRYSTAL
PRIMVEC
9.19709666120990 0.00000000000000 0.00000000000000

0.00000000000000 9.19709666120990 0.00000000000000

0.00000000000000 0.00000000000000 13.46088062045420

PRIMCOORD
 96 1
Ni 1.2134005597287012 8.448765735531033 0.17152769298850343 0.2974776642020425 -0.7465781669211207 -1.722424688057898
Ni 4.20578633822574 2.9355477208532084 2.115148300473776 -0.4223479172155823 0.9272197612680096 1.009162618790404
Ni 3.4584854424665594 1.9469425988155238 7.563722681533285 -0.48936166423197014 1.330157135167464 0.9568897775286165
Ni 1.9968276513495258 0.5450861699010322 6.125548757145663 -1.0983734707291215 0.9135309509270073 2.04178732525849
Ni 6.073643102465326 0.5198033510559047 6.089864021925912 1.8500380510342138 -0.8892278554052685 0.14431499200171274
Ni 3.693287321373836 7.417486084776946 0.4659966564864127 -0.5993244040060581 1.3228814274416574 -0.3769689748601508
Ni 5.407727315458613 7.4801826930225745 9.254113187441227 1.1129441694544446 -1.9149182966473668 0.7174995043876095
Ni 9.009577101380192 1.9150102790518706 2.7577034618469405 -1.3245518731655446 -1.6500342501106293 0.01983760355121745
Ni 2.860067148186071 1.47959212969397 4.015340217312745 -0.8029660587925461 1.0570892672683536 0.029386937802549393
Ni 6.034996902106204 5.243310817643283 10.872541929881791 1.6509202522600084 0.8746239894491646 -0.7359186303247455
Ni 3.3908040078062127 8.476605347260461 4.928889672551114 1.180162833392787 1.42651539678424 -0.851491002976127
Ni 1.6335699227478528 3.1585405275898255 1.8544648717258037 0.2656862307230586 0.40627158047901 -0.1565146193916982
Ni 1.7610968656749306 0.587173004137914 8.647875521541193 0.19936513889832116 -1.9118998215360172 -0.3613441238387003
Ni 7.919932674929058 3.036761770104073 8.76820205745705 0.6493321033827527 0.8037101360474223 2.4011285597345484
Ni -0.07153593788988206 9.153428890960635 11.433120609184286 1.1424138967787874 0.2540144508120851 1.597677333775468
Ni 5.024125608943 5.58699712445433 12.93038771932808 1.1332083190201194 0.2880255176502072 1.5281130524230846
Ni 0.41673332768974464 5.146097505459581 8.751174552615337 0.37908293587936004 -0.9079773680986297 -0.29490784659233726
Ni 5.060619688672889 1.2001383462784743 3.462394208566661 -0.16795937089353008 -1.6608321120570815 -0.6842230017226668
Ni 7.015389016785322 3.9333407425003077 13.143930509199157 1.1326174795136557 0.921675948631645 -1.8917721975482062
Ni 7.305299899155679 1.5474850975785575 12.58313661783374 0.415827085377929 0.5897290470081391 0.12356644660045171
Ni 6.767619231522415 2.7359799194270824 1.665407512415433 1.1018025510153282 -1.081663099952976 1.3024396146475374
Ni 2.734526778147515 4.504066578598666 8.41372387737104 0.48596395140433085 -0.738835032640592 0.745761070336464
Ni 2.655900798406884 7.565485764971849 9.290242142431882 -0.2941110617226548 -0.4043617650508068 -1.4826330657134144
Ni 7.826490172394866 8.415803340936295 13.262426822870493 0.27618995846785976 -1.5068207187032114 -1.4881719932537725
P 6.613393116857466 3.0972234838501143 7.303537735426785 -1.1713953716128018 1.1150982396829698 -2.79714529525477
Ni 4.3435864381735545 3.86039856852406 11.512028020084125 -1.0434860746626222 -1.360848907824366 0.36651795473015586
P 5.214956168498311 4.711350744161226 3.7428247236523466 -0.07358368692442166 0.06665327835317553 0.13223003581272066
Ni 6.249399620519304 2.6637551189939117 10.68001082714552 0.3498458933911136 0.2951839830718594 0.25890546035579926
P 6.125551516274675 7.253906522761872 12.103054607741903 0.16946063802940492 0.2823220395075267 0.1540417323711734
P 9.430886904390903 5.076475483394243 4.259856989470697 -2.217254060272659 -1.1006031313905884 1.3118010012577794
P 4.382977603365872 0.12794357140786522 1.30658186471644 -0.44316099730619163 0.32323189034801103 1.6457862734675526
Ni 4.217209132334742 0.14693005784798202 9.818366106877814 -1.212680346404518 1.6881205154593892 0.7579725248009914
Ni 1.5892031282375236 4.230738061589446 10.750142368368376 0.990847879641616 -0.11225873489711634 -1.3379866585142117
Ni 7.144424283572204 6.063406733831413 3.533373722105823 0.12665048484241415 -1.441009733745673 1.0673461691096715
Ni 6.051422916823337 7.056380476804505 1.1599994571239494 -1.6165296905952806 1.9187314997458698 -1.2059525407623812
Ni 2.1912910641037544 0.7870231564329179 1.8720855893050614 -0.5257075498508559 -1.4997363010526044 2.2731290170634075
Ni 2.2428959737218013 8.752702190378223 11.438598399982451 -2.231427266449247 2.1771096268432895 0.3979106101088244
Ni 1.003807922892903 2.7144035305545215 8.46426928144854 0.7336676295070397 0.5128607757951749 -0.29950497904471646
Ni 5.666607193542515 1.5295415619049149 8.519364489266561 0.6156169705184946 1.1242431394070314 -0.24959292470562175
Ni 3.3195173112370666 3.7376265245940465 4.940008962468815 0.18552411925017082 0.23990089422883842 -0.4745446538237956
Ni 8.507424818322674 4.680650835356194 10.863024774210297 -0.7015064713934628 -0.618938835802876 0.5084017115825566
Ni 8.626628388730712 4.457648831522871 1.3923935361135633 1.4033798392080412 -2.037637821866491 0.615747839669404
Ni 3.753188012220804 5.653482936542881 10.22904406609625 -0.41730546969566845 -0.027880528460351987 -0.8253040601681141
Ni 5.139604355185059 4.271591565158037 8.695029036353478 0.15911760423218402 -1.072099881744573 -0.07882462360838684
Ni 4.1146247156746645 1.4938200382983398 11.78727597117591 -0.24111676891381054 -0.2691613337558526 -1.9654448446420083
Ni 9.144811211347 1.75649831732187 0.6010026784549085 0.7778715777177635 -0.14145901061015637 -1.787527334094502
Ni 5.270313493572456 2.579831611550555 13.528319487192814 -1.2801635768581565 -0.2437354374835802 -1.3623869417354473
Ni 7.146171731946367 0.47836399242713407 1.429491865097045 -0.649458601658288 0.20952793836393593 1.4481013504851319
Ni 9.293942134436755 7.396194805902275 8.7196892117516 0.026190542352438766 1.7596079819764148 0.9706778324516443
Ni 6.864243929516926 8.192323088074252 3.287752378633465 1.1647547263678326 2.9776668190840265 -1.706583093039951
Ni 8.859158584751578 9.079557810217068 6.906804414234172 -0.0712828067053869 0.045376885472902494 1.2937094338633914
Ni 6.937783914779072 5.072281607296252 5.896391136486932 1.669290784347396 -0.44948719663453557 -0.10696071972297062
Ni 8.005750784293877 7.2087395808381105 10.992330435640339 -0.8538926704390842 -1.1617905015331862 -0.4902893182525621
Ni 7.185544502945272 5.554292248567362 8.709889705211229 0.18665437619987207 0.014629062767084483 0.12399247839427678
Ni 1.9413047785346713 5.1867946583841675 6.405925009360782 -1.220536095003511 -0.5281992059244581 0.08070538557086746
Ni 9.186262526201487 6.005961667804979 13.055909695173224 0.5105902345934432 -0.1927419771548487 -2.2743582614848186
P 4.024474773761264 2.4514493386298075 9.816091664862393 -0.3748164472935222 0.39516544326351943 -0.3061978176838598
Ni 2.3499225880909345 7.358247584892819 3.0356847900797868 2.1036033301240225 1.6993912032772023 -0.6337879850005665
P 1.7720690020453334 2.7937376867415242 6.26461345789057 -0.20907131044249153 0.4974616676312852 1.5038073857981844
Ni 8.741959981425474 0.8716401249679162 9.519346419929718 -0.49123908376034103 0.6727340272464608 -1.609166051141358
P 8.518148633082012 6.300369930464628 7.065454332414764 0.8808925960666959 -0.4930985055665831 -0.768454912389554
P 4.180071255835424 1.142178242836498 5.7472307826877165 -0.5229634114468155 0.8882444084460768 -1.1249126546702304
P 2.8773117045100483 7.508601721844489 6.977770132128274 -0.27510135338937136 -0.8780947216065845 0.32093846632814405
Ni 6.610440848814801 0.08356666009115933 10.8553792277185 -0.16694892735114472 -0.17546262124911075 0.08308905531169561
Ni 1.1347285945045398 7.399128679751527 5.739571440550859 -0.9464986641022797 -0.21959869233637663 0.057614050969042714
Ni 2.841213099938522 5.517697000773706 12.402895595425857 -1.7669235418012215 0.38735108942542323 0.7723146524552763
Ni 1.9626052545060484 5.0330743840380565 3.2140137360824665 1.1405354488091517 -0.6848788901391107 0.8047203224794917
Ni 1.76785673175393 6.065089802528632 1.2023732407780616 -1.8331659578692237 -0.1866294364992076 -1.574152254070334
Ni 5.6463735807890485 2.9632677703254577 5.181994693613243 -0.2330242217136632 -0.5286797451053024 0.7537991101495921
Ni 6.324162819643363 4.916961038123275 1.7243250336245166 -1.3438737134226082 -0.44437944309432503 0.13034336031296906
Ni 6.551524247315388 7.2302883784205525 6.9762765236232 1.180353095026722 1.3201169773226427 4.139254203467471
Ni 5.614588414572693 7.145343993242816 5.1765435743955255 -1.466886858622751 0.2573885094906406 -3.0272042636925223
Ni 1.1853586118717374 6.674277897051989 11.054034677151378 0.01313705160259028 -0.2775752688511607 -0.6378683257175272
Ni 0.841638275802878 0.09545850613217419 4.2008714097459885 -0.8663707483014369 -0.24111059826622344 -0.841301464037635
Ni 8.845004252920857 3.6113503868190016 6.55752167407745 0.22865874565611585 0.6318051502425829 0.07839833470424563
Ni 1.7493521731812136 1.6666794708898893 10.732468307628222 0.38082588671239576 1.156227662733428 -0.07977464622648196
Ni 8.117578283143605 6.565476243018575 1.3466269434845626 0.9517689113622836 1.9240562543928927 1.7011004726588252
Ni 3.8660087975147936 5.545499824116311 1.8195471743713434 1.7858666585626277 -0.8739506175312238 0.8570623264163174
Ni 0.2486582248047191 6.9777912854506985 3.3767020994267165 -2.0227992141917612 0.24584914139247332 0.1405562962902289
Ni 4.481377341024664 8.795735405866164 7.633477141791192 -0.7992539000482816 -0.11864818336322794 -1.7445359181346407
Ni 4.82468656687076 7.757898225160614 3.0555523583843494 -3.20232569955213 -0.17716520576251424 -1.1216779497830167
Ni 7.8988621263753345 7.921257056854739 5.107582823583357 1.4099045277004363 -0.16225486430958508 1.7839583857963213
Ni 5.432734221402558 0.12350965108584415 12.930818143453926 0.2007075118588285 -1.465205100044954 0.8502368188540518
Ni 7.437563346886408 3.6588258000159994 3.7696526547441027 1.3385420167970496 0.5310197060923887 0.33138280158991956
Ni 0.78762740568651 2.9504102291303007 4.377693871308205 1.1270065610847817 1.1325105216221465 0.6763847366251706
Ni 4.848267922825254 5.380053251469894 6.422738221849243 -2.0498883570990696 -0.8268004422079825 1.4437772691884814
Ni 3.304351298768672 6.376227584096717 4.984510034591054 0.5947236720092532 -2.514820941754398 -0.7682420250477995
Ni 3.8997345511361408 7.646843282434198 11.379936558061798 3.876930975679375 -2.466588589110571 1.1857632102987
P 3.1793259661456594 3.8828670757771144 0.3852231546649024 0.20783923780760333 0.6708509512911349 -0.3208338224294797
Ni 1.0193326221328358 3.7986584583358676 12.938746960524274 -0.04008092718128581 -0.14044111086860328 0.8574217666382652
P 7.070580794118756 1.439170889670567 3.6930325617950763 0.6306628091080235 -0.28231458330835896 -0.9330847046892189
Ni 8.131769403361151 1.5407896111765012 5.444684009152821 0.8511883841340436 0.5466152465378006 -0.012627201845707283
P 6.93954056024994 9.058818357144764 8.789833628909847 0.7906144792057287 -1.5811569675229413 -1.7549447721727907
P 0.45891029347434625 8.677359574161677 2.027612173444255 -1.3220879850060845 0.5234028129770792 1.06005683453711
P 9.131282282092293 2.374212120491801 11.647942715207185 -0.5428550081644199 0.4332326824488862 -0.037526021969916015
Ni 2.960812145504924 1.73783740810515 0.16392261372221173 -0.3905991640490757 0.6304589206273336 -1.2514525820767095
