# total energy = -340895.3390635989 ev
CRYSTAL
PRIMVEC
9.04778981542378 0.00000000000000 0.00000000000000
0.00000000000000 9.04778981542378 0.00000000000000
0.00000000000000 0.00000000000000 13.24235495948812
PRIMCOORD
 96 1
Ni 6.338121579754245 1.9566840885279317 11.546975836935788 1.0463659673135786 0.25950684138522406 0.13493123679396762
Ni 4.668324812930381 0.5427171998455863 6.173373992836725 -0.4991758221089146 -0.9807467866518723 -1.094178201700851
Ni 2.674409069021718 1.540078603228832 4.7499005913212 0.1432775518761339 -0.8026930076368176 0.29621679521174793
Ni 3.5361386733404685 4.567052900736814 5.038610137908301 0.49576962464084295 -1.321077284353383 -0.31462512251560654
Ni 5.035086023747719 4.203295556161615 2.7836882752643617 0.7793697595298449 1.0533873929367341 -0.5726443236117107
Ni 7.112612393992554 5.942416489091715 2.735764846575389 1.0443625637303047 -0.10304312983611931 -0.7212466301348676
Ni 5.3652670200561134 4.625347810972064 11.702772445319125 -0.9951657902906795 -0.6049841733949969 -0.9690207564641956
Ni 5.584793546059199 7.852223978220481 12.467796556999751 -0.5412344418418614 0.3525535221302638 0.2323253958744257
Ni 1.9784711665733272 6.346436498659443 0.42846985217656114 0.18421157108633435 0.1786219928136988 -0.9385153887864869
Ni 2.8891493141751297 1.7792569288642257 0.1993173825138015 -0.6776427774019878 -1.275204175970352 1.8059824554758963
Ni 0.1356743236769593 9.039203533359778 4.890719488327316 2.00051057799689 -0.049806639109481965 0.24847398060983014
Ni 8.622426140052845 2.2544649492546984 1.3897323834727973 0.35355779502506207 0.3842819635817962 0.13331427001583493
Ni 6.728606095652573 0.6247915114591207 4.811357704121593 -0.38906292991020736 -0.6091886983946476 -0.02837855114269306
Ni 0.9093933614379959 7.437093282672793 2.3847232659059214 0.1802289322895025 -0.6272440132344617 0.7047699726360829
Ni 7.572511553895979 3.6576233481392744 3.790346282755433 1.0360877253160221 -0.12239916576522793 0.231900135411549
Ni 7.827623037520551 3.933445222812812 12.704132971831966 -0.4976336744327753 -0.4907503170493806 -0.4306510377646389
Ni 7.97567202342454 8.686276393278074 7.0750595420708695 -0.8538957557628778 0.9443769897735865 0.05693013752814067
Ni 6.802237009744529 0.7719737190920346 0.5079492576508019 0.7178679434706218 -0.2403747485414634 -1.124518247445289
Ni 1.7460967789321764 6.597585050313964 9.120936743294612 0.011348078022967554 -0.37360828591803397 -0.14607131257118713
Ni 0.1622666829307889 4.796079606120158 1.453732830010135 -0.3872690712345782 0.0399855392540021 0.514864436488765
Ni 6.361899171574551 2.0770015984314485 7.14144317646417 1.007239690736078 0.25590729695942377 -0.19282039580126792
Ni 3.44907179126786 4.147063542020365 0.3889753445453504 -0.215094633818436 1.1535789122566713 -0.03472531929632729
Ni 5.8620902104841495 5.450569583100959 4.859070319306223 0.3900024110053412 0.8828941998777569 0.1162053782496902
Ni 5.216756596867942 2.8894026522919365 9.590458227741758 0.5730245897692647 0.22942956238386938 -0.8560950774070417
P 0.34283794957986663 5.459535942877948 12.446105385527147 0.7956731246755586 0.006390476907376091 0.3488920141182766
P 4.003647024537988 6.264137801856737 12.407914664418504 -0.3899129366153285 -0.9912931947091509 0.925481181310348
P 2.447843362487355 8.44006793490129 1.2190793040967107 0.45301449306150365 0.5046399305472793 1.0334389748392654
P 6.182454354766276 7.755050714845254 6.009698569020692 0.7427834757653788 0.0017308666481776643 -1.0336899145078067
P 4.608193201348281 0.9659601438050275 12.58313778246599 2.0453614157629936 1.016752772432836 0.567692378923074
P 4.016123926790729 6.1626939816553366 8.21523940402503 -0.21260863417178869 0.7865336242681358 -0.8558847611684485
P 4.639652366781769 1.0449744928791298 3.7627360471394327 0.369249494728706 -0.7764317599474434 0.24108642989650736
P 0.3574799879523182 5.7864054480880815 3.651487137038615 -0.6119924863920299 -1.013775434972067 -0.11482675273460868
Ni 1.3396429138851256 0.8536526422875524 2.5789621239567326 0.1708516048396606 0.9385778665933062 0.013491092507899347
Ni 2.1485515208496326 6.538720129315898 4.742272399668346 -1.763939776582549 -0.26214196501522596 -0.8157601252334209
Ni 5.799678555850787 5.55266484417415 9.304463018120444 0.6510066628716982 0.96109944473459 0.7454242558223356
Ni 8.677355272450516 2.4774386832043347 10.151960448948577 0.04295182097117764 0.1472177674708045 0.4928938457549447
Ni 2.3745291210414083 5.287148402180723 7.013270375381661 -0.35450498942967973 0.1357568180190565 0.4196765410310062
Ni 0.521095696355104 0.23866803028582545 9.132735966084894 -0.9741297955559867 -0.7099538308298677 0.37448426076508406
Ni 1.538413809889815 1.177397945650063 11.35093646869767 -0.3009689651847527 -0.9166263020228794 -0.4101647448858291
Ni 4.189633393433814 6.862866249770357 1.3901558200394604 -0.20570393663215542 0.29345543041652683 0.27262640948631756
Ni 5.671145652730816 8.05433350869309 8.119721886198933 -0.2857932858855788 -0.21141924184937783 0.7592981855909504
Ni 5.481295877553685 2.7721885343193047 4.904093931336745 -0.9388326629165895 0.405931680641088 0.34700559572884115
Ni 0.8514893157258191 7.376228800109929 6.874782189050168 0.2367312382516052 -0.24962069261976363 -0.20006267918597803
Ni 5.18785795597218 4.449666874756349 7.218672396593773 -0.36818762912309494 -0.1476437992646296 -0.3364100796011819
Ni 8.085114089885131 7.185347576885799 9.041469099947221 -0.017919560592898173 0.3286677166516017 0.8473363573778052
Ni 4.419736785813588 0.5817656514354193 10.494301674863703 0.5103945736428694 -1.1524401706665377 -0.9914739432613892
Ni 7.99646384458248 7.125360729941874 4.8062864178905125 -0.6968237212058128 -0.5405543850557013 0.04174083138221198
Ni 7.126102648712521 6.004475279919526 7.086646141798832 0.16063404087671046 0.6224594473616247 -0.69655426959451
Ni 2.3973114559742594 5.145242865609301 2.55143060411274 -0.13165950802123133 0.14501253228936964 0.3475257298983692
Ni 2.3655537134745344 5.205618767518323 11.382506017167767 -0.40408202902685897 -0.24330683458659386 0.25092912701854203
Ni 1.2375838439714792 3.2113230164344486 3.815705428247806 -1.2654239566551369 0.47192418548181303 -0.3262035713818253
Ni 3.511592019379855 2.5536210740441314 2.618517251780179 -0.2452747569462421 -0.376455525558842 -0.22548471880350843
Ni 0.9164687331288177 3.3706726919060035 7.988198688521654 0.7999283004074869 -0.2747779086116816 0.06144987977536514
Ni 3.5730446082853056 2.6717037798458154 6.856599750495339 0.6572680704003776 -0.015259240151915657 0.7225902886469555
Ni 4.10712659746373 7.088219552460001 5.755246669278807 0.9566480938314558 0.07347955724638958 0.7976325623947746
Ni 0.7946013368178358 7.3021274009439034 11.317803462135279 -0.18975692638459576 0.6246371717392339 0.284821923111245
P 0.10929006359050682 5.48798219427941 8.018895125267756 1.0637471389045035 1.4489356734609693 -0.34565370968663695
P 8.388196955485071 1.7240292194003164 7.974903866063222 0.10420038336901409 -0.5288941751089536 0.42996275344836277
P 1.7492454098124912 3.216389778770587 10.443490191643132 0.3960095364313696 0.7060238996478421 -1.7969038902133956
P 4.142982988781796 6.022941819076773 3.5533213311128984 -0.02459465862022861 1.5011925738831564 0.05851753661991858
P 7.0115123898068195 4.032428044165232 10.496738244679994 -0.05014756738866847 -0.21225665014900866 -0.18526958003720348
P 6.295714588558743 7.764460416326653 10.40957726559257 0.09702263467365226 -0.11943391248931688 -1.6002075563964893
P 2.3716700194374445 8.549428571252905 5.584022674360916 -0.09178169798968709 0.16937656295603087 0.7722673441571087
P 7.065554838795667 3.9763046035026117 1.6580219730662724 -0.5695194048294836 0.046672721466190586 -0.3951687856976291
Ni 5.53991650822483 3.0332082247394094 0.3439978762432469 -0.2989707038078012 -0.7756753413973931 0.35975826740881917
Ni 1.3252026412271312 0.9200064189742287 6.966180248141186 0.40036267119374275 0.46570417271403014 -0.42167737351111895
Ni 6.941066297754722 0.7298689240787238 9.509374649120733 -0.5270021002925633 0.01258992084986864 -1.3653686500715905
Ni 2.709442111460161 1.6326103503925606 9.131782329030914 -0.15112507294501068 0.14302532665601173 -0.5134397882270963
Ni 6.150099458134077 2.0458772012237407 2.5592044651827583 1.187467080363684 -0.4723527883787994 0.10295879765242912
Ni 3.883899525397287 7.106143224224091 10.304181370768983 1.1586912937825722 -0.15387306800379308 0.04385967749742769
Ni 8.408491148199284 6.998990248604648 0.4727768792481149 0.11532837496137557 0.0677143726278382 0.3250964543605756
Ni 7.61604047103734 4.0152643867515625 8.344868899279179 -0.7677524870058906 -1.0838153704092883 0.0037275853632322904
Ni 3.033298702638269 8.46247026265893 12.379615891992183 0.04642949510713294 -0.7029460320534668 -0.3483916774430903
Ni 9.078009504180665 5.070752411478179 10.220409693772842 0.10912301748161206 -1.0924673896573314 -0.06500442989584289
Ni 8.510812604019623 2.26317797091488 5.816465825205199 0.6750886435215664 0.9563914977359593 -0.3241397468742611
Ni 3.634071951066116 2.738385991305352 11.403905849806042 0.4591596867272931 0.7516365552806346 0.015464928404818527
Ni 1.1636543528132874 3.1199131952165793 12.532896310008235 -0.8804755631339353 1.9295828406380766 1.1507041618120375
Ni 3.2110877738974137 8.2705575913878 7.949345669193358 -0.516254374857756 0.35321789518714003 0.021077132385273378
Ni 5.671625185594772 7.76545567321411 3.3163361897458614 -0.11489745807154406 0.3614207427129066 0.7232191804802061
Ni 3.2125716114387117 8.38479498648795 3.3826537752729937 -0.0026456651529631853 -0.1629423772949129 0.26761867185908106
Ni 3.398856557400774 4.421844920857017 9.291379009166354 -0.5285694447796833 -0.6865436794360434 0.033841374029477206
Ni 7.474650658489419 6.2666259440753755 11.618485044299485 -1.1134177666567535 -0.44817207736753784 -0.7206822729909652
Ni 0.6113582578154336 9.008685338074429 0.19016282870718557 -0.1599922935276535 0.39674949992118763 0.037465601045625796
Ni 4.759969876685286 0.3159379654699143 1.5416483947740462 -1.29778591792561 -0.3458686539109204 -0.14429956538274505
Ni 5.916648383496497 5.4943699339389 0.4801164464036069 0.694040759144037 0.8690999743071418 0.6511069358949884
Ni 7.890776610924562 8.82371232164583 11.525497288525502 0.3564757400028054 -0.42244099115002093 0.31212601024283665
Ni 0.056165965275083544 4.98348647802808 5.806534066247379 0.5180274075977788 -0.543996835078347 -0.4695024634141979
Ni 8.10371634589067 8.803517654620364 2.436262191433324 -1.1837664915836452 -0.28497053287396734 -0.06955476827068667
P 8.388025047477239 1.4805984325185209 3.641330088112635 0.20224785976275492 1.6190259746545732 -0.6453939446706111
P 1.736325165855338 3.2273828434820304 1.5873741152997187 -0.022900301636941206 -0.6218305555283742 -0.5422651970992209
P 4.739684731760961 1.2517164917733512 8.18618514114323 -0.8684147753146593 -0.7110354939298206 1.676274671864397
P 8.576228124895124 1.6314974722365876 12.34163688916687 -0.8239341764037811 0.0574502716976688 0.755628450048847
P 6.539335379028143 7.687545154506094 1.2135520092553769 -0.7181659343270148 -0.14084117452049938 1.2023123729066327
P 1.8703772208057443 3.376997097036291 5.908102745949207 -1.3246164078548928 -0.1980119673045364 -0.23387422841878433
P 7.0532679401305325 4.000064099743147 5.968249738774113 -0.6486641307814507 -0.014938623587703304 0.5851046608622504
P 2.2304792582670143 8.546424705010766 10.146914496529176 0.9599432196429597 0.1515264221484874 -0.2827210747181582
