# total energy = -381177.6599779799 ev
CRYSTAL
PRIMVEC
9.18199226043560 0.00000000000000 0.00000000000000
0.00000000000000 9.18199226043560 0.00000000000000
0.00000000000000 0.00000000000000 13.43877380315779
PRIMCOORD
 96 1
Ni 6.390427979337604 7.584022717529021 7.914295311398306 -0.4909248949540319 -0.32967816019398705 -0.7316984215958109
Ni 6.529939171879359 6.122589260998588 1.901237119552761 0.6247538998227563 1.2336235243150884 -0.20651331990732824
Ni 6.556319036047614 6.67649295259273 12.778137170725254 -0.37391193320138183 0.4936872881905175 0.665854269407492
Ni 1.0565718655903498 5.768853003747626 9.159317470828837 -0.6177838962628264 -0.462004612375256 -0.058101275018106385
Ni 3.8807782703017892 6.250439323190993 2.414517840366118 -0.040662510716368686 0.8897593024287064 0.1958159880944821
Ni 8.701563012662431 7.236796492890413 8.061422966636743 0.6667986355986323 1.015617116166496 -0.6770079720314663
Ni 6.703726742054284 1.9529638737441508 0.9702932739937589 -0.5568189265436797 -1.818035272875372 -1.0104782522780338
Ni 5.7597628312705735 1.2890874591624746 5.396716033724934 -0.012898196118906819 -0.4932743690228149 1.2284113839865296
Ni 1.8910405169913802 8.57150009030137 8.256675280447633 0.38428324913337686 -1.8835459529836722 0.21011183589186394
Ni 5.560568688121907 3.945713320562109 5.04729439470323 -0.17270022801262516 -0.7949488449150245 -0.110174598674578
Ni 1.7569558819586533 2.627537309473066 1.0597616897504791 0.6422942226993648 -0.8398565040609923 -1.1362077679680755
Ni 1.815114621826988 -0.06146517533195759 0.5298707446835984 -0.7205004959974624 1.5934470977442041 0.8890162536150947
Ni 6.402318659496981 1.3817980364360107 3.3310147390812874 -0.018777537717819273 0.23325947765292085 -1.6903920851023855
Ni 4.473677883623247 8.199794673921526 9.205855481114387 -0.2369999185319596 -0.5840034573782716 0.3814380663750979
Ni 7.595775667802381 2.8787841675433596 6.2473367279586745 -3.6938144374294315 -0.06851449993163039 -0.7971111426736659
Ni 1.1652315636645323 4.795451625326108 1.0480913774087277 -1.6862574941087218 1.002984772114466 0.38452776104401515
Ni 7.058821934180603 3.9009786535841284 -0.10280250512154442 1.287148749926738 1.2225911777603267 0.3584950844256794
Ni 6.998119782417174 5.238188934920577 6.714898472208657 -0.4504773284619467 0.29536447451378167 -0.4422811658043996
Ni 1.4557038932721689 3.6384195808757247 4.187858069565229 0.2788327954073456 -0.4115513408207106 -0.8340488962402797
Ni 2.4554116799227335 3.8327289040670256 7.991555350058573 -0.6203007491474091 -0.5966730824261401 1.0296766795833556
Ni 7.581589489542739 2.5797083110559273 8.510654699456483 -0.01412101278241439 0.4187231759788015 1.3766758475542937
Ni 8.301797427504939 1.1231229465132562 4.786824225266068 0.483429100797619 -0.08076349250231252 -0.4038334033511626
Ni 4.1881546479197835 9.028037934474636 6.488535731744485 0.02264987618903196 -0.9043323151468747 -0.39695081729871634
Ni 7.412622465378373 0.21350244190724332 12.296814374463796 -0.1902102118719305 0.47975216616666405 0.10094202433271647
P 3.005963944290487 6.685968768750627 9.794554332912357 -0.3590751252988655 1.5176715453747862 0.8371020812443066
Ni 0.5665353585402841 0.8622937611732127 11.128299330316644 -0.6046219049595717 0.018561822162587387 0.5398229062063156
P 4.483438341545576 0.9665057021283201 8.265383482040802 -0.1303436174232852 0.9703641578659676 0.42397825373015363
Ni 2.9162099685700937 7.457825413968807 4.934664403114828 -0.567096654320604 -0.31782845994425263 0.012409429407946369
P 8.66079496640171 5.965751648796028 13.202170761798756 0.19628547153173292 -0.3113099420994445 0.8578012614648711
P 5.821456638213318 7.8987079610982605 5.285107079691529 1.642781425202958 1.8583116038969159 -1.102041663609328
P 1.901002978746534 1.581552281121142 5.164830324831521 -1.2110600371922755 -1.0165396279807652 -1.1921863402162243
Ni 7.9842290383217644 7.315917721410375 5.629032378061955 0.3492432268101082 0.19335415681755086 0.21161027481426134
Ni 0.8150092549054571 1.9558194733808816 8.96036940507652 -0.8753426127827441 0.16276908494184225 -0.227013496743209
Ni 3.450243828608334 5.115177782723531 4.229894148976537 0.2581045617210587 -0.9729149493122792 1.38059575143399
Ni 0.19125722891718736 7.982401821833952 12.66560083545934 -1.1016511130391287 -0.03381412033596757 0.27181162689450605
Ni 7.7344237530584365 2.334227744213501 11.152892378763651 -0.9509582425355301 0.24157699637968072 -0.5197148226025308
Ni 7.226356567530403 8.37505136288062 1.0717138892589433 -0.3660824098546341 -0.31736771825775023 -1.576751125145762
Ni 0.45309643342134803 2.9743595264460274 12.402469724624352 0.006809052502033435 0.04429008016662695 1.2468852744210008
Ni 2.3681827521126326 8.468349587667825 11.895733927994472 0.8804714493688772 -0.2377504235447389 -1.3223939462822776
Ni 7.207900762804266 7.741824438933694 10.235749985982688 0.16612566011890098 0.9251510516644389 0.03966723668263491
Ni 4.828993443567192 5.5057521934875595 8.598181123820378 0.3891071528845815 -0.8719752389724079 -1.358305572577222
Ni 2.522072944754453 1.4190952895691296 7.324938110745179 0.6431190325935053 0.7153600894471034 0.46619602474878424
Ni 5.07751324989437 8.662548726950313 11.690644945724323 0.007450799851090394 -0.5074717435691195 -0.40409822697677494
Ni 9.309622095438042 4.018168422598899 10.336540716569159 0.5778968302599016 -0.7921275734161455 -0.7530475766955483
Ni 3.699590014251608 6.484626039380112 11.983919619412763 0.43808358278328424 -0.18405241980065076 -0.5753388397247382
Ni 5.388755246313211 8.506739497896671 2.437349782670602 -1.2488241433149267 -0.37749116591220794 1.0597267048912007
Ni 3.676148387651694 2.600211700087501 5.573100271350879 -0.1636825978950471 -0.7200834630647018 -0.5081566854512861
Ni 0.2057519221215058 7.285277412768027 1.761218162831227 -0.24301218616431053 -0.36094714551059776 -0.42758345458290875
Ni 1.6489113773753419 5.178193796572028 5.954102455036798 -0.10726848077137656 0.5339299377606482 0.3235103408203783
Ni 5.310129845382906 4.428842214728855 12.044730118686525 -0.6521695728315478 -0.7201744801166113 -1.7060719577314876
Ni 4.41896239090531 7.690074729761301 0.4212890935448248 0.41325983887138507 0.4803854288752888 0.5587518819003344
Ni 0.8411099865047195 8.61166212506362 3.9704587900829744 -0.3698860998714404 0.3559954579322772 1.2685373054731377
Ni 7.506838889405683 8.156253665955685 3.375645649545136 -0.7685574994056893 -1.5740573803636826 1.9500241392115643
Ni 8.690296707986326 4.652405365709943 5.109085530765426 -0.14471222744013143 1.141673161958021 -0.4196150916654515
Ni 6.136463251516595 0.8989703116200197 9.725049405034028 0.43188748127490134 -0.9543009337555177 -0.2584598881779484
Ni 4.316693359542268 2.974478892347241 0.12568219378651385 0.29458568736622814 -0.11279686678877347 1.6939268377285213
P 2.2370547186330483 2.889499552675401 10.56842642546257 -1.0830545809838639 -0.7126959123513791 0.002489342080757003
Ni 0.479987734566342 2.701792082020464 6.506906143941292 3.2337085847387854 -0.5478501473861662 -0.2095618769256649
P 5.324462935520966 0.45449117806706957 13.671399037669532 1.6847595694069564 -0.26433640156338345 -1.7577565305899727
Ni 8.504682731598832 2.833370033127701 2.0396969739645945 1.1309688881666393 -0.3834484119369074 -0.0375735873783998
P 7.374048915301506 3.299310237519656 4.03406428784362 0.9276434790689895 -0.5225790315242033 -0.24780395112599904
P -0.14046061055602516 1.150062912217976 13.736039345973776 -0.09049460374714738 0.20121144807844057 -1.0937855942481227
P 1.200306774636594 7.4016408024667015 6.460529736722001 -0.29233622921041913 -0.44546547706965217 -0.6162360921597323
Ni 4.869173842314244 5.24322984874876 0.6648120596073444 -0.33097168219443 -0.3615492978709709 -0.8559788635441516
Ni 6.203473432059555 5.921329169559683 4.230969360286701 0.3017032722476159 1.327647481371733 -0.07816410720625248
Ni 5.247361745329238 3.048467387115009 7.329950560396919 0.9893869788253734 -0.8396204767907862 0.8868202744050404
Ni 2.780307299041956 6.273862585806105 7.697622327514975 0.31164958482705035 1.0413520590387548 -0.7887103202044804
Ni 3.9000604543440223 2.7590968965955 3.263606060068122 -0.11632544876732225 0.5813032848382892 -0.8350961065578715
Ni 0.5590501983349374 7.869233765490848 10.15709244807898 -0.06302802289576243 0.33265961141981415 0.5453937154258736
Ni 2.6498770969848526 0.7890618625792925 9.883290943874714 1.7252842689938803 0.703168432476918 0.8697759173282441
Ni 6.059104965537637 3.7735509630421724 2.408161147026862 -0.39726474899470937 0.43066492172170995 0.02053720072140334
Ni 7.833965732678363 5.649468738549001 11.136483240143711 1.0174389998665834 -0.4695865384875719 1.5765405517968525
Ni 2.6376925930686417 1.7593340179905288 12.385644641748643 0.30693135341577465 -0.6855756590958194 -0.6421854650356423
Ni 5.512308136061918 6.163293033312502 10.619480139610964 0.38447222521573143 1.0975219213621032 -0.5976133348522225
Ni 3.583584722256575 0.40132927846339345 3.927038066217586 0.1315054989418703 0.6475716690482202 0.8204567593781418
Ni 1.12557453848434 6.2933559556735625 3.724408021512442 0.1555535410300095 -0.9381088973766876 0.2985269314021633
Ni 3.867078737639403 1.0600151127407484 1.4747445909142536 -1.7125920182381926 -0.30455488276379805 1.1934325539184996
Ni 4.584614715812893 2.737188662726563 9.70743099801487 -0.8481423982188684 0.5320062383753741 -0.9110238682344376
Ni 8.506252852299413 4.904855064784777 2.6814787602315917 -0.3127140215358228 1.9158554637496552 0.5788584228422226
Ni 0.5515393285508676 0.33014037317870987 6.64039394946795 0.17209139078403266 -0.6677825967784564 -1.2801921161032466
Ni 5.217832457767418 1.888368557202671 11.685134832084445 0.6586459245845109 -0.30126721315146177 1.6611211040524103
Ni 1.4072229733945547 1.5926624919264283 2.9654401390276344 0.4600775705558722 -1.2346941316714477 1.1209590693391212
Ni 1.3013729649950974 6.051134996133514 11.762918244311571 -1.0859352449657687 -0.026032933728651942 -0.8943008990528017
Ni 8.592526852899805 0.5015488891225187 2.308512656295083 1.290673732360861 0.824349923784961 -0.5035703516321843
Ni 2.505701452303357 8.12676110636347 2.44001072406843 0.5333326704962814 -0.3070573374706776 0.15697998906389093
Ni 7.347604777186444 5.457620189321186 8.943625123733941 0.3319723555448025 -0.6583944706953371 -0.1580680799217471
Ni 2.3783104897310055 6.710750966241096 0.3941379420148807 -1.2896866858572433 0.018151216987730028 0.39858398202676515
Ni 4.720719389173854 6.58055031399402 6.354429978129235 -0.203955586482481 -1.7837596395219537 0.09529742445242942
P 6.4377152402030795 3.8924210366663377 10.202878453186882 0.2661819394125545 -0.2339418484319261 0.0921809903106348
Ni 2.573033002580354 4.343596597277383 12.565791659860542 0.6826366310721533 -1.038812837556669 0.7718035171468127
P 3.151112880166495 4.207262374106396 1.754190265847453 0.6882580910239889 0.18375494316489 0.31474724991576764
Ni 7.551151184733214 0.4048652637370429 7.097809592114758 -0.9087358435312091 0.15630121782931147 0.7747566862378656
P 9.005835876848865 4.2688551791327285 7.673956660300475 -0.5489102132195643 1.5655909947638844 1.0190569950859805
P 8.271643764459846 0.33452110175325717 9.38507511799378 0.35208481002396136 0.3024278091184663 -0.26840902897086033
P 3.8465478026306257 4.439043408286436 6.550972361872475 0.07793990701058835 2.6072657272493807 -0.3289896187673947
Ni 3.30201892527797 4.685791090080209 10.355933084520204 0.1453488325828658 -0.12970906916307984 -0.21104257523624945
