# total energy = -340897.07574976445 ev
CRYSTAL
PRIMVEC
9.01549582712524 0.00000000000000 0.00000000000000

0.00000000000000 9.01549582712524 0.00000000000000

0.00000000000000 0.00000000000000 13.19508944328950

PRIMCOORD
 96 1
Ni 6.3752717848315426 1.9697145353601382 11.41171990633621 0.017700245493240483 0.1962124522019524 0.10645215551766828
Ni 4.64893957377687 0.33782685508629134 5.910503142845315 -0.024584374207583467 -1.317604238203118 0.5510084905094897
Ni 2.9546123727712557 1.661032975058804 4.919432395467834 -0.509378216563213 -0.8722277213028461 -0.3683411239818237
Ni 3.4676121141266254 4.398272728874322 5.263917194193909 0.35152019576974297 -0.08283065944398638 -0.9750422800679273
Ni 5.294548242684806 4.36758398121038 2.7574038116960047 -0.5927899453216501 0.2658253274040841 0.11688569214616643
Ni 7.205400606042041 6.063389723525303 2.5006938799664487 0.3219908188520583 -0.26739010078804276 0.17965454784327126
Ni 5.139481715123167 4.559839428899446 11.404318184293878 0.027520831128088088 -0.636150314585156 0.11835764870600261
Ni 5.672252438742646 7.739469561055058 12.227387872302007 -0.6597633260184057 0.27037515155829567 0.3933597575133484
Ni 1.8738437531455763 6.429743410385463 0.44815759099597613 0.5154593897602864 0.42193988314388625 -0.1989966998153089
Ni 2.693415428787779 1.472627144071413 0.485758519280937 0.5228777937115446 0.12068449706696636 -1.328741999987492
Ni 0.7113433533503885 0.0587846387391226 4.624364233807086 -0.33325739290481315 -0.11885695693992433 0.43380526712290446
Ni 8.863855149305344 2.325168487812041 1.4236838205349815 -0.8337514196045189 0.39652529972552353 -0.1969490732576608
Ni 6.8141100578309794 0.567647169077165 4.85240218428058 0.4348223955335092 0.22787070253718178 -0.8434501349495216
Ni 0.6538100654267051 7.527073495774556 2.5333651351542756 0.3312624739619714 -0.40228611346870075 -0.16144933768915423
Ni 7.734619224320864 3.8052965243794588 3.833199483844765 -0.5398997821908379 0.038567318750236806 -0.9429310013556793
Ni 7.519870114639571 3.8645643936928433 12.517033213245991 1.1798283328715036 -0.08273707128891558 -0.201950126016678
Ni 8.032094523357133 8.631913489155442 6.950381079772821 -0.987306442147261 1.2104424582129347 -0.17461904230189282
Ni 6.751749873462152 0.6273495852875535 0.3118423931247707 0.2928087979714634 0.3815974747710977 0.10880162958645131
Ni 1.7990782465718165 6.545574500275691 9.133759259121321 -0.7726797491041789 0.42043887311832756 -0.03425377897654746
Ni 0.11321118681410007 4.830123992637698 1.3924649617186766 -0.4412300988320659 -0.205145235915208 -0.2704589695213535
Ni 6.324099830736202 1.8880161125250468 6.97921263530434 0.025337964544156363 0.24470628603728178 0.8584232113195862
Ni 3.5181169215336197 4.269901084342336 0.6125767938885708 -0.2906508710881962 0.7125305904181083 -0.3352633675912484
Ni 6.072865009598981 5.735838730538706 4.71723105282493 -0.2790919626060032 -1.6342091101529146 0.3941100054158116
Ni 5.2323593527359575 2.67935125535777 9.424381879808776 0.03270571776313722 0.3904567249339404 -0.743191766947391
P 0.32268532990956045 5.550389982169933 12.394767764011535 -0.8880248362361028 -0.12390454666616078 -0.2533171676347444
P 3.9833615816974777 6.0679786108816325 12.512018794488446 -0.46861234749976066 0.4342840065315359 0.07854745868760021
P 2.425456862962952 8.405904025234355 1.4171791403236023 -0.42996378188962725 -0.06348927880289712 -0.7591660308884602
P 6.325217752213972 7.654489497752966 5.799254629464365 -0.38966431093963216 0.6016890475834927 -0.44055724113475736
P 4.663427475508936 1.032427531207917 12.506305674807294 0.3583945542920731 -0.22673916003589983 0.34601417834984927
P 3.7747610401439196 6.0487485583648315 8.10501726259173 0.377441286510879 0.8111987311149835 -0.368953560754842
P 4.712237369707698 0.8814396139409811 3.710842076553265 1.2094489839514138 0.08740568040917851 0.16936370744022444
P 0.0868210275420984 5.606565536427873 3.519909202096367 0.9070823670881862 -0.7136179099450162 0.05401707764640374
Ni 1.634815913305941 1.0947246071062264 2.5517720729055893 -0.4470361639908817 -0.4762217844159024 0.9389936139744861
Ni 1.733833103550678 6.343519208664561 4.75781971641419 0.5340386954243705 0.8269526515151306 -0.14986728927850965
Ni 5.781078488405235 5.804834319807847 9.317513995831442 0.7039150808349554 -0.8210563406353537 -0.3789117004088184
Ni 8.5308678123583 2.388385144280774 10.17974789909425 0.9615324185069505 0.47777730182848044 -0.6269766185056879
Ni 2.0011425536787355 5.3783472760386095 6.955184535928917 1.4470708523380886 -1.3067567539656526 0.03476697116754012
Ni 0.46475061099465026 8.984148909610862 9.162828823741656 0.11291770863735393 -0.05559444943585264 -0.056157006807541994
Ni 1.4574540646594225 1.0332569568204562 11.424624687007823 -0.19126487838868994 0.9232888016447196 0.04743891020825378
Ni 4.091854058015894 6.806726366780225 1.5913143430274281 0.3065508301479043 0.10692163895491909 -0.22456657786461326
Ni 5.7679519265372265 7.868977158056393 7.954870491081857 -1.6173233901411694 0.861246025480362 -0.48092793164232006
Ni 5.213958725831696 2.6765564516633447 4.896895459095824 0.6451843997629663 0.7727512257720627 -0.16439607902230396
Ni 0.88319943871889 7.446411854955139 6.8910428895922875 0.544720857728565 0.728141814592804 -0.3386019450461782
Ni 5.110532958146398 4.657783775145356 7.105370975620259 -0.2677387423767131 -0.41763997021695165 0.1855071499693063
Ni 7.879281869742611 7.170330327424902 9.017920055284883 1.320203880609494 -0.050346570773352 0.4080914072965682
Ni 4.680592979490178 0.41445225844121203 10.300139928303864 -0.9604378998911911 -0.4064132482631968 -0.10229982391219156
Ni 8.19017222651212 7.08869501306033 4.788735654572002 0.2964456233931024 1.14136308691677 -0.09455540408008231
Ni 7.149621733598793 6.037722607015536 6.948191215845804 0.23219889759889042 0.4551389956036742 -0.08820272238917712
Ni 2.2366904121440223 5.258720662421436 2.6235534503733664 -0.027848389670835912 -0.5892971016770432 0.019166545626121828
Ni 2.237573930731292 5.249353562297219 11.336323315057257 -0.13934556381157936 -0.11000259187308797 0.39383541159818625
Ni 1.2403609260731285 3.0725621041717734 3.923335509188283 -0.5938371556392418 0.9010523588440223 -0.029079690974775724
Ni 3.8012215202830717 2.533949339281368 2.6550896546414253 -0.1425671560726706 0.5357939875525806 -0.13748228535059548
Ni 1.0589060423386458 3.3179458685422785 8.0811343126985 -1.050509557168307 -0.14790888000055816 -0.22684843192025447
Ni 3.5829473517484884 2.802557020802965 7.429745809440577 0.00880551410677193 0.3299589246591995 -0.8046503884735045
Ni 4.130323178545284 6.831537011190087 5.8078842620330855 -0.15999717862365992 -0.048913180760935114 0.5154779017030477
Ni 0.8208113063131169 7.596222348472101 11.564005153447106 0.15606699033131832 -1.0823593546890522 -0.23892413213786595
P 0.10470236188894458 5.715878422863039 7.885095061427014 -0.16278168334733256 -0.6169020078785054 0.1778339496947647
P 8.405363095487047 1.5978073030942823 7.887391308204337 0.7763710819128371 0.16896647200180578 0.06365742894964521
P 1.7793433262908613 3.3622840768299613 10.116886453159584 0.06542917613808731 -0.7127774163215919 1.7101422711461194
P 3.993684324375273 5.99864043277253 3.7096935023898143 0.16491209942677404 -0.12231586202280223 0.1923884504701719
P 6.922431239729415 4.013797895479343 10.196967496050224 -0.21785419884144416 0.32396928273466785 0.6932833121527222
P 6.243068554589457 7.8953024057587164 10.145308705182305 0.053380472503669354 -1.292755297480238 1.0661187244604737
P 2.5285580727998647 8.388612304312074 5.692256020798097 -0.7803025557567594 0.6763016899930611 0.2214282893459477
P 6.976677477888623 4.008127148628398 1.4604192612242493 0.49623782252651316 -0.5221897665055846 0.5401401803364181
Ni 5.344728492243415 2.888096044843943 0.4029160300302892 -0.0020455696751190576 -0.46885325986597315 -0.30958730298138293
Ni 1.4585539551456157 1.0275140860032024 6.966717158141525 -0.5407693292799848 0.12360269915502582 -0.3464265832969195
Ni 6.986143748466515 0.6943770918260718 9.23942627905963 -0.7162304078671987 0.466645453581377 -0.5351846361033556
Ni 2.4805505577262763 1.5018734124092012 9.118571754916069 0.8071865246317971 -0.8517715103310234 0.941282924229295
Ni 6.440201385500084 2.0148190607898404 2.452003891861673 0.020806138112073845 0.24211924203639593 0.6824545969683343
Ni 3.843459118052041 6.856672213448334 10.193510053415347 1.335032203871578 0.8707786475611454 1.2641358339713324
Ni 8.006427406847367 7.1900832786974345 0.3091873296150671 1.4483497190505121 -0.03357037975627766 -0.1766101045899926
Ni 7.578029077970974 4.046172540855729 8.093656836348682 0.30044805968427607 -1.2736412023586063 0.5450350465348742
Ni 3.214826627713789 8.289198432252645 12.292651046314722 -0.03868893192976562 -0.15899547683202295 0.7144486333764277
Ni 0.1199322389244025 4.965194150540516 9.941892975256694 -0.5852614981550888 -0.7066666754381636 0.8489638656788991
Ni 8.357851432681825 2.3730948634235336 5.740444747337034 1.269495298511033 -0.6198292088276293 0.12254700419700186
Ni 3.502664361752186 2.6255197300048314 11.560573855750016 -0.1051285516102383 0.670413092422768 -0.5225276094609775
Ni 1.2161092424021513 3.3345704427762124 12.69701406341906 -0.42434437882032083 0.060697317880056764 -0.4765858526235404
Ni 3.1745273615393397 8.242957954353596 7.808879863130469 0.16014244595227262 0.029615508873587704 0.7912863084617727
Ni 5.636596152899258 7.7330415125578815 3.510553822116674 -0.6427559928271318 0.9807768685588593 -0.12722872594338736
Ni 3.0890604614646695 8.26010542734326 3.5369701263264623 0.4166202707031858 -0.37016069368906573 0.37440147124329065
Ni 3.572345128701251 4.405340877572481 9.497191925346018 0.011332651403999838 -0.18303683405194282 -0.7100682449205449
Ni 7.377722792542806 6.117392543298222 11.442913521764307 0.07305763921762255 -0.21718494068856145 -1.1761187452304003
Ni 0.47505261803213195 0.1542632468868862 0.4152339019260722 -0.010064840435169763 -0.538436310271434 0.022304319924155134
Ni 4.571415325491839 0.365581960420667 1.5772483664982615 0.36776056888800535 -0.9039199101998046 -0.37387696619838834
Ni 5.931529082123179 5.598397497243522 0.3257100287465912 -0.11768427678806184 0.22706851835086056 0.29582110243522597
Ni 7.93198645812199 8.894011982717766 11.387916292805919 -0.48475681847010704 -0.5420967898421567 -0.29601367806200635
Ni -0.04086003001249179 4.828807730252581 5.6754322041072385 0.1384284513139487 -0.3991701935475384 0.4364324203331064
Ni 7.759357744764418 8.938846043273815 2.5132155020670512 0.22099737245611614 -0.7745224587398726 -0.13240409949673973
P 8.523898834113815 1.598799007631014 3.5347532159120783 -0.20160636952401406 0.7234418380139734 0.8087528406776523
P 1.9605998691179976 3.1853639874770776 1.6978910264907952 -0.9411952496114953 0.5569636796516602 -0.2121208959020927
P 4.609884446021229 0.9946526038542388 8.052831065220186 0.07197366212482444 -0.032655324141176015 0.7306095594070062
P 8.487936021413619 1.731480059149888 12.30688831726387 0.0054221994568358235 0.3149369973290705 1.2436292293775484
P 6.2969722039087035 7.707662891913346 1.358632510673295 -1.415462224293872 0.2722607986167827 0.07540737039672175
P 1.8696605630997274 3.0981931586983866 6.07309310164243 -0.7628550497042732 0.9054957393273567 -0.4652717131623019
P 6.805401088899321 3.9258517340628445 6.035090983794882 0.03931885220428067 0.12449230084883074 -1.6790033836494695
P 2.3559113284507145 8.45099051967248 10.224360178453903 -0.2302140059583777 0.5694654116630966 -0.7354740865881592
