# total energy = -340859.7650762914 ev
CRYSTAL
PRIMVEC
9.30622641058924 0.00000000000000 0.00000000000000
0.00000000000000 9.30622641058924 0.00000000000000
0.00000000000000 0.00000000000000 13.62060303968131
PRIMCOORD
 96 1
Ni 4.8783331200603985 2.6076232149636565 11.065664207506192 -0.8521409778553002 -0.23537369578244627 0.1300659382818663
Ni 7.368176735276087 1.9478117720013532 1.6875929341195013 1.1359398590186696 -0.8211136762358504 -0.2774114895797868
Ni 6.372913059972188 5.6590417485731 12.96726312106661 -0.5423574997027112 0.894871169733975 0.14821252728390602
Ni 5.711007716097804 0.6837582244154851 12.581159890973098 2.116123316967904 1.217477253572529 -0.1955647913156245
Ni 8.436615267787499 6.054379547000202 7.79571128474997 -1.7103160777198223 -1.0425129121160757 2.9293313652034327
Ni 8.51616488999401 6.418215769483337 0.5892051042069435 0.31486166400644483 0.045216705745954384 -0.021303903684098794
Ni 4.554206565096589 5.227809835399797 6.418123637843205 3.2593802784732766 0.01982423381477876 -0.10245511854313322
Ni 6.225362842367572 0.6634064381726886 6.700083681550848 1.074131310352305 -0.9941072671191782 1.1620506971731084
Ni 6.080390449441382 8.403150078099312 3.5002364225763416 0.7174169719761322 1.8975669498531127 3.369454604124565
Ni 8.212512032837214 2.097325603350188 7.386589103962983 -0.9321285114235366 2.8014758043093235 0.8945940048131883
Ni 2.531684408552198 2.457122923629575 2.594860656248868 -0.16761638573181456 1.4256589623212157 -1.1852834424488037
Ni 4.0356822494552125 5.935967123865473 8.787100778055207 -0.4428105559453083 -0.6360392429285885 -1.085770694363446
Ni 1.006459065513824 0.29726227157312796 1.260995521631603 1.1528618315849886 4.134340053995306 -1.6886681604327434
Ni 0.30345277329186593 7.134357800093748 6.437206054821968 2.7867791215290976 0.7785688608951044 -1.6936884964654702
Ni 7.356720770730437 4.326204021336697 1.1107316084449301 0.9798864955341061 -0.1475430120207072 -0.893635497554661
Ni 3.3930873251033504 5.6107331279748305 0.7994746337980825 0.20999870735276738 1.826220894009958 0.6485833981421862
Ni 1.7397059400193644 4.727618785521971 12.993945933044913 -0.19298494640359024 -0.4659661681261652 0.7883411097905197
Ni 7.043556950319655 3.5499065440787776 5.396114798844957 -0.754194802926114 -0.08221770845033582 2.0765568675291917
Ni 8.476464528700962 8.679507773588854 0.022352624892117857 0.8703400173618301 0.697046121629264 -0.6395562549429115
Ni 1.6373281447580346 0.6549722052988278 8.682044650871669 -0.08710511844962418 -0.41386559077618396 -1.4139365316779648
Ni 2.5489288458414667 6.216112453449313 6.130905576289671 -0.8457803257445949 1.7365498146053704 -0.9553800257523094
Ni 4.960879347127755 1.7905086292595789 2.4990260686821335 0.49009828528767846 0.1727367376775154 1.439702070677843
Ni 3.632955307365034 8.085361063229401 8.956935685100126 1.896553935207566 1.1053337040970381 -0.8667540997827846
Ni 0.9054036850063013 1.308278596094267 3.5538737883401996 -1.1817476613814033 -1.8122744591321949 1.2653229123008982
P 4.345998364625565 4.758031532991658 10.690470666475932 -0.6049152678302743 -0.6400550489562009 0.03503899388200417
P 8.989274821408927 4.858510858092701 12.820297334472123 -1.9148676459150893 -0.37148558314807634 0.5283547576657158
P 2.9164782526086905 0.4149097229079777 2.8609535841560776 0.036718952687588374 -1.010475938285189 -0.29985850572939327
P 1.736067205545482 7.986091547544226 12.658279657498971 1.2276516230023697 0.8977500339436667 1.5615438212777042
P 5.567626687864798 5.555128425976244 1.4886230244725769 -1.0735767234004154 -0.03353181320885838 -0.20713064177635296
P 8.072555695873742 1.500033388509475 12.939245796240346 0.12499700839939118 -0.5682050568934344 -0.4173838883420876
P 1.2701323745892954 4.110951007574806 8.508409081015666 0.5380622147614669 0.8783263780014162 -0.2111860427926492
P 1.6910157641437824 4.8560260956770325 1.916514002412827 -1.5311312704241178 -2.3485800962138716 -1.8254500772822049
Ni 6.93852688056969 1.4324887981988914 10.45736738009421 -0.12191476992964165 -0.34078738273327114 0.1989506770687219
Ni 0.7945963099842484 7.759829268097929 2.1680045306704994 -1.2326336495979935 -3.122068714372591 1.7793684524327937
Ni 2.4876845707196766 5.927405395691633 3.3566069181017677 2.0543767318877264 2.06788350812491 1.1971120596526157
Ni 8.446740441975694 9.474948158296328 8.845709529895657 -0.5819298626786945 -0.9620150145703238 0.03656725760107251
Ni 6.487482011654965 3.6804263675984714 3.083745571824086 -0.28220813963748176 -0.5408330926383846 -0.1845149612593661
Ni 4.497671240470411 2.36115711827235 6.483433803224942 1.0067892334622208 2.521826169427637 -3.5853953879933798
Ni 7.051141524734525 5.957957736555458 5.591966192066822 0.2838654727352466 1.975992281140552 2.401993478838005
Ni 3.6928129547717132 3.6933527158957165 8.806632685763095 -0.9127971580847763 -1.1239767731195225 0.9423838706029577
Ni 2.032517043564723 8.21650440390958 10.385151064193117 -1.6743800259448456 0.44469517456253094 1.7907417272667419
Ni 1.8574017837308487 4.054853075583596 4.641370541642055 0.1718527924106653 -1.1170743895727342 -0.5044208725579378
Ni 7.423074164077704 6.3896177361374535 10.915387265602732 0.8138084008236887 0.7762414983135083 -0.30942198104811225
Ni 1.5940355801224824 8.427104304533513 4.906168042851657 0.27199854609433155 -0.4028193602643514 -0.6809389316547564
Ni 0.19829613886454808 2.8873032332337 0.8974245265973326 0.5035130160316876 0.3850635789428271 -1.2770242598982264
Ni 9.364576314663987 1.6721520434825048 10.48783689554418 0.857978924693316 -0.5239797685264718 -1.9279298784156862
Ni 7.185728169136793 3.5172230773977673 12.442338913615288 0.5722558299240402 -1.1411342587354154 0.25954283682948204
Ni 2.8113178956908627 8.077441464668597 0.9863622698709876 -0.17491446205512456 -0.40724808545966645 -0.4324716359131455
Ni 5.469892699515149 5.436678777936411 4.037092142736014 -1.7767819226525399 1.4816300783701968 0.7394217583819975
Ni 4.124798672273365 1.1678941727221042 8.11587710981075 -1.815847521195434 -3.2553780992924195 2.687900664593629
Ni 4.9058795498371035 7.876892288422651 6.84711833421978 -0.2563973492219649 -0.6417602045727657 -0.5931308736008365
Ni 8.70049331384104 8.961840066347534 11.328405032708817 -0.7691912763349462 -0.48068856193800436 -0.5805792621880711
Ni 0.41205178081864446 6.261089445040805 4.004239302736782 -1.4347305856051809 0.1117116041443947 1.0979099008291415
Ni 4.114440842428273 4.093148196708982 2.563152482081574 -0.19343257546397008 0.7831526236110448 -1.6389142289380678
Ni 0.8359931963273967 2.025304718200889 12.42578965142883 0.2013587722895822 -0.22432437994682008 1.4145960196388345
Ni 2.046904469387286 5.656296411821706 10.1640891039898 -0.7223378063165173 -0.7535443138263087 -2.3003639415199606
P 3.9775369476833022 7.129369662809858 4.59605480341412 0.2171522876784131 0.6386414564381259 2.4812487622259076
P 6.803856480130937 7.738880952750846 12.734678191488458 0.7904902949230386 0.1634637970160217 -1.1601570796948213
P 9.21242882127907 7.333929822580723 9.595006852859267 -0.562403876830625 0.33068294730941755 0.05995658305929029
P 9.48983812033779 2.329367049313828 5.428790820544947 0.12241767770798916 0.5582147784499419 0.3005856137034049
P 5.783056519925931 8.87236070070462 8.984340660237438 0.001732923530706693 0.13155306435035408 0.05103408375867985
P 8.326085218308467 9.278037716524263 2.0831894456370743 0.04097464264014879 -0.293579614699217 2.3584991550997962
P 7.9892370520254845 4.982823428686361 4.032855948535218 1.4802756212248314 -1.4264927710764206 0.04754638232039553
P 6.550326957696212 4.407075127674389 7.428322875697319 0.025228435549485582 0.9125559886082477 0.1669119034656222
Ni 7.1846300344362355 6.316694147039391 2.703172101383721 0.8276316798600263 0.8800243345291296 -0.37485398539967696
Ni 9.297469116988372 3.4562952139693586 3.010384590091056 0.36001049262894125 1.5053978702137556 1.0099784298234802
Ni 4.626422880997683 4.135007602498043 13.21344258598862 -0.5118544460178475 -1.3962612258853888 -0.8194429734016467
Ni 2.2438335236119022 1.749393721572591 6.202277817467539 -1.9676385098592177 0.22892768304678637 0.65655664615565
Ni 6.593135598565417 8.105322918591236 1.4096094408995568 -0.7037551582183234 0.24634253608912415 -2.3799745513647528
Ni 5.713334272666782 2.6390038099660384 8.577833529033983 2.6230294178415408 0.6654899440895378 -0.17053844447461597
Ni 2.724639704156999 4.062279444151775 6.77261361727744 -2.0728909886418303 -1.2580916846597816 0.8156909625583824
Ni 6.261778105785223 6.589841194463744 8.716205015662666 0.3820451038314775 0.362613220359111 -0.6387340161519323
Ni 6.559251628694814 4.119019505756023 10.36439352648469 0.07111234256579366 1.4746163660565248 -1.0949009387994886
Ni 5.078100573299168 6.73408770174041 10.842503693277656 1.1897260516011898 1.2341878814589906 -0.3449967928289284
Ni 2.881803253504635 0.6015321315320192 12.64681159485916 -0.34090436792710965 -1.2007730534439707 -0.5020886248803352
Ni 4.394334903902663 9.419296925166362 10.768707180154912 0.01783291441636284 0.3000775637187348 -0.7455936915206643
Ni 3.5461654411158596 0.30165574099798703 5.174794125551171 2.2343822353125136 -1.1667887260787262 -1.1343326624325498
Ni 3.1766710330569703 6.287212022197296 11.929754762205828 -0.1084640437413745 0.7492012063662646 2.3153606720391093
Ni 7.767618579490868 1.9688996807425747 3.979340494335574 0.30263632558484654 -2.8179766301778244 0.8999382998442373
Ni -0.043309315842848604 4.6395911911781 10.681344980989772 -0.38763108255968726 -0.8862242926922544 -0.3317080461398223
Ni -0.09713280613222484 0.35102806325959357 6.5759451373885485 1.8641498078452476 -0.9643020108322876 -0.9489854350798753
Ni 4.430564042794796 0.4162647094537507 0.78633889540963 -0.07745062607899565 0.3431034324609575 1.5250662951769605
Ni 0.41468730409998333 6.822273501930972 11.686055406586352 -0.5468595013381227 -1.72102523660721 0.5227901190937447
Ni 8.480252162795258 8.65792663485501 4.416412064497013 -0.16738472933698267 -0.48140795660253227 -1.1569390869781557
Ni -0.008494723344654304 4.625120009319054 6.167613055212386 0.464660047720232 -1.1132084788594248 -0.2303021947968098
Ni 2.4089911213305477 3.3927057698260383 11.153925388129588 0.29851561854825365 1.036785522713995 -2.247388160653878
Ni 4.4229887746062015 7.317225146415458 2.5738034580543574 -0.40236787454922956 -0.7142930816351698 -2.136806042128236
Ni 4.763066201406928 7.955995211767919 12.998046256342079 -1.3561921257786451 -1.5285316280177417 -0.1657631345731597
P 2.3921189330923163 1.3556565940649452 10.515813272974833 0.6611710049992097 -1.0507088176633066 0.05317735535392777
P 2.734197198542363 2.6654334925896346 13.069063930298835 1.2865365702640361 1.080199885143888 2.515217405861868
P 7.7705872656728845 8.056232574985788 6.510893685097281 -2.482951603849627 0.41496782270142724 -0.1787297220361567
P 8.234372358359336 3.062316124578539 9.528224442480681 -1.0166453003206941 -0.20583763399654229 -1.707214555976363
P 5.6793479343071445 1.2308507934786623 4.77512427879263 -0.16149895998016703 0.34481141629099976 -1.5502332813608914
P 4.217637585601883 3.648347805625396 4.556704356229044 -0.5393809335728904 -0.14409387712984217 1.967273670320631
P 2.106520154910791 7.709482583945233 7.669638906767535 -1.03318032186124 0.35360304644070073 -0.9430171333115824
P 5.825827935890031 2.425639960138158 0.3811029947154648 -1.7086847127639866 -0.0020450554544868002 -0.31224968030489453
