# total energy = -381175.7186189415 ev
CRYSTAL
PRIMVEC
9.14108934015824 0.00000000000000 0.00000000000000

0.00000000000000 9.14108934015824 0.00000000000000

0.00000000000000 0.00000000000000 13.37890824478827

PRIMCOORD
 96 1
Ni 2.518945941055067 3.8306373831781237 0.3218668889890514 2.027037163532509 0.2817826220642889 -1.6465720025936414
Ni 0.9960313526461907 0.39425791605363336 11.472413292333425 -0.8063923108652757 -0.28208395535479164 -0.7807458139417651
Ni 4.188547586565625 6.8797390699006815 4.244860351977802 -1.126784931992279 0.4423284741025673 -0.15386149803956728
Ni 7.891995855734102 5.008402728610414 12.485571389554034 -0.260492602337261 0.3784018506519354 -0.3793426172986499
Ni 2.19677739612507 2.0947171361051113 4.848408988077378 2.3923883516480733 0.4957369716306946 1.6060069366870857
Ni 4.286521779749138 7.517357459257795 11.929383650291843 -0.6305249979785785 1.018180248907982 1.1406269800816937
Ni 8.766130784970875 4.725449456003356 10.285651286989657 -0.4470330786670882 0.4754440257096134 0.5978593894247575
Ni 5.335608013645291 0.678342855493693 11.790871469189788 -2.8675678108423903 0.7361862821638353 -0.46328245064641504
Ni 4.500532958216425 5.746353712143886 10.469544405025799 1.1499382301802905 0.41530129478144606 0.9940980111477976
Ni 6.016975655528649 5.987733311435156 5.686290357865952 -0.3577090981892743 1.8285356581860637 0.055630701990426766
Ni 1.1856541053424752 5.90059130885833 5.8639355414888685 0.3800753816996164 0.9833261173432742 0.7157627242021608
Ni 4.865362966067438 1.7746053362270169 9.494395870473257 0.9913196770717121 -1.3671640514091163 -0.6140354849639876
Ni 4.356341418444385 2.343811814613295 0.0529515869429121 1.3691972797890615 0.4640239567981299 -1.1664763370446298
Ni 0.6963078379403769 6.1191730318854 8.482655556175091 2.116728811762387 0.6525434112311987 0.03883188526553312
Ni 6.3055964033898375 4.528431562209342 9.520885832632848 0.5233886719096922 0.9935606505870889 1.7003168004152653
Ni 0.24860928667593457 6.989496126959315 12.711327039322141 -0.5557007537788364 -2.3793286902506376 -0.6035834363927283
Ni 8.01452301429277 3.040591332752242 6.415988766142281 0.5725628196414979 -3.733257731026719 0.19578282086370152
Ni 8.502977111396799 7.596564996478837 10.527193597667253 1.086663895601677 1.5990981253823944 0.9142236061186578
Ni 7.877461524033992 0.44964103270235006 3.5224656739080067 1.6309823756855006 0.08288953770637983 -0.7459991544891991
Ni 6.0519403214109895 1.3555321055404967 6.884277620648546 -0.39677803916627796 1.358693037823628 1.0609783179101147
Ni 2.758972659156641 4.766684909021719 4.454868647519631 -0.04316419409229985 -0.2182406356465854 0.15914305815348076
Ni 7.019241230954384 2.6392061095120822 8.787761344154505 0.6878451718562864 -1.1241264113235092 -0.4954487509663145
Ni 3.900265059001861 5.68302424672353 6.7815409200337395 -1.2415579486708166 -0.6167050613763507 -2.021166306574029
Ni 1.176595286024985 2.1196357450450494 2.812473625555639 -1.0167779692438166 -0.36130812839444226 -1.1442720330334486
P 6.485401626371709 8.110074818859596 7.129258809052925 0.5860868222698616 -0.6696196499871953 0.06474937646224332
Ni 8.70742671064502 2.066626569240684 12.688222022463524 -0.02843665807413812 1.3417633519478247 -2.0689006365355147
P 1.036453248732913 4.9034538844286715 12.193777769659444 0.1991622788588957 0.9180990299136641 -0.3395802497990474
Ni 6.26128040333818 6.857078309973276 3.3020886409778525 1.2606481325330483 -1.0413836836076389 0.14713806327280465
P 1.1768969419659308 8.210334284323 9.099999009865005 0.189343492996261 -0.0730661238580548 0.6989929609429897
P 8.776697883993094 1.504522717100309 1.2305112578700113 0.0551146815859567 0.380142487492126 2.489304799761164
P 4.30501420303802 1.732336940138142 3.8792542656605375 0.436193564849423 0.6590012510414005 0.3556892395457681
Ni 3.335519432105931 5.4916555460054095 2.1354607985288427 0.135915712194424 0.8263450998381189 0.025550594775594706
Ni 1.6579010514375132 6.909858958549653 3.6518532198509086 0.5316686525302974 0.060847470304675855 0.2748622407953718
Ni 8.639033081852425 8.877085324704172 13.41275662949621 -0.19289418646199685 1.0493921557344121 -0.10680619642297734
Ni 5.146451456494105 6.511554282342788 0.7668267699532716 -0.8118340507061372 0.8322043868323733 0.18564136155432545
Ni 7.256287954002979 0.3112001520954294 8.889495267292896 -0.4188800132716398 -0.9076315547234368 -0.7838859022326435
Ni 0.48251513150304665 3.9213352694224612 0.6861950510474005 -3.0452161268889104 -0.7490482257281681 0.6399097816275883
Ni 6.01169210601754 4.119267272128432 7.167790327909721 -0.47435773462397013 -0.7539423205956758 -0.7611501511980246
Ni 8.705817878959976 7.595413219249772 6.943559411806758 0.4217030845427318 -2.4830865867655945 0.008312890741069555
Ni 5.8284041280811145 1.9580578537675943 2.199665980286853 -0.929582090852599 0.34226139617563633 0.768176976137819
Ni 5.503538961860845 4.543724604306377 12.654560875889633 -0.927590514343867 0.8025348847923985 -0.09698381101591684
Ni 3.238550758725571 6.866210258003724 8.724666804724523 -2.0676107140794975 0.8127501347625035 0.44901822741791697
Ni 0.8627414757581455 1.9939731929183706 7.123211978600331 0.6640683811516628 -0.5353129341511039 0.8103764923240043
Ni 4.4986316116795555 0.13848018729013484 0.9548443474001604 -0.6741311647043036 -0.5340425520791124 -0.8343142340865244
Ni 7.345194186779882 6.08229787837707 1.310036904992415 0.03452554458069538 0.8564748293439636 -2.3686706963161592
Ni 5.345608365142097 6.441222742656843 8.32284463742445 2.3984391858278435 0.9963793509828065 -0.7747985952193946
Ni 2.2050500817782774 1.561883051325588 0.5612866387730859 -1.5039889056813711 -1.5559894671183785 0.3782840941271485
Ni 0.3531047328373455 3.8929064822606096 4.446586820777305 0.24670943251023963 -0.5226317391390095 1.7093907376920754
Ni 6.439860720378029 9.060601829868586 5.077255240076812 1.0602252417941742 -1.8276298585423427 2.4427308086563673
Ni 4.657275213349631 8.910706250485937 7.8882178436009855 0.21602485894218923 -0.5646469072285308 1.4860235794522019
Ni 7.544497352853788 0.7575357669721443 11.025651702703737 0.6472361400856724 -0.2157060421501898 1.10949966254927
Ni 6.676770327089829 7.987063182577593 12.570955560693168 -0.4184997471140858 -1.4481322037230673 -1.3050801375941783
Ni 5.107629251003306 4.460101921040583 3.56612077321632 0.8937180299661384 0.03693878200787832 0.3613230407927777
Ni 8.560346586711198 4.921900602271958 2.620727397856879 -0.1041391911137755 -0.17179699947206542 1.1210775971948563
Ni 8.184519848649346 0.47498104585070006 6.774383447253119 0.8324393856613147 2.555327900729509 -1.4420289190388067
Ni 3.705212499368553 1.9982329404480885 7.490248645364809 0.04221751390831439 -0.38936503453165844 -1.070162041291912
P 1.5571114028051742 4.343681010013786 2.627136215438607 -0.0377597352472769 -0.2922295284292258 0.2833625649568991
Ni 2.401455522601281 8.99939309712397 7.417801857656596 -1.2162706348589376 0.6917612190812408 0.9478001565225225
P 0.7480911936938084 3.9798290986985663 8.707956893813956 1.1866576970885114 -1.2582395230915557 -1.5768544834928457
Ni 1.2685363603895836 8.52487001983816 5.346211677023988 -0.8984786845795751 0.4632852788598924 -0.32893691115258833
P 8.435086242505779 7.498627367651802 2.617221790179525 -0.2939632232908808 -0.45096532384195887 -0.4629651765163123
P 3.4178623628949847 7.675178362907108 1.9329308279957305 -0.7989178568651015 -0.12475609603317869 0.2747344569682559
P 6.739423351915338 6.336017947979754 10.8025314289288 -0.35189634816223914 -0.6525166717583214 1.0776310959754474
Ni 7.903714731985386 2.757683765590782 2.89091422539955 0.4629965439748801 -0.7562306024092201 0.8029614308068559
Ni 2.0573392226952048 3.9147354030781343 6.843324627283977 0.6298212870433347 0.5886720664985347 0.5036266587914167
Ni 3.1526793675363645 5.776245073564868 12.907341241530826 -0.5835028635927693 1.066059589087764 -0.9898171243842565
Ni 1.2962978480457066 2.942013827686838 11.231740299231097 2.0428167949642693 0.813876792167779 3.1294536939827524
Ni 0.8567458354046219 8.812530953341795 2.043334160055117 0.3976565851164893 0.41034163678332564 -0.48124443444147447
Ni 9.145751075017348 2.2110192129733544 9.74228026878201 -2.1176415533846433 -1.5886334784056446 -1.6603425740151727
Ni 8.175003974875878 5.019088661791186 7.254846404248823 1.2594764808224503 1.0875776656651979 -0.23659728377690226
Ni 5.613524546147468 8.223122668001274 10.242089426790363 0.717390489613571 -0.7005194248898451 -1.7704238416449962
Ni 4.245770804454111 3.359761600451021 5.697421462086848 -0.06130718354991377 -0.23326847651398533 -0.4834165023921288
Ni 2.768223441345642 0.1413541457093265 3.379257715325232 0.7535294014279732 -0.27037952243366986 -0.24585762603290562
Ni 1.0416545284419463 6.246398710251526 1.53283449832143 0.07644763873577802 0.7222290486527948 -1.6334498633893868
Ni 7.649135400005464 6.509680359073276 8.787654393411806 -2.1139556198926237 0.7735379833394161 -0.26932974101291685
Ni 2.41643776766825 5.045058495979874 10.24123290673986 -1.419242774382227 -2.7675912357467367 -0.6345552021838943
Ni 6.3566219628552565 2.4347839335312194 4.822374252155942 -0.5261204690185585 0.25546275322283746 -1.2506221157556139
Ni 4.111287101327051 3.2669429815309443 10.871433302276444 -0.6513239370018008 0.8174555106579728 1.6343129827206304
Ni 2.051708311797552 8.21540758878436 13.118875184846713 1.9730493964621436 0.4846750573895782 1.4984083262698
Ni 6.4827872748835125 2.839990132023358 11.457897242811551 0.6386016043391259 -0.06173501511595174 -0.47202291584320644
Ni 5.42204615235991 8.94165797824479 3.22119914335881 -2.675269348982864 0.9933541910032376 -0.5819244633620558
Ni 1.8050177397278142 6.994542008153315 10.949592356575472 0.045892134546424185 1.696033342548563 0.16275262988161004
Ni 6.573412032414893 1.2524389024500273 0.12332243331206987 1.3394935820770415 0.1383708586031359 0.22139717899769615
Ni 3.4289962094426163 2.9360721197591197 2.159970800785136 0.2808637097944453 -0.5429676224828843 2.4669678268268607
Ni 3.040262253543937 -0.045135955745682854 10.102908117964757 0.5837987975666332 0.20026065412939703 -0.13881283123656094
Ni 2.3497809458083716 2.4621980598007993 9.25420369865862 0.5433622868181417 0.23093622883638293 -0.44915346744420065
Ni 7.193890879672819 3.5352339471902168 0.8551552858978174 -1.0420244025154313 0.4033659767964409 -0.43418707594235545
Ni 4.250588158420122 4.319676509985805 8.568695143404097 -2.206023224553846 -1.5128494413957947 0.5694553843607676
P 3.122513773441795 7.519889540943915 6.057220214486452 -0.6482391274288901 -0.5276772719827171 -0.2728426392621817
Ni 8.467080054424262 6.45583020306991 4.466936713375283 -0.2042864874593385 0.3927380647689494 1.2825696151964878
P 7.390671105149724 4.581148223161882 5.195966908036971 0.43610331912846184 -0.5235966741554402 -1.8336894344728614
Ni 6.685180129079831 8.443587455386975 1.4444675898025818 1.0905650304282961 -0.22303677148364814 0.5641532554215639
P 4.974443582531224 4.298670287189041 1.3677126067923189 1.3690818372571196 -0.5263454405451709 -0.6620585498104856
P 2.9356333474813807 1.216185343001827 11.975580886484307 0.9877628129583892 0.3704733398334781 -0.8619934451693477
P 0.26580276120092694 1.4651611873514563 5.052410673958741 -2.092773843608686 -0.2709485075632624 -0.17792265275382907
Ni 4.246639207920469 0.196489538842903 5.531308676497176 -1.308292730994205 0.5327708844555405 -0.04873268931901285
