# total energy = -340886.3005605388 ev
CRYSTAL
PRIMVEC
9.08297750143773 0.00000000000000 0.00000000000000
0.00000000000000 9.08297750143773 0.00000000000000
0.00000000000000 0.00000000000000 13.29385569479409
PRIMCOORD
 96 1
Ni 6.874823941444121 1.8262325440396256 11.140769680882988 1.7719803874988385 0.5187084928252035 -0.8939882529083895
Ni 4.657632795820411 0.8360272251744619 5.634840373848114 -0.9394949790909368 -1.8505180759944257 0.11094592962296376
Ni 2.8006997877482083 1.8759527630083612 4.427305743458136 0.21031186771781202 -0.2851353405866057 0.38828671386581515
Ni 4.065195586789398 4.851009387315547 5.028161964356545 -0.43732073647533076 -0.8652235220708712 -0.27484681417640405
Ni 4.212221743977363 2.9442744134768897 2.567628767875803 -2.2772728640284523 -0.2985073910181375 -1.6520620791739355
Ni 5.245610262886928 4.9295135620592045 2.708702849892009 0.2890896972486634 0.5033672344824428 -0.9099686874970457
Ni 5.479687676669041 2.8144241667876235 0.37968753477401807 -0.37951436698982377 1.8795190912124662 0.5796102134065825
Ni 5.935662231373002 8.3478104065811 12.104214731365674 0.8629576088548299 -0.12454886511837905 0.06934702313525476
Ni 2.172166826035106 6.767335985420004 0.32445213185244814 -0.584420233200716 -0.11457452751448656 -0.44162964826332973
Ni 1.204330155919358 -0.07160837820710929 12.960911180194731 1.4876222913978896 0.06344865537294879 0.806802658929817
Ni 8.431809782727038 8.671527725551822 6.721878407803485 -0.6868959205691396 1.1569858810556912 0.9168623292930855
Ni 9.17898459686426 2.6687422902732743 1.4135892419137148 -1.6824579178569734 -0.49200450117145583 -0.3271903607751268
Ni 7.126240759320372 0.914592255867533 4.9065363538156515 0.7446850636634659 -0.37351444065264705 -1.4003613640966917
Ni 0.815944761867945 7.908957264510691 2.6815038736951 1.546667161276188 -0.8916907151234642 -1.0930582291637951
Ni 7.650473890120433 4.21170401425847 3.8550054955987867 0.5458387733830922 -0.17769588145500365 0.27664427239645906
Ni 7.882662044577463 3.977272364352905 12.59275085219697 -0.3249882109174855 -0.2759189641946603 -0.10770274009531774
Ni 8.45229189704463 7.20816921659074 9.104429700748225 1.2820155424652306 1.4669058847861447 -0.535409093409336
Ni 7.164816164866631 1.1642833080141417 0.07833977285046512 -0.47309095209640456 -1.078953928551929 1.5411554874293394
Ni 1.7132130547031308 6.614187901380572 9.225682909210615 2.002056068107139 -0.22708214519761538 -2.3841898749976806
Ni 9.278352370981533 4.99958873366019 1.1768586903967166 0.233869600433094 1.1131701694223217 0.5932751124881848
Ni 6.289562284657408 2.1060972475223947 6.6592376533062465 1.1954601258714896 1.3401237594618727 1.3735319026086732
Ni 3.803542253243113 4.868766608375809 0.2168715294575822 0.31157862237979883 -0.8609336364462656 0.17961443863395518
Ni 6.142599708312114 5.925262222107529 4.704030461610709 1.634129405954915 1.1801564056348837 1.0048984441974114
Ni 5.215527441326013 2.827104003411729 9.677674578270114 -0.18107199701608814 1.4423184252547676 -0.5524076848498616
P 0.43407458759480616 5.6812480309136895 12.378108285423881 -0.20835345843986056 -0.4736159713619391 1.281442186460264
P 4.221422800209611 6.792504916140203 12.492834466237216 0.030551904644928022 -1.8406375836559206 -0.43932105473481114
P 2.816213513359936 8.650055566684067 1.2502255330525556 -0.8984354900464657 0.9473263022098973 0.378728894974051
P 6.631936039463311 7.95032114415695 5.688348194444537 -0.9357409113651434 -0.21616421273353095 1.2041802793533067
P 5.152609656014279 1.4392432036337177 12.17174757755757 -1.7597817885501177 -0.4851753940647644 -0.061129263211152786
P 4.010497896137274 6.545838495509229 8.12258617099205 0.47595258991491585 0.6215986420232263 -0.8455859503456017
P 5.048972882460522 1.2553946555617095 3.4786168982616417 -1.3516397305212722 -3.1268530231351117 1.0771667547445192
P 0.28279578032990255 5.88508821251697 3.6126053495110386 1.0824616845948714 -1.412049341957581 -0.47870187052527874
Ni 0.6635087832664288 0.20635434978204353 4.710026135074587 1.7959278994533718 -0.42636603723603994 1.3283200819587253
Ni 2.1357985840272837 6.665670217989048 4.609352228789297 0.2836050199850083 0.002975537688556166 -0.8312589921999682
Ni 6.5064456219857725 6.110391470010482 9.38092916105819 -1.509198989127401 -1.695488011568054 0.3775176482747692
Ni -0.03477327115453173 2.524513690162834 9.700220345081256 0.4733143809611203 -1.5256059697305144 0.7508479979410683
Ni 2.670213732632232 5.441511922133857 6.752428094409156 -0.36802590673425006 -0.8403329294767785 1.5094357877285554
Ni 0.9379900059704673 0.004368912189251322 8.786587251640304 -1.7121114790573484 0.9316078630333762 0.11247727866582563
Ni 1.804887546857213 1.5504733463979 11.254179738253033 -0.8987267960346393 -0.39262622178143347 0.14355600234850116
Ni 4.427924294227551 7.1005086839936595 1.2963089278205089 0.3455768337021145 -0.1418999548023169 1.5038397816980167
Ni 5.575667500169703 8.26001434582995 8.004509279769954 -0.5314915035224846 -1.6123143669623523 -1.332340773082344
Ni 5.439831571291837 2.993495068681781 4.5206951017688315 0.13893393019545752 1.423328514415826 1.8003077736886224
Ni 1.1269795193213037 7.147949075603762 6.714527554092962 -0.9438843664078841 0.8647082729973496 0.49145634197746974
Ni 5.357530711942967 4.827402728729552 7.691107498373727 0.44968542868827066 -0.22784319173335602 -0.6667811520971355
Ni 1.0652788529978436 7.2897979356028015 11.191737900963581 -0.49518084201690843 0.9949217926006737 1.0485532047728845
Ni 4.518953894977398 0.5699613811468089 9.9338999244478 0.1686193730750322 -1.804934473827356 1.448859568807395
Ni 8.345639574952761 7.565384556671563 4.421017598117973 -1.0122186320079083 -0.4560000580523889 1.0726804368383913
Ni 7.2624309243216905 6.142872197637847 7.080121032642321 0.46101473765816087 0.43143573844946337 -0.8514292965002562
Ni 2.706354900201943 5.220922729975524 2.3251223509510193 -0.1625320292303717 0.9555880279980575 1.0136090845975316
Ni 2.6111652957459057 5.491005066664481 11.347648118468191 -0.04964183139684354 -0.7198199249906699 0.5919479090363289
Ni 1.1460265231900355 3.6148070632629605 3.5271390724949048 -0.44995590874083796 0.38080788899026674 0.03850818337752723
Ni 1.7494813839581838 1.3114729587975464 2.3131573446580864 -0.06185637118516444 -1.5653035454304527 0.903297189014141
Ni 1.1249994302209776 3.5196901226271193 7.617658908920169 0.2814740896849346 0.20613742462514822 0.5675766792808161
Ni 3.979388698116097 3.057302985790909 7.058292821055608 -1.1188751902268987 0.009990021333176342 -0.6147103995438252
Ni 4.266174630472483 7.298145191947754 5.932103520778931 0.7929510977587053 0.03573422017681588 -0.0075700990377740585
Ni 8.598028271424127 7.552196073306089 0.08101925122017227 -0.32650027668663767 -0.7517340000904473 1.0500369884072625
P 0.15937537343018138 5.555603202818236 8.02413123611598 -0.050041123717791236 -0.7103040150804348 -0.956176553511676
P 8.43921240940945 1.7609804335041133 7.586165500949709 1.0082694175521731 -0.6739707278670393 0.026906594582856887
P 1.987046661109677 3.549545869749924 10.091352431536057 0.4139645782478935 0.2506149382122329 0.519125525757964
P 4.3292195774695585 6.584432067010537 3.754424235684247 -1.5052112081242466 0.5962200540491216 -1.0634095530594267
P 6.8837525083506375 4.044341070393304 10.587505537319341 1.4310040286832129 -0.2844545124694972 -1.4471904086350884
P 6.671374327874391 8.232393011178155 9.917495158740925 -0.0770230516232738 0.3016757614437901 1.0355832748757778
P 2.552807165151437 8.714499292219905 5.633843062915931 0.0947189262411401 0.09098105646526265 -0.32962211014507103
P 6.981621591176381 4.231268747846094 1.6232725029584623 1.2856145726703987 0.17908710537557546 -1.232693042081019
Ni 3.05441459893814 1.7068095555484066 0.38430168735642906 0.9951195104337766 -0.6507770633593953 -1.1922048521589856
Ni 1.996928940656258 1.3006006347008028 6.864760910644804 -0.8368706819597911 0.8332104594993844 -1.3381355253872502
Ni 6.7004852708401925 1.026158468800119 8.820246949750342 1.9270199650069073 0.8453231836025183 0.24143558570581
Ni 2.716291677613671 1.856206369870248 9.024068965398573 0.14233987055321293 0.04501204593431603 -0.12132881551918459
Ni 6.584386652122914 2.325078752658902 2.660140710557638 3.1524648101659447 -0.4902875184803491 -2.0565315734472
Ni 4.315240875059459 6.914026072439565 10.294988246145039 0.21766136610434772 2.2606661087097066 0.25482049165314824
Ni 7.661082807868968 6.8411987586486775 11.353152402847996 -0.19140268951813488 -1.779411132745271 0.4574995254160508
Ni 7.64892978394128 3.6827840670558025 8.301109369341486 -1.2905786015438936 1.7062995003612613 -0.4052855624166568
Ni 3.682647822392936 8.850716706153797 12.141318694552973 -1.8402866280744048 0.42937011416968635 0.6262379405674505
Ni 0.30391824456296695 4.944427811154321 10.263827275151973 -1.2035483021962625 -0.482541298876027 0.11544227483142054
Ni 9.010023048954793 2.593526153393461 5.600754684092181 -0.10567516814232769 -0.39621933844933055 -0.1405642667100289
Ni 3.575005455750904 3.091091662181792 11.689978274981977 1.2956457316541559 0.19270186794553262 -0.6048648742083131
Ni 1.3934014160679142 3.591372981249929 12.45130436810226 -1.1844933424473407 0.26670875845030195 1.204820226930151
Ni 2.850120268458637 8.373397154267423 7.789122817137615 2.159318364298139 0.17016229208211983 0.56027037542739
Ni 5.968488112146296 8.206497442256001 3.5811782472765072 -0.9214730885922194 0.011963085899147139 -0.45567018551679583
Ni 3.2670107708749723 8.65016456241436 3.4773134909868864 0.9764067645156215 -0.19059819133896852 -0.10007736233957602
Ni 3.7778465098264977 4.893799294433142 9.332180820684568 -1.3652912598664357 -2.375733516700212 0.8491736676968601
Ni 5.283241038770646 4.985828022710677 11.520814176673715 -0.4716336508245877 -0.04664341089015192 -0.08239074369309037
Ni 7.961901940500599 -0.040302079573652894 2.1732395256807413 0.3324150995091759 1.5618022171454133 0.8430881236244125
Ni 5.076948453235769 0.3237500176898096 1.5284607503674414 -0.17088837161486697 1.0262257449202778 -1.0272148483064245
Ni 6.350536312778914 5.904898186497754 0.23014448451403324 0.2700743324884252 -0.004485289464863243 0.15741784793225794
Ni 8.599808535018914 -0.05606013728078828 11.043778013686104 -0.4359202565833783 1.306985325036691 -0.17967177423445183
Ni 0.26644097099941205 5.060126778860523 5.799803595051325 0.032921947539001364 -0.13811786205206533 -0.9340694371999912
Ni 7.554911883585894 6.363997285470121 2.5232538811801954 -0.7534797791369604 -0.07634248061648143 -1.2967327940707474
P 8.962628072232311 1.6379878348457928 3.541656395472203 -1.6937972541291926 2.051310434257577 -1.6292584510158585
P 2.2745319827354433 3.2979292263681357 1.5326616274724907 -0.6740355196667037 1.2094088747420977 -0.67825495706469
P 4.650811479699564 1.1981446482252207 7.9046328589113095 -0.31164521395167616 0.6902944047277273 -0.22597142863193986
P 9.050042647927436 1.5970962700308045 12.717593653377016 0.7892669640388987 1.5585117193195996 -1.4679641508473298
P 6.652327324005659 7.954108745784638 0.9993346195749696 -0.5294037677555204 -0.6135449184808143 -0.04248670840930102
P 2.23514819218951 3.6292671634818547 5.50005352887432 -0.7979313245821161 0.010059184008214933 1.3917381412040546
P 6.492185347272415 4.182311498989411 5.977861744951509 1.0374576090803553 0.43362811811509194 0.4076489204425109
P 2.3846630852191697 8.779233673036524 10.31507525094032 0.7112954324594266 0.04541005270368308 -0.5171164657477352
