# total energy = -340896.03164270695 ev
CRYSTAL
PRIMVEC
9.01275971900345 0.00000000000000 0.00000000000000

0.00000000000000 9.01275971900345 0.00000000000000

0.00000000000000 0.00000000000000 13.19108487248183

PRIMCOORD
 96 1
Ni 6.440995552866567 1.8147551588699617 11.27674114452498 -0.9127634766333635 1.3120257156740758 -0.0341884729562508
Ni 4.559942535753673 0.12773243150654393 6.014303582695145 0.11448556734510605 0.666828203284987 0.2741464456752698
Ni 2.732046773659378 1.3739771470117699 4.881228482036739 0.35241802499366404 0.5719496115375311 -0.5953039699927554
Ni 3.590440005684035 4.349629794848449 4.980412998102215 -0.5373757302174036 0.6390687737835317 -0.5454255971050735
Ni 4.996151078589412 4.633946303294826 2.489975772410132 0.23100564862173764 0.6136313075470335 0.4977614582598911
Ni 7.304237649455485 6.112642701927671 2.5288496063108137 0.38048752953637055 -0.9865896185858944 0.16755493636625984
Ni 5.115489025978572 4.580861150351532 11.488089451486774 0.3014734156249969 0.3077044841363733 -0.12902592705312618
Ni 5.489924115796766 7.698816256562008 12.327187266883875 0.3784057073066774 0.8796630945349688 0.8351639836813294
Ni 1.7897537642579586 6.612724670724212 0.40704685847863775 1.1876126048026128 0.3493918365728305 0.2464718625781368
Ni 2.6982218875819273 1.3957429609944618 0.26880554949639246 -0.020652386143028948 1.0969130841335109 0.44811037089166705
Ni 0.5783136217783896 8.973148335502291 4.65604378682392 0.1575947398297544 0.3760793731663459 0.32377542155630695
Ni 8.725054107137254 2.379278357470332 1.3763970729141934 -0.7757781855238446 0.1157487503282458 0.35952326857987754
Ni 6.7043123318803675 0.7708081373238699 4.6873856576830555 1.174060834260107 -0.6579674104602475 0.5172164816607092
Ni 0.7883613875568681 7.409650883551371 2.572327157719719 -0.008223930571689061 -0.4383232095979161 -0.22087704482816797
Ni 7.7440332705376465 3.5751543657193787 3.8447133819027086 -0.11921202628649794 0.992597258232555 -0.900895521551184
Ni 7.679042262409616 3.934096522106414 12.571934156402877 -0.5873554045696401 0.0787804006340127 0.11476607470000234
Ni 7.887768757658131 -0.14221863971125648 6.806771183440633 -0.530330650445164 0.23929231411056207 -0.23169213316580098
Ni 6.611877471339378 0.8473580093992298 0.3884904881229589 2.668933122352191 -1.049288283166696 -0.33315352033709716
Ni 1.8788448910566793 6.46758319313528 9.310003823671527 -0.15623899713280834 0.3042484072669728 -0.6808211751299694
Ni 0.2533351479637669 4.8958030152837 1.3775056423220076 -0.49518752688512774 -0.7072816833143432 0.8772051199127796
Ni 6.295538628698175 1.9929554379862289 6.982964321035597 0.12189882909004167 -0.34386627876891107 0.2275642270403565
Ni 3.3770449010595227 4.34683583943038 0.43891327193561663 0.2828046355709001 -0.7104443973130409 -0.005613746642351623
Ni 6.121168772332485 5.608144481018701 4.601776159845625 -0.5345066361997246 -0.3260161379613676 1.066763042912692
Ni 5.272365116323391 3.041887416763719 9.218655000639819 0.5417478911431702 -0.8140886510682689 0.3224315059339028
P 0.32982914093076543 5.577212690712861 12.495320293735686 -0.7574202518419472 -0.8351616696884842 -1.6955162937028283
P 3.8449873697888672 6.152343907142478 12.7036213867399 0.7139958621097251 0.6313487794314546 -0.698193604970146
P 2.358134423887145 8.519130580066221 1.2711667978343937 -0.5959675717186833 0.30868638843366836 -0.1798368390574064
P 6.32773220532185 7.651877805538464 5.765176492101365 -0.2459229320532023 0.21748370287590282 0.3932916232795743
P 4.71190667221834 0.8433707646348642 12.508089571272198 -0.127008125292149 1.4820658803560347 -1.2230976850831
P 3.941036346854519 6.060026212473859 8.275928477510629 -0.40234396328982963 0.6322970022773369 -0.34411464733429126
P 4.711257753540594 0.9622382459826603 3.896356493339903 -0.5357749613891869 0.39797231658469523 -1.0400220273734218
P 0.21044612974453863 5.5078144432318155 3.700442536873084 0.11429119194611283 -0.8193370439514019 -0.4944676179999678
Ni 1.5891477652406676 1.127135692205158 2.6181272972293863 -0.9646059152259516 1.1539056994684709 -0.9571191199306031
Ni 1.8051836083732251 6.471062118268745 4.803625919661926 0.6681533498543137 0.21815990300732108 0.18370069288818683
Ni 6.003561274750644 5.570507197709499 9.051774747346434 -0.170540501357145 0.856061653065945 1.1569128617259108
Ni 8.533569020646045 2.4192048816704665 10.142664726295777 0.4448157593007952 -0.052779348584560716 0.3318941940086994
Ni 2.2887271636466853 5.2744290382289964 6.958929995508622 0.2030240758071471 -0.47623309726981206 0.5794598038716472
Ni 0.2398430471223218 0.06002948407110551 9.46307292444024 1.4858047785731765 0.5041249385840737 -0.6146065269761093
Ni 1.5741685590960572 1.1335257386290623 11.448436915172799 -1.3329215852864786 0.5934802865204553 -0.729877309226672
Ni 4.080067173561353 6.964618849250185 1.69457902485538 0.38247473516972835 0.4827600997550524 -1.2765118390381822
Ni 5.314517792098567 7.757777728642659 7.9362970594421505 1.3497846795904045 0.567388731639726 0.9958594739235945
Ni 5.403329523355481 2.8915095259557626 4.828319077902001 -0.34103086620264494 0.2165079692261949 -0.29501171916005325
Ni 0.72507469223386 7.573971513171429 6.9814474736263685 0.05427007419747428 -1.4046417366396002 0.3250288343474338
Ni 5.087414280406694 4.481991179589572 7.151176660170242 0.5760636337059047 0.4046386728612773 -1.252899598935881
Ni 8.085842171280335 7.09707036158544 9.063870771754786 0.00452231335038576 0.049860375165552834 0.1947466662897033
Ni 4.641877531578373 0.17245284243851877 10.375882493973512 0.11339053450871438 0.8476189216152306 -0.7568116717236708
Ni 8.136890440596263 7.2213022373359275 4.537996466582718 -0.6460230936141778 -0.1693714207497083 0.8315222731636841
Ni 7.427793568249988 6.078700649977851 6.94765142837904 -0.5836005655128982 0.04648014583941028 -0.8221588296709131
Ni 2.4225486154127354 5.379986476475492 2.57780150778725 -0.32254360603173476 -0.7584888023157775 0.4207425204016753
Ni 2.329419772396936 5.319655064964047 11.33664264741242 -0.5697667449535994 -0.9829988159108425 0.8581113365061221
Ni 1.286544367945064 3.351493728123319 3.760343138484582 -0.07903108319223807 0.4047608002614384 0.17814839561138998
Ni 3.76690082223357 2.730136068663796 2.6316608567641318 -1.1035827828442026 -0.9189058420856755 0.3450574708635348
Ni 1.1114985546233898 3.106382723124027 8.370455199511403 -0.06954294119614475 1.16443745223773 -0.5890510471045081
Ni 3.687831883902242 2.674797725867221 7.222738871186379 0.3945110975089722 -0.36504625528063583 0.029691099306529516
Ni 4.180415236867065 6.74166120688835 6.041028216906938 -0.3249822973802145 -0.5205823128091486 -0.5403952337700176
Ni 0.7002607630176498 7.43025405156977 11.375727379883369 -0.1352027452877994 0.1057247904333405 -0.0037013601109871738
P 0.31761865447786647 5.553175661358063 7.980064821704158 0.09242318822842792 -0.15213808759055736 0.09379924264034813
P 8.425965686012768 1.6757423576819532 7.9307172600894855 -0.1935721863656279 -0.2978543308151709 0.3977889969292956
P 1.77512605573046 3.1428032839124573 10.533661662811525 0.36538358401539656 0.39865494447401667 -0.8676992373048734
P 4.002809799872064 6.376392093393302 3.799546839379784 -0.6601109391658115 -1.846826743185768 0.4946283119475481
P 6.980012642327799 4.079237999695346 10.33303853955135 -1.2238366201316535 -0.8150952379559123 0.3886551529488274
P 6.267815380743409 7.570240230774396 10.233590850911009 -0.060612728586050456 0.3715082088558957 -1.129738615303964
P 2.3453182800016847 8.404461242053058 5.781454436877406 0.7027678546043897 -0.046911576949874044 0.36084918648015274
P 6.869272867418757 4.028595304553009 1.545783774600368 0.6192252566950432 -0.38972216076076105 0.3139514934873496
Ni 5.3284875691889075 2.8569095425687836 0.30354703320615756 -0.3047698269880816 0.7091434191134304 -0.04251601898533968
Ni 1.4146517302431938 1.0535645371158353 7.113002216400018 -0.32381270255214556 0.00138351061108794 -0.6351748380457641
Ni 6.989367886598621 0.5073264248128091 9.155654911066149 -1.889198266173443 0.09754816815981909 -0.23374078816471355
Ni 2.7679445944018464 1.47922815143822 9.193302108410704 -0.15691108349916846 0.09935771056473211 0.6706815155928062
Ni 6.21734392802992 2.020146933135621 2.5894622159159484 0.9177419036845613 0.5422366578541307 -0.35481223625745345
Ni 4.144841875463468 6.8772401467399575 10.576282100800244 -0.5004256353556156 -1.4941058422397042 -1.809420791733484
Ni 8.120982920232102 7.0116564406272746 0.39650914017281436 0.5961660608827346 0.9993181218961563 0.10701702688220278
Ni 7.572998135154812 3.799256628526681 8.127950684534387 0.6758106092892554 0.09875427265277832 -0.19097280106956788
Ni 3.0320184452063494 8.340353484347515 12.135652610215892 0.05007146273509441 -0.5943997130109311 1.3791327937352182
Ni -0.0554032346643495 4.885285125048585 10.113947370977744 1.5748405383866104 -0.06925523475239685 -0.0502817789736876
Ni 8.67912508516798 2.279633289398844 5.688246281578772 -0.1343313984264396 -1.432671389083307 0.5099384599420572
Ni 3.8272051954667754 2.628120644866657 11.342538794620486 -0.541307461171642 -0.5225060121944227 0.2346257618728282
Ni 1.0981506579325546 3.3614257889965806 12.617074561923504 -0.06216336090262197 0.2948877919876792 -0.4237962196263346
Ni 2.8738805685436937 8.274362059924627 7.9617824392346375 1.138257965628885 -0.04134873815011589 0.17583414565591654
Ni 5.64958514880024 7.7905391091093605 3.568478614822079 -0.24625563280227267 0.8383074144063174 -0.24244165837282117
Ni 2.900783655391866 8.45488763096948 3.360230697098401 1.8195475957548404 -1.1498425851426908 1.2728914686767756
Ni 3.243827304174152 4.301645863732982 9.262014484900412 0.17755241389860388 -0.5698773023895347 0.1733111221237467
Ni 7.371833345053907 6.115481721142805 11.401832837523479 -0.43208545621832034 -0.08019630714493285 0.10425951874172368
Ni 0.3045816979867841 9.133169878882288 0.21343746459375415 0.5166798924309489 0.05919450808228515 0.4134285032387654
Ni 4.6471499958350515 0.5810291661895635 1.428409707487326 -1.4964589158529131 -1.5089889299991237 2.2215110357767998
Ni 5.993259690741445 5.776592954449969 0.4304016219458633 -0.7175249583089063 -1.7311013898962895 -0.35417717377661584
Ni 7.670272847500647 8.777986043170525 11.465651285651862 0.6693437706179891 -0.12312858773208472 0.16706436988308646
Ni 0.16513808689882817 4.50795693945878 5.991456237582878 0.3885877900460017 0.9348435963618544 -0.6202269584866802
Ni 7.902189172719128 8.780960253776856 2.428781839822851 -0.5207234663727033 0.35428978809508016 -0.16496532126221267
P 8.57958817020945 1.5278610012314315 3.520080096773608 -0.4125980369176701 0.5683163856603181 0.044635893541819904
P 1.8544834023630077 3.17594320027451 1.4682208683669729 0.2927128958235475 -0.2225642027226038 1.6297251062396318
P 4.6717638417922895 1.0302575412734993 8.26759167505349 1.145006340096312 -0.6559280114327154 -0.36810766781477894
P 8.381740075572575 1.8493461294975277 12.324443782918522 0.16740941192733103 -1.6544058968157638 0.6082867554056685
P 6.252106141086336 7.710604945874373 1.310278568583582 -0.04671077379297762 1.3482854693370585 0.8119538641134533
P 2.048672316678155 3.0270884658073713 6.065062542433913 -2.2778649890864964 1.6050103771017714 -0.8565925858687506
P 6.963690535030634 4.001755307020728 5.931859365963603 -0.23275991230868304 0.03499040003225587 0.2140646498920249
P 2.2634103224552233 8.52862101572824 10.130805737459989 0.11191343574255565 -0.4494365459022583 -0.3556013078176521
