# total energy = -381164.95865040337 ev
CRYSTAL
PRIMVEC
9.35620358989506 0.00000000000000 0.00000000000000

0.00000000000000 9.35620358989506 0.00000000000000

0.00000000000000 0.00000000000000 13.69374969336867

PRIMCOORD
 96 1
Ni 4.597039533598873 1.1027408402987575 12.706758957616959 -2.3846210489978286 0.050221872270029645 0.17537391819004636
Ni 0.12528704793973125 8.649866142618004 5.688616552049669 0.7168081347475396 -0.37813728413663905 -0.655392964864852
Ni 8.885932509568997 7.302591571328356 7.289922336359931 -0.7123848088688635 -0.3724744294239069 1.556662581926003
Ni 8.378321052529675 8.624791517615877 3.312462752258573 0.9957370894131173 0.004884838896127071 0.10361725717203445
Ni 2.6227683504090287 9.19517374299075 2.6589562737609787 -0.3540589030311967 1.3418011471642954 -0.2681462622277769
Ni 1.9739062912588432 3.1261695159368013 2.9714749852193894 0.2916775125804977 -1.3082981303108436 0.4419713478734646
Ni 1.575799838333285 3.981906587557892 7.620996270319916 1.4042481007456074 -0.276112311152389 0.6963902332128201
Ni 7.768380799352939 3.58458605571449 10.521619534362586 -0.35939034254643915 0.09902835224977137 -0.40054059153250376
Ni 8.215354702422568 4.893631180079253 1.5096673861308474 1.4598430644020923 -0.3202717792784226 -1.2024866937009677
Ni 0.4994893369033738 5.840684796484209 9.01040463219616 0.4041650756589685 0.06363454613150976 0.1305019973780204
Ni 2.267831419781908 7.486983627127579 9.553855026202143 0.016374841813597607 0.6576861317744028 0.31676556589737703
Ni 2.1868909045231772 7.4681870145793425 5.480088298445228 0.519323500701383 0.7736626818427386 1.614249379201536
Ni 2.0300528676162175 2.2028058064368405 11.63200439280565 -2.5824214145121913 0.651538367005452 0.1228334250891691
Ni 4.501943082657971 1.4680818690610888 2.1389085512168684 -0.33027285635519255 -0.5121367531449567 -1.2632300343276115
Ni 0.7356838838403853 5.80896726709719 13.630976888483596 0.23598638966578064 -1.328867726932079 -1.5184881277388107
Ni 8.511749868632409 9.207187108103708 8.786785758193984 -0.07045928236282703 -0.5941665139542025 -0.4973894196324531
Ni 6.228396507477915 4.432332929666992 2.2002571766418484 -1.291829443231859 -0.18601751394682156 -0.04753506946648588
Ni 3.474145431264824 5.570748973373627 8.97578667976785 -0.44207650599276127 -0.7838280524115145 -0.9581491038570145
Ni 8.321500829530452 2.7695858935184967 0.4292410908433109 1.471411743076298 -1.3969443679953424 1.3998391730446342
Ni 5.779766556413744 1.354609834723106 4.060538927447957 0.8419907767951758 -0.506940810766314 1.4241816064447408
Ni 4.629168735933687 7.419834155620017 9.813913505426624 1.2610543668325314 0.20842493510774426 -0.08368169459037202
Ni 4.7445681481636255 8.666445334970158 5.40809979856039 -0.6671135957358898 0.263139810152121 -1.0007458554816182
Ni 5.482894223832593 8.526336189669093 2.799043899794316 0.7479051132626604 -0.5215439053914696 2.595933590066013
Ni 3.8621191159525825 5.9583858347404615 0.4136770465556102 1.0898168394083618 0.11875899790947936 -1.0169831432760872
P 3.882553064088644 0.4262218440193608 8.598346208821656 -0.0627868534192338 0.1417624007831881 0.4076664039440076
Ni 4.888625611282187 5.338359594342721 6.884422611540089 0.39750848957439927 -0.2754227412845321 0.33234310862065986
P 8.327264250799596 4.838036619720061 4.562908103745232 -0.31044965098167826 0.47288886338792757 -0.21036817487704415
Ni 1.880540737939357 4.282727237956541 10.254550451961203 -0.6441852690744905 -0.06303059399892372 0.6569937336930686
P 5.0265079801838075 6.306071707764355 2.3304300339756505 -0.18309005588738145 0.7970923736205885 -0.5102133108699987
P 4.795381688606367 3.9112204711806275 12.189203727647685 1.8394703028206967 2.742062495348013 2.7653433202528244
P 2.990541992044701 9.012568722033096 13.632072499896935 -1.5647016501803954 0.7033952037757434 0.06263001612639536
Ni 0.7537535193876269 5.118021005238212 2.8885453411265347 0.06328796142536842 0.6769285249437825 0.595631014314871
Ni 7.288267223985724 6.701249669038544 2.762453659697929 -0.7759730751434701 -1.3081433499005342 1.3144865185097427
Ni 4.153031546994049 7.860109017084599 12.208251086445943 -1.4790443199208914 0.7347672903291217 -0.08848965750197663
Ni 5.490725366044078 4.085498471148768 9.821307712941245 0.42694479255764534 1.9041307191135592 0.09152175946008108
Ni 3.9735327855515847 3.1270489990525476 8.053978906886492 -0.20957036156609715 0.04183853330234085 1.3540323991231646
Ni 2.4916972975527623 5.027378107096195 4.6641047992762035 0.5363773708598762 -0.34799469911498776 -1.131953877787728
Ni 4.815881130165943 8.465446018208706 0.7955476797922914 -0.17281875586836043 -0.2174582489546061 -1.3842323197453128
Ni 3.5077154889169253 4.605310417368231 2.3058222835211377 -0.06043095159254753 1.4905795742540007 -0.5206836142737032
Ni 0.2645139032640404 1.6676590429119722 2.6493437104299393 -0.39402541612180525 0.08590004239792948 0.4903006311064717
Ni 7.721038410356385 6.337555332067398 9.824662847465783 -0.5101875998383858 -0.04031386912769831 -0.0783242869332006
Ni 3.782769155264882 7.902558111724394 7.384546299031203 -0.5649544111666206 -0.7881685887683975 0.9722654886537384
Ni 3.1983713372582243 0.9614715257811782 6.537135312779289 -2.9238027220757195 -0.6158020899461072 -0.13255887990704912
Ni 7.290868248519526 5.764048134770619 6.506256099213237 0.3937497938629154 -0.3817851653018715 -0.290208641344455
Ni 7.622966686747321 0.9069024053101319 10.77925382129675 0.33564903306544136 0.28253801217307467 0.5424590582775819
Ni 6.220322103979097 8.507595714341011 12.241102587680073 1.9989663734382217 0.079722709942624 0.05914925666664651
Ni 1.0616016141292235 7.987166258699854 12.944618908751872 0.8197499631191043 0.6073264483749282 -1.100056514858499
Ni 6.622199106858333 6.545001072943203 0.5826566285615474 0.1375571044525889 0.8228368295745442 0.24028964502682487
Ni 3.6222260618277575 3.294047872807384 5.7797347453223225 -0.5950291190648139 -0.619420660535301 0.21897879936419062
Ni 2.3721437310314277 0.12246053890497657 11.38795437752842 0.24259952410692415 -1.9267016624355398 -0.3746524109118322
Ni 5.127891799781959 0.36103904645786195 10.50669358314397 -1.1123307042401616 -0.21541422194138385 -0.4911652930996121
Ni 6.959948691914965 4.094106178239051 12.886393384008128 -0.8823133876736223 0.18365004215590952 -0.1355884107619923
Ni 0.43133688039572754 9.305876341134468 1.2192349283216983 -0.8310049672076334 -0.3697742568839244 -0.4080286723794328
Ni 3.417081946978268 5.925770109830978 11.542105312830675 -0.22999649063093294 -1.561319878192356 -1.050577691402081
Ni 3.87264484473146 2.897363562792394 10.849899705999572 -0.2046652109549959 -1.9152317141227273 -2.8530436490842863
Ni 4.76835161710221 3.6564323413082707 3.8965153263612833 0.36799351083441784 -0.8292936409434815 0.28821320818098106
P 6.973374843735134 8.360319717266952 10.090047813262547 -0.8820310805465131 -0.9206253958799434 -0.32258680056484446
Ni 5.83992694401213 6.080184890067956 12.268134530424902 -0.9423378478563706 -0.6934033826703542 -2.034071444671471
P 2.723066850417536 5.6194105870438 6.709348398666098 1.3585696248718862 0.296446908944683 1.035269600290101
Ni 0.24291885029112661 8.211499946638659 10.633634807837574 0.9187214939890113 0.5110933994821069 -1.080885855467319
P 3.642753571997409 1.317475063591225 4.069932555620396 -1.6233202311545525 0.1513490160303587 1.3915429944741131
P 0.30644747109875387 5.718782822919765 11.476292842783113 1.4639863971465046 -1.909850652316472 -2.426246180737783
P 6.154248595857821 2.531910259589755 1.140492185231997 -0.20161588260571084 0.8068062584742428 -0.2238433265453435
Ni 9.214288466453192 2.0283500386048794 9.340890060964862 -0.4769882302682818 0.8996793897558958 1.1179663052593845
Ni 6.71414251726725 7.444740368961682 4.878000706747704 1.8142531801251205 1.6012215994833003 1.2674469006224365
Ni 3.097895069385896 7.130044468981631 3.4647377687873466 0.9097640276854074 -0.9945775218873775 -1.3455192194458312
Ni 6.287134752165733 7.87351645649805 7.463970173725439 0.4878562833310372 0.12961753789053806 0.03647084123252428
Ni 0.7097494237495662 5.667697952579611 6.079668427642539 -2.323465560534431 -0.3813046261210272 -0.15679049876090417
Ni 2.142364732737684 7.30442538718672 1.1455192732967892 1.186823533242414 0.3291924788068202 1.0057692768381388
Ni 8.66255315437281 3.901424526263752 7.698885727663275 -1.6291365807260134 -0.14782249093433897 0.0623947601871377
Ni 3.932225147721588 3.0004127865884485 0.4912315518187182 1.4999751565362878 0.1885773042541978 0.26486939124871806
Ni 6.741266150804998 1.4250433336096773 12.991890190602895 1.3662245703139826 -0.08112653226868609 0.011605702559728402
Ni 5.220957954593957 1.4554229259163585 6.871290244505392 2.92888322192242 0.6645329794929071 0.34838807789866455
Ni 9.38455265518032 3.541079710095128 12.178754719736352 0.8819251510962682 0.4589048904040096 -0.22218239390315284
Ni 8.394497928137389 1.01201373632651 4.880616701206882 -0.2532490334009703 1.5810924328335931 -0.617217482236395
Ni 7.296725231822262 0.9130681433237144 1.9676133088795782 -0.057277750675546524 -0.990931440494358 -0.6160373458853647
Ni 5.032785992637698 6.125618613579272 4.509912696679169 -1.0826475753534321 -1.2502457062528018 0.051124843700273245
Ni 2.196593287406463 1.7975979951617993 9.364210397837176 0.6824893068610117 -0.652253905015238 -1.0925296103538347
Ni 6.747123134107734 3.5937925598197484 5.4189866767889265 -0.8671443932426679 -0.19831227215377462 1.7134615653273393
Ni 7.620412443230314 2.705785942813458 3.5348774828884455 0.6543298137076602 1.6796942390689071 -1.5857834105513593
Ni 6.268674962938421 1.8555783873775382 9.184233534403068 0.24798495678855356 -0.021837407590065618 -0.5759119386193888
Ni 7.7830700386265725 1.3379838613541586 7.183932457848142 -0.20586360213847127 1.272262319733209 0.5722789698524918
Ni 2.540143718545677 4.111153180759153 12.895910514064905 -1.2292765602003022 0.8968468054031071 -0.4221702539871374
Ni 0.235664050206556 3.2477533785870394 5.33264763219205 0.06155323812244883 0.11961568948281981 -0.04439858072003321
Ni 9.29984158996791 0.6155549108124722 12.382627326549354 -0.3284859396580988 0.6349650360278032 0.5291453718878113
Ni 1.7862957015041245 1.5241723081983092 0.05573116092823455 0.4545756669010365 0.5389194205554396 1.3966034397161562
Ni 1.4849885285308064 1.218804542967184 4.899966265373635 0.773567551025771 0.013659499764963572 -0.67891110259145
Ni 0.7396958238407256 1.725770421974737 7.331017588373677 0.5628720747162952 -0.09168913827588081 -1.8571756905202597
P 6.283354846008696 3.5109901600925757 7.887134410487079 0.35028889446580314 0.9996063425605367 -1.8028045719685468
Ni 8.372679261904196 7.101901009277752 12.113628059395008 -3.0751810486821167 0.5253146852878113 2.139387686812483
P 0.8680245734924686 3.880279506672406 0.7260769342313614 0.4505714308376498 -1.6281001690416992 1.6679337560988692
Ni 9.245425911231953 7.002042250827118 1.551666447389074 -0.9824565702541274 1.6926865375635172 0.94795108027809
P 7.681620725604908 8.879111837320284 0.10101331394513505 1.034338346725083 -0.036949066420523466 0.6296006863920963
P 6.65711645779413 0.22543678431483036 5.783897320196743 -0.08854210800646686 -1.5289414618616508 0.002063567397248059
P 0.8655582782870355 7.3723607797764386 3.7044876730007794 -0.08814564389899658 0.07285143674408744 -0.5721974658822792
Ni 1.4635441104319726 8.900500118198964 7.724822058994767 0.13740360959386014 -0.5761518225443368 0.18827802784622413
