# total energy = -340865.5117692648 ev
CRYSTAL
PRIMVEC
9.28523627562329 0.00000000000000 0.00000000000000

0.00000000000000 9.28523627562329 0.00000000000000

0.00000000000000 0.00000000000000 13.58988185543696

PRIMCOORD
 96 1
Ni 9.083737545484002 3.9826143380208427 1.4958246668335455 0.7416149093785744 -0.07295248109832597 0.9780769531291931
Ni 5.994836502161794 3.0978334407985977 4.722117497035856 0.6365007559460393 -2.5506050413325427 -3.732557362525584
Ni 3.0680556874651415 2.1549083928516555 3.509342121460939 0.33305299020349094 -1.806220282518315 0.14648705995236708
Ni 7.152241227143197 1.8670103511125993 6.4057815689708955 1.788984635366319 -0.3019588399018477 -0.9265402187024817
Ni 5.171356736061308 8.100867410277774 12.4166945295429 2.1545895913639024 0.9593575223428186 -0.8677455171617765
Ni 8.291131190619481 8.80688893513466 5.501863799400582 -0.5276268783607558 0.12194176651283517 -0.4248408588407651
Ni 7.103048044367814 7.180421919805199 4.059094045186942 2.3107311436868976 0.10135597194168351 -0.4012121636782316
Ni 8.147989985322143 0.10193982554475187 12.704895269990617 -0.36631997978673686 2.2399389034646844 0.9038641172612046
Ni 2.473094875929575 7.414419163882667 9.219906466722067 -1.3483556604533617 0.6616268615897056 1.4502477074041735
Ni 5.0834255467666924 0.9725170965511601 1.4223849460850868 -2.369729733708293 2.6811162946819436 1.437472410016376
Ni 7.636354885796068 4.004852479347201 13.279869610041848 -0.27798587402601804 0.9456021204299393 -2.0173433332835127
Ni 6.663373527421811 8.885646310804875 2.1208640733639355 1.85424489002671 -1.5966949152575403 0.10689849902646752
Ni 5.651904863912792 4.796855293841695 5.881673611305491 -0.5024907454147605 0.4834103317445417 4.106867816716966
Ni 6.693206992174039 3.514666276048218 7.845125999453724 -0.8642207918379696 1.8383683280057694 0.8053985794934388
Ni 3.7924619805166784 7.950075170135793 0.6720932708249406 -0.5784236492976489 0.2997690313393805 1.0415490055409093
Ni 2.115344000287309 0.04931946199126527 10.95606740856565 -0.20823801590791877 -0.5488130255200677 -1.4354646355577279
Ni 6.7612213492577835 6.67287232432238 11.00219182069036 0.4289926762256096 -0.7667919228648342 1.0893463275298465
Ni 0.4769593839589425 0.8566837716884005 6.668758964569739 -1.043217651492584 0.29632580998578645 1.5548414695568642
Ni 5.053805642453089 4.166554872331966 11.657917076680183 -0.5570832359486599 -1.0357642805383322 -0.6940775259192433
Ni 5.644030983393064 7.163541359917384 6.4267504184729045 2.4450221757937056 2.922111193305909 0.07828572038578131
Ni 1.2484278980178458 4.877246871129211 6.552579300386949 -0.747550558136719 -0.6593830598608514 -1.5596106088107333
Ni 2.6998867765125736 7.06716989067886 3.1392223823277163 -0.5796827185157308 -0.4574118507982509 0.3955847901891252
Ni 8.593681335495488 7.003788866589626 2.1744900280262507 -0.6939363723556888 -1.4205427241405728 -0.08554805837514945
Ni 8.990086650528829 8.141750306419716 11.232146272812297 1.7114028830260974 -2.6451619880745216 -1.5295551841862496
P 1.738363399932356 8.559502380079069 12.861831551099467 0.24421366267157943 -0.7539747164955078 1.1769052456874376
P 6.491123105816276 5.435206015363928 9.109379654497308 0.08162224095818202 -0.3634948516331159 0.6599119357811281
P 4.666954835739088 0.08589772250945009 10.59343528411534 -0.8125148788232458 -0.8017648393955934 -0.16266624081539083
P 0.22333315000092402 6.720700577337857 9.123010381623443 1.675452433073418 0.702130735241023 1.3113135200983996
P 3.7695831578744468 9.26918228810196 2.711439467718525 -1.3198488112629205 -2.0695493258631066 0.9794566070855388
P 6.163112842561618 6.754210995729015 1.6563079082708587 -1.557736274606156 1.917240259912324 0.23868939041924056
P 1.6503115025637347 6.348882568455744 5.040609464393373 1.4081170967827106 1.3622581294670668 0.32418576962084816
P 1.9656102771019897 1.2442959677922802 5.340620097097037 1.282204004326953 0.5270450377153568 -1.7066023763136609
Ni 3.923021690408082 0.8254055241426936 8.432223144229669 -0.12714156554621975 -1.3092900619104677 -0.4888240465609453
Ni 1.1392428024618384 2.0077652506392183 12.187052989889732 0.013149135787448321 -1.1857920066541061 -0.11005581370852657
Ni 5.623009208043221 5.2337442398491145 3.7808953614560337 -0.30045705854534066 -0.6783583154117737 -2.2088221274552216
Ni 5.082088472716173 3.307178382069602 0.3630954577497613 -0.17450488532153172 1.3820913621429098 -0.9679375507023459
Ni 4.253715387000241 5.9287441890256725 10.205417323178072 -0.28516362272137985 -0.6520777844486898 0.6629268113480519
Ni 8.100431004164063 1.9012543031842513 8.736921892822968 0.5216387790981211 -0.19089078287872285 0.4583294775165139
Ni 0.9189570670677247 4.135588608731381 12.95305992786172 -1.4565787918285236 0.6206517047289247 -0.12355590507749044
Ni 9.239803799936368 5.588746685498645 3.941595877426556 0.6005189385347915 -0.3953572475593514 0.008185364024269774
Ni 7.94505185720988 1.6192988127808394 3.5983429699959704 -1.7143694218535896 0.7317562714169398 1.0755508164076508
Ni 7.614803851967895 7.057411107157356 7.955652811678482 0.4472194836462814 0.17114033972467302 -0.4240587292591019
Ni 3.2137224770801294 4.377060468160714 3.91618311375386 0.10274539609004242 1.2536704156636345 0.832408018202747
Ni 4.434016108618283 3.5169504442178563 8.727544732520052 -0.5558555341891459 -0.09273120638714998 0.12381610071741257
Ni 5.789047806455716 7.7186499365582835 9.190728539664052 -3.143823846661495 -1.3027910844496855 0.05170848411788514
Ni 4.693436330128554 2.3600656924783228 6.443710831394293 -1.195055177123587 0.32377413600472627 1.2195873579369965
Ni 4.042262697052375 6.186130943750778 5.393022257593667 -4.872985082112279 -0.08910929336384653 -0.13546885446499252
Ni 4.671681021098218 5.734097777073927 7.9545924376745285 0.24886221718718435 -2.7295167974725185 -0.6628836168149422
Ni 5.499942683976606 0.655650974098129 3.9592489689880055 -0.2731087484393748 0.4144242914931315 -0.6934681744700186
Ni 8.7176021013166 4.923245932561685 8.49712787562231 -0.6486142513801216 -1.378484361517942 -0.9837418647244541
Ni 2.3050228107319146 3.721067797360786 1.7671327765860452 -0.2715486030411065 -0.7357124278512103 -0.2273220291225633
Ni 5.763318416219668 1.793712694482008 10.106713402540308 -0.718902041162091 2.6100620590475954 -1.5970929220269074
Ni 2.9753147456832383 4.996525018719352 12.940217517311204 1.2912727993974407 0.4368049731811767 -0.13971940221123033
Ni 7.223031869929063 3.8395381293787376 10.733044385462554 0.06641622264170498 0.881770627796275 -0.973350494187801
Ni 7.045396011175599 2.5094094357322407 1.1507778517185123 1.621507603425846 -3.0414895699669424 1.6746931863098902
Ni 0.6924297957238918 1.9679223009810138 2.6351055387648783 0.33910716681737085 -0.7260018854316658 -1.8096128531396318
P 7.967317854245624 3.841748015656681 3.4615602946277715 0.32733768498626853 -0.8039826729825185 0.39563595514203476
P 2.5240522536327274 4.139321273789084 10.567220276012332 0.8230875121327695 0.4776790856877192 0.4064615850026291
P 3.4784445686101715 4.2104554703240415 6.463918291506423 -0.28370657855987913 0.4718797053971228 0.6828407766631595
P 3.7636963179575735 7.474225371934052 7.685295510139686 0.2980386789118351 2.4605187287674077 -1.3236733272153332
P 8.6198099908994 8.973113238276394 3.2422337241601764 0.7129147132304045 -0.9894684827955864 0.36348610988236757
P 8.370640670443114 5.465475886229868 11.985460292540804 1.011471983649871 0.9255058639006963 -0.12478180706479156
P 3.1120305673489113 2.9398637128715333 13.463183390891789 -1.6047069869287394 -0.6122588526795391 -1.0293079833900274
P 9.112493922806646 3.054007124698219 7.110253387862283 -0.15249829914345348 0.4707857010019957 -0.36500768873321654
Ni 3.827727308599144 5.539646355087882 1.6905407180587562 1.093292199551472 0.21486040632044287 -0.27572613145756386
Ni 9.009752781355228 8.875469691642582 8.875837387006476 0.10057255680843968 0.8400369955029144 0.46558538774797875
Ni 7.547829441367887 7.273617838173737 13.530997186867957 0.2500135571828081 -0.2271312532679959 -0.4170478451589075
Ni 0.28468906401780814 3.632217369656437 10.244515596872029 1.1893712393649323 -0.7942729018939225 0.8772979367369019
Ni 2.810901063651584 8.576875057499366 6.1205019639141085 -0.15696173423144583 0.0872699261622626 -0.8475731559789595
Ni 3.267660415687566 7.052053525718814 12.02227532658877 -0.7871486321443153 1.1055460772181605 0.0556795529504912
Ni 2.1159846816031833 2.500272763053687 7.401131061981978 0.4920124715912559 0.6317429295460797 -0.062225581599125085
Ni 3.284299559427371 2.08536197175169 10.259056277171434 -1.0974568724521228 0.8127046262365487 0.3882897991896087
Ni 6.498077747926272 0.14360453859678995 8.03152526437997 0.21838950251962388 1.048582001128291 -1.9421131118946036
Ni 5.820617610426327 5.6691289775497005 13.263154327363056 -1.1084293123032265 0.23032379206336462 0.32528414489134944
Ni 6.878670305264921 4.888379869647084 1.8453432518286514 0.5208659054878384 -1.5681471855268347 -0.3203473697113644
Ni 0.7301352839485566 6.575758036166901 0.15493159855671626 -0.34892183891494744 0.8522314806865774 -3.1569842953028533
Ni 0.23533896074621846 8.718140645031394 1.1481937704111531 1.3213338804488792 1.9320755251529433 -0.858289256844883
Ni 0.7777425483362392 7.586781008325746 7.206415939280413 0.2569655630206091 -0.9468704456194017 -1.6825453353644573
Ni 2.08264139746834 5.027862691778416 8.5939831056805 0.7256061926551439 0.08460754883875106 1.521138420877464
Ni 1.3882078477159607 6.0755809184348655 11.089452615912425 -1.4764655034501217 -0.8618512631645285 -0.5057473046788452
Ni 0.8716757144798564 3.119830165976945 4.648133661430727 -0.30047891292221157 0.09676809546068496 0.668255422649817
Ni 2.73973901140724 1.202270987565519 1.0782685116635402 -1.960063268615121 -0.7426628910271146 0.5695685128998642
Ni 6.974605368389733 9.258652829954116 10.310671049616092 1.7960744523335648 -0.9194303471305777 1.761569990798792
Ni 3.693174947029104 1.0437812863965854 12.459896877753039 0.9327748867582838 -0.19038376133531726 0.31473747972375477
Ni 7.816312053665017 4.413198608470603 5.60638399215811 2.1236944444469428 -0.39745398218738004 0.5658008183273159
Ni 5.0488101852365626 7.377268932798426 3.808170743562996 -2.777396908983249 2.7421239447135677 -2.0567627156213995
Ni 1.5972278057107971 9.162578488282374 3.46124831068265 0.1104363369763969 0.8312132265636974 0.4087897189151734
Ni 6.630141666124511 2.0599389943188853 12.207601218180017 0.0150581798847031 0.20286775273494093 0.19651944191940995
P 7.974356063483777 6.649510669384128 5.863259130354162 0.28373048981927906 -0.6347814592620874 0.8807853810648701
P -0.1261826494232432 1.5178111782517845 0.42264632179844336 0.655410962586981 1.8082902776734664 0.8299549286765642
P 8.498897641691956 1.5862433709763164 10.833541285261122 -0.1429217111986119 0.6647332684291712 1.0079529147530188
P 5.563982959854639 0.5113268296755383 6.018686560537946 0.2539733131615045 -1.9989231789051123 1.1045662298033943
P 6.235351982235547 0.4753660373820728 13.543513685618658 1.0985691316796953 -1.947622985969239 -1.9638926696635404
P 1.3014837391613978 5.620585761326653 1.7844469570166335 1.0711336611765616 -0.17239066719200632 2.419885014406445
P 5.317970619795415 3.008453754615919 2.4373857135442285 -0.5674882333320679 0.5420965327318407 2.452170356802712
P 1.547756065841556 0.830678609929432 8.767879799710737 0.826401406997351 -0.2538686692628402 0.4668598835850283
