# total energy = -381175.0615896017 ev
CRYSTAL
PRIMVEC
9.22281088383678 0.00000000000000 0.00000000000000
0.00000000000000 9.22281088383678 0.00000000000000
0.00000000000000 0.00000000000000 13.49851598450538
PRIMCOORD
 96 1
Ni 7.165275659425395 3.0691393808747036 12.109410674926142 -0.02108844523918304 -1.433757423058634 0.42713736818442566
Ni 6.30319184549444 1.241279688780068 6.071834864359758 0.18109899359928167 -0.4461259934717865 -0.6678666718518305
Ni 4.865226489025398 3.4791671129443107 11.171857520747036 -0.23330704306140462 -0.037838925224644514 -0.46449009780127104
Ni 8.774656181404485 0.0997456233997482 9.735278352773427 -0.8170459339243799 -0.17583106033212298 0.6273900518940227
Ni 5.562784577273916 2.65819859051469 8.36372092473108 -0.9879633590049695 1.083594512647734 -0.7436429955521967
Ni 2.0323386350906154 5.699724875212858 11.939586444316046 -3.0515580099465383 -0.4394676076150045 0.40486724393231566
Ni 8.209998799870686 2.903746710956933 2.146885025605963 1.478127721643893 -0.7138251408598159 0.09906948990035196
Ni 5.990151194050232 1.388355856023624 10.318535377279575 -0.04350512237148637 0.44658570671702447 -0.10914924273385718
Ni 0.7967558766740231 7.514515844100364 11.234342987649388 -0.8710915508158739 0.31020231085756256 -0.3002917366120699
Ni 8.6709917856048 2.1303217793055484 5.946190665351015 0.19379124435496947 -1.5579730732073105 1.9541376471593057
Ni 4.141328052520304 8.380030543728603 9.958516493372304 0.24128851860498446 0.4427470496972245 0.4750251930046399
Ni 7.977519402635575 8.28652046285556 2.5751656229537865 0.39770954984161183 -0.9213077666589488 -0.9465238609132602
Ni 2.319583084128087 3.5779895329615368 11.21293407644211 0.3483546535575678 -1.257958244405711 -0.3506802163669509
Ni 0.7672502596773727 2.5575500539166516 4.031507430368636 -0.3323261393397954 2.215736595186868 -0.5918062412521421
Ni 3.603232366707421 6.175935499120414 13.44813950716342 2.508190580922074 0.5554989221806756 1.27963007295219
Ni 3.3496880691158615 2.9331305868481956 4.275493206625072 -1.2048420813070218 0.8207177263490123 -1.9437017965379622
Ni 6.740270082268715 6.67516625931943 1.1745425060001657 -0.28403233733041405 0.8127354794744842 -0.6914367458622867
Ni 0.896860267422224 0.5290739320787857 12.478932743302453 -0.3077787890177345 0.06574285072376419 -0.6875176133135384
Ni 7.319434945527861 8.650710824184559 -0.09116287546992732 1.3371032274679941 1.1044387030865948 -0.8770210289264315
Ni 2.378360058721627 0.8883992605977907 6.197897778988544 -1.291567447819724 0.8022690327255215 -0.7782315321603436
Ni 6.135152228815591 8.408888719392056 3.931766418374395 -1.1395687140205084 0.5088714521301236 -0.11112487840298926
Ni 0.41974857487858086 0.08660865139111201 7.445552274741632 -1.392480418686718 1.3562170654793095 -0.9050699646438478
Ni 2.2587401998673644 3.6290377919251715 6.262379984475474 0.9385570406576997 -1.6040966070382503 0.9819431209528184
Ni 6.8111658305349225 4.785144820989039 2.3823258674577357 -0.6125609573009902 -0.23175383964167184 1.222817949059152
P 6.551045668690233 2.7791557569660132 0.8296324310963662 -0.6145890434746125 1.3265347079235283 -0.4657805344779204
Ni 7.29165583875307 5.6993467399612765 5.994232287924018 -0.4740399462732352 -0.282532612856436 0.6762723794170223
P 3.565206716895846 6.400197371741868 6.412659233984264 -1.4009174937104776 -0.7177399025331896 -3.0577389419462695
Ni 5.192184362290043 8.773005298232942 0.7328630088109026 -1.203393007565321 -1.5951833637090205 -0.18392900684890906
P 3.001010475912758 1.2257484750321435 11.856988793435011 -0.2799861922854985 0.32954394860896796 0.6009313434818618
P 5.779041049935038 1.8604715518408712 3.94256540779093 -0.54739763322978 0.12162474949304858 0.9147977334545729
P 4.744573675337543 6.525461590936825 2.0904072977982646 0.4277202372710892 -0.5961580904629347 -1.5833418909894021
Ni 1.658630332794955 7.413470726628713 0.18907684860225404 -0.18383284759067695 0.9735245578718201 -0.02390586008332012
Ni 4.0276845752032475 8.40861203506163 2.792154386809436 -0.04923559709736037 0.9658287318894593 0.10445183725818785
Ni 4.3266327714177475 0.35375290610422117 7.646207440291121 -0.5675021172891388 0.7539608325384369 -0.9897261073323471
Ni 2.4970576364744685 6.444568315531217 2.7536971094423968 0.511755458546138 -0.343812285602524 -0.04967268463477897
Ni 4.2970736621172145 0.17484512892623152 4.989078695854079 0.5755661252441958 0.704425959033103 0.06751691190505146
Ni 0.2765395322932816 7.15533346915208 6.277309870945271 1.8241598977158713 -2.361157161547933 1.8053260528388198
Ni 6.560582055278923 8.37849033428923 10.68604595057369 0.8252971181895787 -0.39445864700448197 -0.4823610645444209
Ni 1.91926697205644 0.1919008733348042 9.956113951103102 -0.6593617197046129 -0.5843801239913999 0.1777313626786294
Ni 2.304845032127384 0.9267541647625726 3.5379883570307187 0.6463367681998546 -0.9736173746959427 -0.44170703846848447
Ni 5.608031688109614 4.581274583519997 13.295701197596204 0.21235460917945365 0.14632379490162542 0.021074047061479834
Ni 0.1545097529210069 4.329418060344038 6.197344410327692 -1.525151141581283 -0.03611834298911199 -0.8710049046393388
Ni 4.528833680093218 2.1589770531266894 2.2238539949250256 -0.1758032924179811 -2.3844413288868544 -0.5682145699751311
Ni 3.6266029698174207 1.6748717029909732 9.786410539317291 1.3956734717027188 1.2504200270471366 1.3040228999742576
Ni 4.6325903040030445 6.297510593909688 4.195216937276314 -0.256899485669364 1.6590184558871106 1.4824559167056017
Ni 7.60845017428006 3.4302769917580003 4.463892178617781 -1.007037087806969 1.2126973156853824 -0.31915206385168265
Ni 9.012364912484651 5.415745301274416 3.5196709320754027 -0.7343062915323031 -2.1159968186923686 0.38400891242606766
Ni 2.323327545399855 7.904594635946241 5.2497623714517365 1.6359075809012602 -0.024172483481145465 -0.37490180791847694
Ni 1.6779705674917464 2.5746860367810473 1.4403190178398682 -0.3260246226017998 0.6140036032847878 2.0354169029557725
Ni 8.027848282340102 6.476304008231102 9.95875997558308 0.35301966313340494 0.41999895736743154 0.9689878463437313
Ni 8.204096200821594 4.555266256459935 0.46354217069844056 0.17150260816009819 0.5523040693924617 -0.2838017093768467
Ni 8.324149531793523 5.154970319847719 8.108491619567223 0.5670758283849976 0.4565621012034459 -0.44506618474870446
Ni 5.972775418099466 5.271648101988449 9.08024941295472 -0.492126885681933 0.648832795148831 -0.10634494051584265
Ni 0.5499968011456153 2.4112947168533596 8.157923119760069 1.0622916374048994 0.5244191700567356 0.2811318758541674
Ni 4.278323687325332 2.407319685306236 6.190581323010974 1.4587110076801781 0.14584119883825206 0.5842669954523034
Ni 4.319632657857964 6.826623261794734 8.171340465223537 1.4446499016014216 -0.2037984920793264 1.8470907954804316
P 0.5555046638832997 0.5782029240703641 4.834277502105023 -0.19514081640432845 -1.710801501996673 0.7865896743170518
Ni 7.806279470534797 1.1038782502904145 3.802032824961953 0.8965819817774945 -0.026034733500864844 0.6757810416029006
P 7.253768531106708 6.598174232972831 4.157313950851228 -0.36425049885221783 -0.13302733490303542 -2.0334803480546917
Ni 3.1094891790618586 8.191313384755903 12.003096565522075 0.21751944120984473 0.05237208584381303 0.05281791513198
P 6.460865022593319 5.161048152306081 11.205603786248016 -0.057859591320945515 -0.06177409588400328 0.09010276762536741
P 0.613668321544395 7.56473405007272 8.766138915432863 -1.0633825564762331 -0.7608094800291542 0.8019116493861028
P 5.75534764843954 8.54769202515587 8.599728969460227 3.15127901738796 -0.8899696186672996 0.6129949595146151
Ni 4.398201784887992 4.272633212929566 1.8136879206902057 -1.0715861753329479 2.2120987413239646 0.1817579673395192
Ni 7.523747877925584 1.4421894039135494 8.094763465372576 0.5631482111958171 -0.18368192383510945 0.3395259995223443
Ni 5.272764062121168 1.5384294368467974 12.96325944090251 -0.1519588817002157 0.3017351539268158 -0.44358085845242956
Ni 6.720339587667015 0.8813327427987053 1.7924413309567775 -0.5033536076356879 0.28882461651273483 -0.2575294059438791
Ni 2.8288943767656303 0.5009083895224995 0.601358635683733 0.4761407946663219 0.32333499158477863 0.2006056961736416
Ni 7.454761251539318 3.647852326394154 9.654030921424873 0.3519652537269616 -1.0866811219928574 0.38203301964661945
Ni 5.888700272893956 7.88676694225578 6.411673315486845 -1.4158692299243036 -0.07345461754572512 -0.5025581083175861
Ni 0.3390969371215451 0.6064422491147639 1.4469871102031397 -0.2270664614683315 -0.38326457806087544 0.1302582567983305
Ni 5.095326401018843 4.686894215254694 6.793304012443708 -0.3047574856929074 0.24477596293295267 -0.11550141020413013
Ni 2.3337124306018517 8.156847739995813 7.6301034899792155 1.3644415102716307 -1.0668556026264981 0.10739600748817632
Ni 1.686151200861348 5.484759596093726 7.490205436548016 0.7265536441700777 1.1801980575060964 0.9642984112878619
Ni 0.06957873085337911 6.57138196697656 1.4837842815876219 -1.238159207401913 -0.18250281592534376 -0.007997159272863647
Ni 2.4857320245490224 6.702475002732496 9.6269121679187 -1.4618433826615729 -0.1255037728324806 0.06135911983377174
Ni 8.000345859895736 8.265769138073594 5.3115985524586895 -0.7176188035742931 2.2010653663279385 -0.24472634064193982
Ni 0.571785692166679 7.496033330827894 3.8611833234015687 0.1559680028596088 1.6446999823819093 -0.6282146046778471
Ni 0.5267073587725403 3.0100488307066806 12.887262555864346 0.3949872658144423 -0.05386024035356531 0.4275436024839088
Ni 8.051956710331238 6.578077727772874 12.576662260214498 1.1536429327253874 1.056692031829935 0.5220403854119138
Ni 9.231480456560176 2.39518246601154 10.617879232086587 0.10952359535414041 -0.525200014086818 0.3284795119001956
Ni 3.233840339966409 2.9936875639674776 13.404903891409921 0.8563444744136866 0.1517853322368289 -1.0669831293432979
Ni 8.672919353106769 4.712349173653905 11.621804345729434 1.476538265669586 -0.2756561974515769 -1.2355109711457883
Ni 0.8768799696410463 4.66088588819463 9.677667141492083 0.12923547196077098 -0.05028820673159081 -0.13108872311942585
Ni 7.698022114850037 7.667264040117657 7.815843525556529 0.26109321203573743 0.2796478351094732 1.155789546754745
Ni 1.8849765607056188 5.027142159190812 0.8725221914368336 -1.0399988874449702 -1.540716857230024 -0.012372919743056111
Ni 3.9563830232524144 5.833787656115369 11.070105935951696 3.0524944057178787 -0.225603760879876 -0.6916370347985509
Ni 3.686136214914126 4.361439660185364 9.007667734835115 -0.9002766570202624 -0.32978691785770947 0.014550644120665262
P 1.9818621904098614 8.470294195124644 2.2149853398537647 -1.8166803015093747 -0.018079483209530154 -0.9101049559645938
Ni 1.7759906029507366 5.514254145717159 4.993802619655556 0.8730283628272705 0.4483872787021374 -0.44356311784061675
P 7.2306008298390205 3.633971995817772 7.029487290582126 -0.5046805539772276 -0.8936342120030802 -0.0017601772242163236
Ni 5.293736734367474 4.245988511909522 4.324965287186378 0.8465076908289229 -2.0123263396848956 0.24047142202032779
P 1.7360097172041502 4.387549438166583 3.0428220896456644 0.37887339097171524 -1.2404580307384185 -0.5451180931669838
P 7.619646666851307 0.8923143438733214 11.609681882932358 1.3664767955341046 -0.1750111355339889 0.6531535340113719
P 3.0078169104412424 2.07053951831146 7.8942429528638955 -1.6505294445794927 1.995021272747545 -0.5748711560597002
Ni 5.839266005857808 6.958509459297891 12.274578308255165 -1.7652543816289148 -0.2533757887868217 0.8048393645558591
