# total energy = -381173.71632735606 ev
CRYSTAL
PRIMVEC
9.20045977551397 0.00000000000000 0.00000000000000

0.00000000000000 9.20045977551397 0.00000000000000

0.00000000000000 0.00000000000000 13.46580287818901

PRIMCOORD
 96 1
Ni 7.530824617338931 1.716290540711392 7.461428310508244 -1.1103111027069716 -0.5855309497663916 0.6498404104777389
Ni 4.147033573319614 8.740804664301457 2.756597551319538 0.7193103323441031 -0.6175000464738203 -0.3560059994552385
Ni 4.5110957607711 4.143555799580503 6.194996083364651 -0.7287233981278869 -1.7360044836248618 0.6428835195439315
Ni 5.47447588834363 5.098186290047488 3.9392319921778602 -0.5655750754697549 0.7658964076337583 -0.2819679986022176
Ni 2.6186992223339343 7.24371507421002 9.367526173422355 0.1578009423032895 0.43338771996951164 0.04284512018998427
Ni 2.943328239822895 1.337424813719613 3.562634178484206 -1.0183607403499042 1.2362054261096516 -0.3520706689565743
Ni 1.3419698407754894 6.6812449748962335 1.056016795421727 0.9278219136283827 0.24085965859768194 0.7554289324435313
Ni 3.378611185249157 5.784917797087323 5.305687936205394 -1.1049123002889034 1.199981667890927 -1.5981943826212024
Ni 1.594816872252409 8.955313380511498 2.3791919372706083 -0.4121282963701031 -0.5571182029516534 -0.2488534754364359
Ni 0.8892520243555311 7.614889216953392 12.360233280064863 -0.38140284226178833 -0.4114587811069042 -1.6977636949761081
Ni 6.819307072063203 1.0158595492865363 4.049988045217024 -0.12628821640698895 0.49398116528185254 -0.23373847417186844
Ni 1.1524587733727683 4.739046348496599 2.413879510157381 -1.3930352627489233 -0.2737646368558188 -1.540027287362167
Ni 1.1936584315837298 1.1928855929750382 12.179575814961476 1.050789293192255 0.5969474191334494 -0.8344764706960016
Ni 5.286795712406736 6.645271177753568 6.307018119648529 1.1091888161770702 -0.9453174993099849 0.3433006360734281
Ni 4.816449815340908 2.648067089464213 3.819602095828184 1.4918453283403017 0.18956640764034446 0.1987737851712254
Ni 6.645979613144868 8.759674806997008 6.334690342069501 -0.0070983016076780975 0.4659931647093588 0.616593732609467
Ni 1.8753204853689336 5.165828069227254 12.374547355152986 -0.025168528845827622 1.6930539482052651 -0.29490347571696307
Ni 4.637491675130677 0.9715133338830448 7.268193817094361 3.487366680652716 -0.8303768467053312 -0.120139937417406
Ni 4.261984115902856 6.331259490674488 10.713500054227637 0.6156889614070106 0.4556419033820217 1.0584501521716223
Ni 0.07517235538469438 1.3173586112725146 9.612926352876952 -0.9368408292975414 3.806098112027213 -1.5472058073884771
Ni 7.571122630506419 5.773380420714714 1.7750354754315771 1.6461362006078037 -0.4361354579179779 0.7830441230576385
Ni 7.612993922270173 6.011801131496058 4.322710829626757 0.05783773694407458 0.2820443603661078 0.14284714920693461
Ni 0.4696715033751482 2.7011077392154843 3.5320398900856107 1.7525765290509299 0.5501795668502912 0.5208695050322643
Ni 6.719298075914665 4.442175117703142 5.938809285043028 -0.9569208878768681 -1.105111046563271 -0.6627725451583746
P 6.0808413805391694 2.199710290907585 5.763632533739611 -0.39532922253489333 0.14363107856081073 0.1254541505414678
Ni 0.3420565281149556 6.249780220215292 8.621291613789047 0.907789677567856 -0.9829476509579329 0.5998134278273347
P 0.8781111877928572 4.795445166011827 4.56589001812733 -1.0273616582969338 0.6450602154802761 -1.7981611596592646
Ni 2.1681803157648956 5.0908627241841735 9.954002111995642 -0.7788318847485038 -1.3835224381624815 0.7441664721558345
P 3.749472512365202 1.5511146890228271 11.844142697732199 -0.6112062430453087 1.365400017530158 1.1000958527368667
P 8.636581857643623 7.763918261996079 1.8525447475616008 0.6304830889970496 -0.17452159749208007 -0.39772626201216016
P 8.611621010674813 3.1660897683186078 1.592990581016394 -0.10595027618058528 0.5454628781009121 0.3174469082351178
Ni 4.583052555516059 2.4143846153909183 9.90784156595365 0.5525398395523516 -0.9364320238948969 0.9082812724922937
Ni 2.6097011728184536 0.5038024484544702 8.269847856716376 -1.2996301702232005 -1.4229469627066913 0.9915449057086407
Ni 3.757725324650873 4.107443995543427 11.599146418455238 -0.11747910275579122 -1.9853097018867354 -1.0420956220729989
Ni 3.5781231522667327 8.237465919012202 6.482302516329587 -1.3014757080723716 -1.2207476967936846 0.19836472265826485
Ni 8.219414617223476 9.492850234235354 11.385349817820346 -0.14173694686189137 -0.8878597714131483 1.509888816105574
Ni 0.13743830600423984 9.2646788354788 6.78871738389442 -0.23232179632999989 -1.1962499687626365 -0.08211640698578115
Ni 2.8380105784694165 3.8278880297685127 0.6928829343466348 0.35034083074966116 0.5400206240394184 0.30986575345375017
Ni 5.851538325248462 3.375464628056627 8.209911462474459 0.05565384191887835 -1.043767096238151 -1.4525799550817757
Ni 5.527185321548319 6.368374144810937 1.4699804357996553 -1.5218408462611275 1.5046149693011441 1.1000457162252215
Ni 1.1036411345904187 8.837115075679828 10.115039596943856 0.9445063162625993 -2.646007881014585 0.9888010244149162
Ni 8.452535863259508 8.352848883197925 4.72777578545318 0.06012344765445774 0.6655069133704022 -0.15081705478628865
Ni 0.22771597600500318 0.11010466049755255 0.43170580672317566 -1.0929839242824337 -0.7603772775877421 -0.32587369884623235
Ni 5.931775533657973 1.1365603791368277 11.830165359466433 -1.14950525640793 -0.278307776141811 1.043599203201719
Ni 7.365437155078939 4.036177235270514 13.39711403950781 -0.6144252642032386 -0.46592040248989436 0.3106070024951489
Ni 6.231176890848931 8.032599284491548 10.829656777068015 1.1236492145767745 0.925639047044451 -2.0291544669858275
Ni 6.926382021205492 6.093354005632271 12.170096581407488 0.364474699047882 0.3525290966502316 -0.7119065836808642
Ni 2.3757886872544773 8.743040375990885 0.23760923024221775 3.044004365968996 0.22838852271386476 -0.6037395023546183
Ni 0.4977844278122661 6.774362826783938 3.5102522816422477 1.0434248824073835 -0.06112643499767538 -0.4595001007858473
Ni 1.3881929499429462 2.0621634194797434 1.403809810114292 -0.2746508961155141 -0.03814411516988915 -0.4329616881756866
Ni 8.873180877418767 5.704809395112593 -0.16861866368109305 0.8029110371848945 0.9349510684739963 -0.36886871435051954
Ni 2.7370171331407596 5.621536035026079 7.654056493632687 -0.14923685478336235 -0.4483479408237698 -1.0429798244501651
Ni 4.7400215972170905 0.4065784314351102 4.963319512509074 -0.6178268336856199 -0.04062882926495584 -0.23218398520055497
Ni 3.1803780821197742 6.516170328263568 2.7886197510522877 -0.0004093196232767144 0.3056177768106737 -0.021496993531511365
Ni 5.011453557141116 5.342384889474764 13.049022929923321 -0.9720690563722162 -0.43367336953073055 -0.20577618463098754
Ni 6.773185167951646 8.208042849124158 2.8390493103613363 -0.43131592504214744 -0.34922908574272116 -0.5100665008794893
P 4.6330294522114475 4.456353025988782 2.02540482313087 0.7927091569512285 -0.6757540450197072 -1.5121372458201185
Ni 8.809697705990532 4.587468776137154 6.342070030736542 2.5974559402478103 -0.9173948047577878 0.2685594385057955
P 3.2026615953370476 6.707291476101064 13.105875330098176 -0.1025142539158428 0.3565996671751794 -0.20560340649854916
Ni 3.4015847329384767 2.5226280229058724 7.892724696778005 -1.8984591226500789 4.049166862461072 -0.4803466052175534
P 6.682569841082562 5.453866858778521 7.789320731027001 -0.7751400377192134 1.2575592091950794 -0.829638682987726
P 5.345807460456113 7.497794967276995 4.304895979650454 -0.38630053667372183 -0.358396354064286 -0.13675517737658383
P 1.5640781366376655 7.874443383498599 7.669044042365527 -0.24054675534295342 -0.2048449310659698 -0.9281582139218788
Ni 7.453669562904558 3.4313022175345917 3.688822162456207 -0.7978228240287099 0.891322018930136 -0.2190425627225905
Ni 2.29292934785119 8.270780783322584 4.4315145451330125 0.6848709197193108 -0.785430363901628 1.2161127691248346
Ni 3.588059648664195 9.132670640746582 10.498788007859833 0.6306142152582752 -0.32946501574191644 0.10324393299301574
Ni 3.6055497224156556 1.469497411669223 1.1505367973566294 -0.12312550240829118 0.18811064903042443 0.02081616541440286
Ni 6.488771359493527 2.358951846136554 1.7062924012344263 -1.6291183258935682 0.4565523310114331 2.927461144763913
Ni 5.442016666778583 0.2083416481218761 0.7836813503623022 1.0315453573609783 0.1950711395086576 0.1630436787594676
Ni 3.108550093809596 4.216055421443472 3.3794318662479106 -0.7353049080001465 -1.2355109711457883 1.293889153974365
Ni 0.6057352607110722 3.500572478068386 13.053116214411498 -1.1861401340221445 -1.3919430581260093 -0.0805349214312742
Ni 7.667791859810254 1.6328883741900952 13.579722922098147 1.0642449044765283 -1.0582948575406805 -2.7424972688925866
Ni 7.336152092085305 8.028008255137536 0.06645952011765986 0.5558056547878168 0.19440650934146517 0.09335392757281341
Ni 8.116111856528372 6.837395175690435 6.672897397876402 -0.7467283193457398 -0.6213196773302267 -1.5917619967322973
Ni 6.73778179930587 5.9618058338814155 9.791254261602717 -0.2114945751720035 -0.4938073587081495 0.23234519336876758
Ni 8.003084210007234 3.9778647221528107 8.605186209211492 -1.0604077901186253 -0.7074673169625881 1.1670941731342868
Ni 2.2652451648327037 2.3287835390187017 10.097237627611031 -0.5365164675409019 -0.01960774692859849 0.1359830750972497
Ni 6.985218960521951 1.8242395335182728 9.89292118057609 -0.37827715214861307 0.5526449976716483 -1.2344192807435064
Ni 0.6677454385529794 2.1674994817524764 7.3880932869111176 1.1368595426194614 1.8729555790623358 1.0415266369434064
Ni 5.140250791463415 7.729904162754025 12.676086899161325 -2.043750876742764 0.12585729951715743 1.0856107717468142
Ni 8.73351790027665 4.795445166011827 10.96598366754928 0.6002222332299793 -0.11398908732466176 -0.24718714347760656
Ni 6.2874837037678875 3.7433450062534335 11.23020982749322 -0.19959936639631431 0.6947172163857713 -0.1330540743759128
Ni 8.473393305234552 2.056854754274803 5.400689122178803 0.29837806452912485 -0.33907168559374506 0.22920381952630847
Ni 4.7972484560987745 7.760072469871877 8.46638071490664 0.8835963681511042 0.33293703345091696 0.9233854751235838
Ni 4.285868509095276 4.622945748459948 9.065016900969301 0.005601919567809707 0.9438666257960712 0.5597026758493779
Ni 7.938450981125589 7.805430735834369 8.608620740790357 -0.4193793215055616 1.7115849171299167 1.6554528500230392
Ni 2.4168779399499116 1.223164305608418 5.898815807089204 -0.17823452756729302 -0.5522279647388877 0.05639611940154158
Ni 8.566051134140894 0.9269463074484988 2.3545227448719817 -0.8166882934746451 -0.2631362106076952 1.221628042516109
P 8.57848095509735 7.314135392197223 10.782876120047145 -0.4985253330091091 -0.6569721364265136 -0.2805646904967878
Ni 5.0243986038366995 3.097500341797233 13.55117573596662 0.11995533221042566 -0.7065288643087186 -0.6606907229286815
P 0.8472473259271824 0.6506335036922006 4.292709050828159 -0.6257993103681351 0.5100945259039472 0.6730407598536021
Ni 1.210890892465626 6.412738761133682 5.94039820442066 -0.10294105704061626 1.48310023515782 0.3046016768413335
P 8.245175904179863 2.630945034097844 11.488390365416073 0.592645963544618 -0.05785522044557133 0.9451886870416045
P 0.7765123522207253 4.041476700015828 8.604122636078579 3.46598230143967 -0.281456863293754 0.15434203722041162
P 6.461685206350814 0.07892798300455023 8.793276725647763 -1.4455585294586202 0.18971501740306682 -0.8090171500826325
Ni 1.9542328275921175 3.542176956502948 5.702067658143664 1.3839752094291842 -0.5480599494041272 1.252699824220249
