# total energy = -340889.21472954354 ev
CRYSTAL
PRIMVEC
9.10013111745492 0.00000000000000 0.00000000000000
0.00000000000000 9.10013111745492 0.00000000000000
0.00000000000000 0.00000000000000 13.31896174574952
PRIMCOORD
 96 1
Ni 6.591907634209323 2.157905042819565 11.077993007256193 -0.31858642115619973 0.5714623874884673 0.8323038885247149
Ni 5.023145093876331 0.529407420391696 5.9090774596251325 0.2953760444780074 0.8035347868118226 0.16423744195725265
Ni 3.0563883097025872 1.6085483145200679 4.585811892296944 0.32627221983623167 0.46342283287902125 0.8218215009361525
Ni 3.779539346196224 4.128110776768446 4.1425435850622945 -2.212234238460564 0.369329456037022 2.1466978473206515
Ni 4.1295212971250335 2.7133588591120503 2.291753414515171 0.27114493984478466 0.18286611280203344 -0.30227559981131813
Ni 5.140837092403653 4.850752205907446 2.6197330679074953 1.6373692530484512 1.3480386434335752 -1.0087309305696242
Ni 5.636448445051534 2.9872091113105124 0.19188081921811312 -0.008511379905120827 0.2628328204346635 0.12217625112114443
Ni 5.733919951757337 8.167094867263284 12.431586582277259 -0.13128644095252875 0.27782672274033443 -0.9486499061173276
Ni 1.8986878018042728 6.45243902140257 0.42499069345268703 -0.1622108984455271 0.6181214821079032 0.475225224830588
Ni 0.7565658087346075 0.0395610009431554 0.029457125124328666 -0.534803084394221 0.640705023835374 0.09690410681791697
Ni 8.47633553021507 0.10867103833710091 6.75788128953604 -0.6471703198447435 0.08612012882853555 -0.20069259946049306
Ni 8.711464723592398 2.5385726366026335 1.2129501352592467 0.1182712596397834 0.2462792869513565 0.35559513717006497
Ni 7.391481573635958 1.1625690781613718 4.730802464796451 -1.6489333037369667 -1.151402987651275 0.3500438683345326
Ni 1.0288972490136226 7.870184882267464 2.2529022238159757 -1.0617226522753072 -0.12903981101019713 0.8014527074718132
Ni 7.974963794433519 4.0089809574905395 3.844850988771852 -0.632587536934562 0.4569606221934453 -1.1867659405316013
Ni 7.603523733821926 4.1166173108951 12.575990196305801 1.2222651618794758 -0.3801394021683324 -0.7308934091960123
Ni 8.520107161925923 7.257655042255551 8.801183828415773 0.1510854779563269 0.29812943885342846 -0.18252158497842114
Ni 6.91797443999549 0.7876545874069102 0.1772942187047407 1.553167681398867 1.7635847072359756 0.016227260492139794
Ni 2.0590321158885083 6.47821969346844 9.022491742324817 0.9795625365357841 0.9012109959090736 0.29533593526869134
Ni 9.010485939057432 5.096901658328814 1.3144247897383556 0.25966984932564957 -0.8281554135739801 -0.07300441738218395
Ni 6.777250009064807 2.4472346184151497 6.903470650677246 0.3861143888048447 -1.1554434762692358 1.1711241202292864
Ni 4.07817835614528 4.644961835947122 0.4554724933650908 -1.1064881294164555 0.99047969766892 -0.25830433643669065
Ni 5.83433080088364 5.946016712731303 4.755415590012322 1.3328210551528723 -0.35135076007141425 0.1598647668108537
Ni 5.45498272614383 3.3171343727817932 9.194652576944716 0.9416742461304427 -0.9874990177740411 -0.6856512495287611
P 0.3097084097022945 5.747324445210577 12.429654624395303 0.47145547337551064 -0.022594340360748182 -0.016544277511926348
P 4.339324825003129 6.577929832482116 12.639548243573593 -0.05457140748797698 -1.6566396712422888 -0.2645490317948218
P 2.617716478804143 8.664162240924416 0.9842538247210889 0.5298354559763003 0.8903200600281829 1.4032284012318412
P 6.831868997324375 8.147747988049716 5.6951351920168705 -1.6060984679596275 0.5782328734430816 0.5387173318469626
P 4.91941269681355 1.3638730833746169 12.490336120148791 1.4227939820685946 -3.1494008265286406 -1.6225445293307927
P 4.0866414782847995 6.26830696401435 7.958133101533473 -0.13279310740504224 -0.16789894996923985 1.249190782625726
P 5.098202977109406 1.370243175307589 3.691044209037112 -0.8176354878792629 -2.201399866849221 0.24588385128515075
P 0.4810438624103066 5.906731445767533 3.302157376634243 -1.3098276795814927 -0.0652114037003264 -0.6408348645450189
Ni 0.8150905733622202 0.3522378734862148 4.576928344089849 0.35844006281802787 -0.33082975729992703 -0.21134416563706826
Ni 1.6090033210867087 6.977844204034093 4.6965186300131965 3.2705674054383476 1.1834674722859875 -0.18302552119803317
Ni 6.318758092123487 5.976165447836926 8.890793731663155 0.4205823406747273 -1.1832558704958138 0.39097120267651375
Ni 8.885668537696514 2.575009562459233 10.07373072377364 0.44150726375285254 0.040824490215529696 0.7311024398830247
Ni 2.6599319880570813 5.410155479198373 6.487865832681226 0.013831763676769727 0.4024789462057972 0.43974657230800396
Ni 0.7913829112139653 0.09274398847840458 8.8994242962192 0.36433251704306285 1.0144524064344336 0.046344648702810506
Ni 1.7263859151487153 1.2993804526189427 11.482397383607783 -0.6256208758087419 0.22026049429009162 -0.6721123345020619
Ni 4.355395656936884 7.206457703377122 1.459038616800684 0.6586580087693689 -0.6405101342157485 -0.3858842750719096
Ni 5.9970047485890765 8.139967375760156 7.992363245541864 -0.39611880831572427 0.7314899051294306 -0.8234508090094593
Ni 5.517282225248295 2.9744962278385674 5.026709615319396 -0.27043274426910846 0.14316030957197926 -0.21708955276127775
Ni 1.1376256181781204 7.713462420453689 6.91813551232008 0.14166264198053022 -0.7422116624223088 0.3249349890820468
Ni 5.13149125752485 4.750696261903123 6.938007469111553 1.190612310860885 -0.18619954805064062 -0.3323631632253179
Ni 0.6321615533361992 7.805118943237822 10.92230796041436 1.0218582119802013 -0.7093550209036041 0.6317059056605572
Ni 4.712220906627973 0.19181620828565013 10.289670470209455 0.6685966080393194 0.8174002319400051 0.057327372966559334
Ni 8.492588364775482 7.403357245025284 4.624943367041191 -0.6398138794796723 0.6274756696292935 -0.9124186916994351
Ni 7.6275025798839 6.336303145333159 6.605313037675696 -0.0039204181003287325 -1.1401472122317977 0.9767230102044598
Ni 2.597177482385975 5.610613172197667 2.4851184651536666 0.686922660042017 0.8889303787695078 0.2416890964775128
Ni 2.5319659412550086 5.651008655184041 11.697391626398117 0.4292423303425705 -1.059601749277562 -1.7991109251670434
Ni 1.3241146095815393 3.8959482262056193 3.406244678819004 -0.16319794494914475 -1.8719523346088018 -0.2738381704062316
Ni 1.9985526430506066 1.602724230467065 2.4858246353450935 -1.4267349689942137 -0.5551613363355987 -0.8608778435076658
Ni 1.4616994952023996 3.615782482862182 8.252242066105053 -0.4612556500243733 0.25655135830132586 -0.33203071958656366
Ni 3.8217457553178296 2.8596252700244182 7.152575825755512 -0.21846483584224954 -0.6531342507376623 -0.1901094246280081
Ni 4.466317157752591 7.3525057111375025 6.236643967054947 -0.22403101707611736 -0.04794850285482065 -1.5408821791632947
Ni 8.357724418423134 7.249046318014706 0.310892336788694 1.4007585995351102 1.0110678062329168 -0.29996546362090276
P 0.5152821965368974 5.7344932600313046 7.787663981328346 -0.5156319107824088 -1.3567253725742956 -1.1779241738702553
P 8.910803100437755 1.9227758494422393 7.906868421683182 -0.00021777243776091527 0.6984458301902681 0.2690597751809818
P 1.9673755931043755 3.4721642101676635 10.523152539815541 -0.6525552383057407 -0.16162982913107649 -0.3821574610396257
P 3.838135091848233 6.405627945826559 4.257659336409296 -0.7884251848638938 -0.010540494520007654 -0.9589530878155486
P 7.072731273441376 4.401151117278289 10.340629385646961 0.1457308985126329 -0.7971975317398852 0.1979865133832397
P 6.8735657990913435 7.860775346469331 10.017564713187493 -2.2390457022264534 1.7296399748594147 -0.05107110764420236
P 2.6870412792975436 8.859123454598688 5.891136550702484 0.6822993023373927 -0.45025569936944393 -1.342689720416836
P 6.851507080740594 4.204406277862785 1.4530325301210247 1.5400473419668252 0.20260164355774785 1.1158194341197105
Ni 3.143239963142993 1.7334294168003157 0.16961825792550955 -1.620983098380944 0.0006396904665279305 0.3984394860291009
Ni 1.781805714965571 1.39525033621017 6.81639149395352 -0.6043665944156559 1.2873940331683247 0.8062573279493082
Ni 7.390762663260665 0.7237116045837383 9.051247247323385 -0.3908526748207785 0.7374283821010525 -0.06594262543939612
Ni 2.913316044888038 1.7325012034043683 9.289882721303247 0.15651487650201432 0.34304738241204147 -0.2726150966324079
Ni 6.671724886129461 2.2112955133492025 2.6093980487528157 -0.09472252578556589 1.496279195741939 -1.156837014182653
Ni 4.418586968911966 6.817172285221876 9.930125191262986 -0.730335222699697 1.2891202718308121 2.036855178064195
Ni 7.705445204749478 6.414081967834746 11.179283839082379 -0.9284256086506526 -1.2235447999228477 1.488301062632469
Ni 7.834111961664176 4.068614118114489 8.335099671903485 1.0365191564264857 0.48848594649523613 -0.8591138096287074
Ni 2.8577142424445263 8.078823593334958 12.250368386941808 0.4630875610267896 1.0536732996082694 -1.161614123856322
Ni 0.45116449119213525 5.192061731676081 10.285808374471806 -0.21836996213559812 -1.3525020785215676 -0.45385652934682486
Ni 9.000939901289307 2.558247120544184 5.629845389756442 0.8408890590905647 0.910185174383226 0.8077287702885122
Ni 3.844978390610511 2.8013207285750594 11.332559171147283 0.7282590568969587 0.6743903319029612 0.045816287003166256
Ni 1.2475370044158842 3.614754168021574 12.760151374114285 -0.3994612424253959 -0.10819099258564593 -0.476870730853811
Ni 3.401392488792346 8.75172370460878 8.07275653577537 0.41184804612552295 -0.3451268906488895 -0.42874610743244224
Ni 5.9029821916584115 8.23572805777539 3.6568013248448548 -0.4247017621597396 0.5764030193231944 -0.2692991448852975
Ni 3.23342226465121 8.535240680332397 3.105195954093018 0.21166812463539028 0.044887604541309786 1.5239326957931496
Ni 3.6258017274596135 4.505556924059698 9.505250069478226 -1.0647724948452244 0.8253225721108753 -0.4458444576756257
Ni 5.22161895824507 4.924900076007239 11.504426981538264 0.46133201178826355 -0.5495105658077246 -0.3736813052478145
Ni 7.952231666364142 0.25915718014849604 2.516231814180568 1.2319525643705687 -1.4005392844354525 -0.39100334146602983
Ni 4.871846310336915 0.5177656223776231 1.408786781567735 -0.06012884697109644 -0.4260870725430404 0.5595334972613654
Ni 6.401541986858124 5.97814927646748 0.2689789518960054 -1.3533348588355079 0.1229378118775173 0.16349722135711842
Ni 7.956790832161883 9.260293644274592 11.392906692080858 0.28687777719900914 -0.6251079407280653 -0.021862090180413962
Ni 0.49228707467200206 4.997764827589105 5.410801588523004 -1.1147436845570287 0.2194950768789768 1.2561222196382367
Ni 7.3812712262805364 6.431181114609109 2.626952202093819 -0.11138533115322752 -0.3189450900471991 -0.06122028026306231
P 8.943381570609239 1.9860217622053176 3.4358929067013215 0.9541505242205824 0.23189319343301354 -0.5474043180979992
P 2.360155461691423 3.612169730723054 1.3184415877086613 -0.8269845331943305 -0.1929353241125774 0.9132810396997303
P 5.315031806376438 1.2879324874022589 8.192906479775687 -0.9061184605130201 -0.16064483950998787 0.06537338319948742
P 8.751741904871446 1.8613135624203931 12.463977589743289 -0.03216630031989944 0.1938948598123693 -0.4477920683202997
P 6.679077792246377 8.076730563128411 1.2738573142697909 -1.9681738135373972 -0.6782246180473869 0.9349518398049447
P 2.0778875880101055 3.5049155828344722 5.665846419322199 0.6731364048912021 -1.6313479865550358 -0.11639384011141243
P 7.059581583665455 4.291758438526496 5.775607653392972 0.9558461667554508 0.8013058974813039 0.754560928016281
P 2.532957855570286 8.67225225767929 10.110610826026148 0.11434415667123532 0.14105046231782806 0.19526602912828306
