# total energy = -340860.69408014754 ev
CRYSTAL
PRIMVEC
9.34299949748903 0.00000000000000 0.00000000000000
0.00000000000000 9.34299949748903 0.00000000000000
0.00000000000000 0.00000000000000 13.67442416943868
PRIMCOORD
 96 1
Ni 0.581329826968424 4.810336634683245 10.045737695352646 -0.10467423768163908 0.23985898524730948 -0.6119150961868752
Ni 7.996953415927495 7.0954474106433665 4.630720275477257 -0.29530508203075595 -3.2450245239722366 0.779404212312206
Ni 5.422714182722865 7.266181380386989 6.41988222383976 0.1959085478082884 0.6363668014713363 -0.7135752296325387
Ni 2.333834517462419 2.083189874455296 1.9579992892422777 0.23948566106829078 0.6330485357313806 0.6646923878889068
Ni 4.552040075225425 7.101744592191314 10.69260679401624 1.9161575683711065 0.9042932343788233 2.244759721892095
Ni 7.425937325918684 4.811401736606785 9.591924860430234 0.15700878541929733 0.36950146283851204 0.8816359019906237
Ni 4.362022154866128 0.2902402741646953 12.56734220753573 -0.21759323187057364 -0.39253391917794334 -0.9069337573254638
Ni 0.13591261124332277 3.5863009495523617 11.971000983544922 0.6822471089432185 -0.8633926395097196 -0.09410314703401212
Ni 1.4907222579864141 8.143264785424329 7.244422469248984 0.16643393538793919 -0.48644680457802025 -1.311989977340134
Ni 7.987731875589476 0.006937177002005029 0.13502689490690517 0.6999488970983558 -1.0291660584955242 1.783360347201006
Ni 3.502456873571226 0.11372765933590062 3.5883190374074903 -1.9635712817683797 0.18351094547488397 0.5155077264997187
Ni 7.247458009731073 0.8682271759730957 7.509843065695394 -0.2065611424261281 0.20253325221365764 0.1452138496668983
Ni 8.630427456452674 7.058075413326168 6.955755556171342 1.2883725950315104 1.1618668632970766 -1.4848429288805396
Ni 6.662268589739715 8.305627427768899 12.2381995527637 -0.8618780026374059 -0.4614086306624699 -1.9037908192756376
Ni 1.933206706222048 2.2780754974651587 13.231290308973287 0.5933692148638877 1.0356200416509842 -0.5566026967678156
Ni 8.504511854491701 2.4808652979076085 0.4083946465828181 -0.06561223868317087 0.2810999941749675 0.18731926347738062
Ni 7.640723537499956 1.5112955425095322 11.967541270893282 -0.6984543148307003 0.23058655880644804 -1.7912310081983345
Ni 2.3876595365985147 4.30249790613916 11.577915775663095 -0.1865924126136851 -0.37548313434324365 -1.411001360309041
Ni 9.096054514026983 8.39979551800891 11.536810315813907 -0.505912883722432 1.0402020045947118 0.5995786861087093
Ni 5.988899942078427 2.8046656256631484 10.00197975799387 0.13432908443359448 -0.4156766758429938 0.4811287347992166
Ni 2.113816226256741 4.599745429800829 2.1368336394044034 -0.26861471722376323 0.1817289138737967 0.09014724771005765
Ni 0.6924451836918523 7.369720498954289 9.504722910490148 -0.22722766963654414 -0.5971253394722104 -0.3615924924040805
Ni 0.598592886829171 5.175320903482338 0.40898138694069813 0.42929143841295103 0.16012264845793067 -1.1742233279799004
Ni 2.940297946926592 2.9110169870285674 5.211582952479216 1.5949900167512918 -2.0350014126849083 -2.19217063494147
P 0.5691530959425476 0.8547312134419223 13.507158247269722 -0.803699594524461 -1.9351245963919121 -0.41955621340305804
P 5.209656426017514 5.912025743596949 4.544749732848773 -2.78330093317251 2.486076265521538 -1.5157910405226218
P 7.371523697824844 8.668528207717557 6.061735161949848 0.2637946701273005 -0.11679416087362467 -0.3979340071475921
P 3.6845612734986064 0.9416622164014585 9.919782852794489 -0.1094544326791018 1.0738939975305182 0.2759829846633763
P 9.305580616985857 1.4805757607147947 8.029785649870588 -0.3331506921236198 -1.4731958315599145 -1.1403600995735523
P 2.779149894494831 4.3351049737984155 13.579701031262136 -0.26754539541898437 -0.004145389626941247 2.187116360347014
P 4.928413460206935 6.3179603784563625 12.695786025115213 1.2035333897979272 0.678002988954884 -0.033322525411529705
P 3.0499473870552536 7.949350834344712 0.6686326813012662 0.2750684432689069 1.4555945735383835 1.4719940979423292
Ni 2.792024547570606 6.477819096980681 12.85148337173826 1.3384823672037078 -0.7501399161304501 -0.941706642030275
Ni 1.666230500387309 0.16391544883309983 8.913344687743063 -1.2593648949452505 2.114248211432378 1.6099471522817563
Ni 7.565596479893056 3.2713484421616683 7.698768789433096 2.76765808442893 -2.1689299192459743 2.906018401509105
Ni 6.052871458486141 1.4048414081514913 0.2922471504206289 1.890893137377363 -0.5273404574685886 0.09323462838612975
Ni 6.6760868857477496 4.789417659184943 5.114822179925324 -0.050357112296313275 -1.6589233250701432 -0.9185561720557406
Ni 3.5248146709662405 3.8061790957681008 9.466803413412253 -1.4410678406771182 -2.170007982801501 -0.9359149750491623
Ni 5.090944276539433 7.682365285510644 2.9560138060984076 -0.17969439994227118 -1.669588003872841 -1.3447982821194067
Ni 0.5129157143796268 1.2454872115909557 3.4676420551704568 1.8802850228442134 0.48453107561254616 0.7034296565581046
Ni 9.181300039907514 2.0960738705304003 5.772015292847795 0.4368977900052992 -0.6642974664433333 1.4421561886452905
Ni 8.783680674451176 4.44605309083385 2.30959690860235 0.07889481472468993 -0.3169797387907122 1.127832913640819
Ni 0.9714663842619246 7.574603131246502 13.703687303861606 -1.5033718409226626 1.1770250590947535 1.714982629957556
Ni 5.232509402376982 1.4804169297261967 3.1039303028800145 0.7544020338409136 3.3298873833549045 0.08928155727565269
Ni 6.6678557033386365 2.1456478249716646 5.070763397988145 0.48659541434074255 0.14802329409123538 0.30995239963028554
Ni 1.6050245117810666 5.82115573212018 6.141607528916098 -2.787440666372496 -0.20768908538298422 -0.11337999298575313
Ni 5.950518900833663 6.003437649034817 0.8122925075884443 1.000406984084961 -1.0028829564292792 -0.31459221239514207
Ni 6.904383074359187 5.587767608874273 7.392584686912951 -1.4267740497622654 0.3845272468233829 0.7774522307921579
Ni 1.2348455353548833 9.299881387394985 1.7363095354565872 0.359650023965729 -0.9316227754317117 -0.25132276291253486
Ni 7.6097982097199734 1.484266245449868 2.4695873634172107 -0.3213477859514207 1.4771761563639012 -1.2987454536254022
Ni 5.374812625161545 8.21730805510903 0.44528828233435674 -0.15343520913542608 -0.5384213978730985 1.045824750098128
Ni 7.968429238975142 6.701668017911372 13.430772687653166 0.7579612119470818 -0.05495810140343438 -0.8710617260192031
Ni 4.40801774056427 5.3730187692903195 2.400791122155846 -0.26770120427055827 -0.8392705496505352 0.32983885414156744
Ni 1.9565268325479803 3.5601685804283103 6.9435171613498925 -1.4738416926740294 0.5158741087002018 2.001074935140793
Ni 4.139266364856964 4.814344781395515 6.931551582108858 -0.04727513093687987 -0.5301799837999127 -0.4085413503497932
Ni 2.5212177120108543 5.75311066800489 8.47819729688073 -1.8187071021314163 -1.0388336634922755 2.355725706119717
P 7.8449334738404595 4.593962113215993 0.29435119386958714 -0.6584680042457498 0.07633733841015884 1.3663130162627308
P 8.513294273861243 2.8338064405712347 3.824066267984045 -1.5161088288733566 0.930255976991172 0.5537351454120334
P 8.056608466645073 6.614637979158945 10.754865738646895 0.3398391598873889 0.3467001486732803 0.45849582789104903
P 3.1817957935903314 6.851043891188215 6.947003968699587 2.6533915750731656 2.1743899139192813 -0.7550309256741643
P 5.087795685765458 4.934000573805856 9.944902440791246 2.0417004219716386 0.5662026817514249 -0.3198938271137136
P 4.856220104389435 0.10403056033202047 6.355297806676043 -0.43072894219042596 1.3674944381653418 0.9908260252647452
P 9.250111229967805 5.606070544560372 8.223634199954898 0.3316463396639514 -1.0793843312211282 -0.3031474608933102
P 6.613675650228028 9.018330102606539 2.1360544332603397 0.2991853909217686 -0.7096041607999327 -0.29593654496716776
Ni 4.161222413280819 2.530822315321374 0.1757109854863407 -0.79364015340593 2.488803948865346 -0.16329667531053813
Ni 6.156447949050758 3.507034943242583 1.6665976802609503 0.2453022677500679 0.42636269480193023 -0.18781471505656042
Ni 3.7354058758486555 8.553768146955768 8.642536917883378 0.7316845376387399 -0.40563214712279816 -0.5707465923683654
Ni 1.8396178819404527 1.6606433867883879 10.805625319703047 0.6837283214744354 0.00993422839457644 1.4867648284936008
Ni 4.901103873167392 4.263715115923237 11.89499848690087 -0.563919542144203 -0.3857444070599357 1.0956668704312356
Ni 0.7516396245424963 6.249896628342413 11.897323025133996 -1.269513039122846 -0.6021001669789824 -1.586741146478938
Ni 8.492048293386414 7.134015311874716 2.1378183915337114 0.3389223045000744 -0.08315744665578581 -0.07856314241688406
Ni 2.866964745190919 1.1084721264267754 6.931318941425559 -0.27022242803051527 -0.5117657429587831 0.1569722757544071
Ni 1.1176189227701598 8.005651748303073 4.864402703202036 -0.7305812772722321 -0.1295907984176607 -0.8299564713384608
Ni 3.4459784426256093 7.4563394457362255 4.781659232541893 1.591151616841808 0.6302223791364953 2.676099815303959
Ni 7.148917395804949 7.92550750005634 8.571224606902632 -0.4425475320919088 -0.5936682341615453 0.12371377081159339
Ni 4.1503004470648674 0.6471746147416635 1.437195280528923 -1.7122199796107545 -2.236940482957993 -1.452782043790253
Ni 2.729379737067651 7.092962172821773 2.7733236001130797 -1.976648940887944 0.08709072027192098 -2.25161119759629
Ni 6.695193319376167 5.539174669362585 2.927939961713727 0.597614620403803 0.829512698932823 0.3178716544773622
Ni 2.1935306965343253 9.031998910625305 12.246813798145313 -0.9275660888638347 0.013617076562802354 -0.27493114636009425
Ni 5.839262464820362 9.141564263760001 4.424797767359693 0.8296775066454614 -0.18213823349707342 2.2093170648137694
Ni 1.1411165660833484 2.7851294140655827 9.06030446139335 0.2434438743850904 1.0574471648284047 -0.042204401282191835
Ni 8.456797156916966 4.565269762275714 6.110757879430683 4.556542189661643 0.3480713179891941 0.5103189832099276
Ni 0.8027785313714184 3.944857234812896 4.620929746480084 1.1859943524728995 0.6692908058928667 -0.9405468173942189
Ni 7.306402992499624 4.141667515684595 12.00163200684603 -1.0607057809750184 0.059749866365122896 -0.6160877395073261
Ni 8.275636399921847 8.992991888425477 3.7378079609762187 -0.34148286613839895 1.0291424043464406 -0.21445880000665002
Ni 4.904327207936 2.154262070353279 7.761247294547989 -0.45793532740188875 -1.0992131930215971 0.312242738326359
Ni 3.1051177980947684 5.198968034784795 4.57395781735203 0.5125288463770528 -1.003432658285162 -1.1519753152149774
Ni 4.946660337897057 6.51531255328916 8.631747622257903 0.7772393434504034 -0.43445267089891626 -2.1672242494087772
P 5.187560232603721 2.0744448270830715 11.982132232945851 1.7181862244965185 0.6582425184985051 -0.2266244888349065
P 0.6155195987140633 6.0263279973916015 3.954698216006448 -0.055235009213904875 0.014260109463439955 -0.7789067038504973
P 2.618039214060387 7.5606540332478565 10.569659462942186 -3.0577937064436047 0.6182145560423417 -0.27473779940236553
P 6.561541713970535 9.081040314104797 10.222780992543344 0.0581239007259257 0.45591032655206 0.437161328079331
P 5.9296092683346915 3.616385407392707 6.733067970057283 -2.3852828509515436 0.22538136045642476 -1.7306910418317485
P 8.325406557349027 2.6640254567592 9.996564555582607 -0.013685982127524816 0.7232407777467609 1.121141360553256
P 1.953125980792115 0.6416351504393217 5.041924361958396 -0.3508347396669442 0.7274406747607214 0.19518503937870257
P 3.6979778205354807 3.4532940111004513 3.1872483679989103 0.316679433941474 -1.1611068452026003 -0.1929540931656548
