# total energy = -340870.78270357294 ev
CRYSTAL
PRIMVEC
9.25053588411532 0.00000000000000 0.00000000000000

0.00000000000000 9.25053588411532 0.00000000000000

0.00000000000000 0.00000000000000 13.53909432490177

PRIMCOORD
 96 1
Ni 2.337508607033957 5.775895712131899 11.337921814814859 0.09588312175257034 -0.3522524459500772 -0.43497203373749604
Ni 5.862610233469734 7.4929616414775735 9.62645800986882 -0.7975628854991039 -0.43805195821440035 0.2782270435025467
Ni 8.347526126349479 9.293920678782799 8.170328415443272 0.45294327350393604 -0.6205663441039698 -0.4288270971820228
Ni 7.789746577266113 7.320716667367215 11.7504170759879 -0.4042429800847554 -0.042967504700461484 0.5014098536457559
Ni 0.18206256761322187 3.381968088067916 9.935948556395308 0.780777695620965 0.30555504189353827 -0.11859521863810542
Ni 4.921238721903328 7.740663235019627 4.416357435975316 -0.49545080784884354 0.1420735042657037 0.30343670999895483
Ni 4.363116903000302 0.8778517833587701 4.2118086662639485 0.2311961673659889 -0.3500389832385262 -0.1220492386249769
Ni 5.254211753219243 1.6160778314744186 10.920105645526442 1.0057620777492873 0.19458005880485202 -0.2224896407309265
Ni 1.3573218478108882 2.8354834430333558 5.002844172392552 0.34553775293406297 0.3643962804014627 -0.23387834218384235
Ni 5.493051333592785 3.1961340770634594 3.807409473906234 0.504899354856253 0.11835430627189293 -0.8866960901223504
Ni 2.9923355257946467 1.587142155909585 12.039950516867465 -1.0537020959636758 0.7375471670671039 -1.7314544023603342
Ni 7.100738929217681 2.206160251105226 2.210608833707249 0.7839915745725724 -0.9089258480548282 -1.9039170604408566
Ni 8.779433636618686 6.09537221191038 1.4173939013756172 0.36725791821997394 1.4276117151722123 0.22748323729077596
Ni 3.2624604177923135 2.8478144070768097 3.277720101427784 -1.281184304813187 0.6137426363139172 -0.12144888603681664
Ni 1.755002376114019 7.622237877417007 1.5063461272911807 -0.735959767975326 -1.3026489024448662 0.707215348852782
Ni 4.627617469312733 3.7855319570549453 1.0416907957089734 -0.7104881060667828 1.7225118484550657 1.3377344332940897
Ni 4.062252480982832 3.8796284058546533 12.131096044789556 -0.058446317062350955 0.72804179867983 1.2546952573837231
Ni 8.260968864117974 5.76312997291212 5.724721748824782 1.3589002687384273 -0.9927193856327161 1.237949405383952
Ni 0.9951818775384768 5.179060401464541 7.749560400223674 -0.683277864200578 -0.9072206924382634 -1.0541476681415265
Ni 8.028243887819993 1.5134523887901914 10.094708099611031 0.0005450738701926097 -0.11112462129267313 -0.5262706214431775
Ni 3.3674909997498332 7.737175783073355 12.824487521690347 0.03973357114419609 -0.3922045608629826 -0.008971350260674872
Ni 3.4504313025357334 9.074248208310259 7.730470994822271 0.5883391086391481 -0.27721531440858066 1.1600521786858409
Ni 1.7969813069686273 2.7702116633704827 7.971344767988877 0.3377581089886441 -0.5787794899751709 0.8990057607276388
Ni 2.104311853416985 6.932073912410261 8.70638215646028 0.8814795789184173 0.30626029549067896 1.2993972282767878
P 1.606374019560253 1.5908793723188537 10.1835104668488 -1.1681593811740076 0.2674703192066748 0.37752073359856275
P 1.7652519696325086 0.5855801839219186 6.7450280812334915 -0.6668037778049548 0.16177509645968915 -1.4809693048577461
P 3.835864121616409 0.6583458225282284 0.042119538996739134 0.5828300058954607 -1.44274265727638 1.874178138615527
P 7.185686598243214 1.990733776503614 7.375786956297064 1.1158970814351814 0.7195509875999995 1.1864340111134795
P 6.736369579849642 1.1707570444887774 3.9202179062521525 -1.0121026752553344 -0.820285266797284 1.2387456760330022
P 3.9929659688406955 6.04738968340821 0.7527826910404637 0.13567454271789536 -0.8726938623059874 -0.5153200359689448
P 7.101497473142334 5.477242168138724 12.72772321840442 0.08698427660104374 -0.41821306911160233 0.9611902046761831
P 2.34157884272722 4.494761276070362 9.254282133451817 -0.47067617200732487 1.146806369419528 0.10240935290686233
Ni 6.212104721486031 0.7842604138064533 5.998576456803185 -0.7113476258536008 -0.6346760440324747 -0.9476422907884196
Ni 3.266502901878577 6.274249820093624 6.6480741419664 0.10974625288790776 -2.3642789950063667 -0.3162564874714424
Ni 7.772827347532073 3.1807504362500585 11.744730771713698 1.0195035957050957 0.08112036162109901 0.8114026195956737
Ni 9.286150228822931 1.8519202382920117 6.807903047105173 -0.9628807050047288 0.3083950824454947 -0.5235087424273243
Ni 5.865163381313691 2.49345413729993 13.137768012679404 0.2996792998390516 -0.908561522736874 0.575126723713932
Ni 5.886421112275324 8.777713036984714 13.532270056927523 -0.3945473500635463 1.5067479564837472 -1.7566728106074907
Ni 0.9722868017638723 6.719061827617607 4.215803047564746 -1.161182435635542 1.546529093036427 -1.1171582075357922
Ni 1.5668372301216025 8.156474813229112 11.242985417376632 -0.30319682607400683 -0.10602535239289482 -0.5639108003934546
Ni 5.128663483153412 6.063790883144925 2.70538205931247 -0.6312024836615775 -1.274739577629108 1.2561638715094494
Ni 2.447210709503062 0.7576197961404803 2.183571368061183 -0.051104789095615215 -0.8048419356590203 0.6513730450721814
Ni 9.294845732349449 5.901906508981056 9.73562358126927 -0.20474645781489256 -0.656718882765127 0.043568371509253995
Ni 6.5390094014047175 8.043470269527065 7.26431985162279 0.8023903887947342 -2.385159180889486 -1.3347077306526238
Ni 2.8498957776017733 5.3908144134065505 4.016589061772255 1.134551206201259 -0.6804316530010346 0.8055587592203868
Ni 4.703814131597751 1.4576994103281542 1.8567379172671283 1.036965242824969 -0.07308797823492574 -0.22380116045349843
Ni 6.252982838596324 3.426786933372142 5.972162477261042 -0.2887045459951028 -1.5866925526291897 1.8707233472977074
Ni 2.568216966556639 2.5337772222702335 0.5195073078703265 -0.33331961360131623 0.33344945431096124 1.684424554665041
Ni 0.20995478275487345 4.6527049220403 3.3560980400229634 -0.22769355352936915 -0.9337477921945143 0.35810427674516393
Ni 6.389548496640965 8.663450420432023 2.536617136719851 0.751335479100448 0.872179384563414 0.798262996889922
Ni 4.301267821534037 8.065449542270684 1.51256063715194 -1.2215275123825027 0.5574524463626206 1.0113226025562
Ni 8.03209211065726 8.344112678688537 0.6948780379823973 1.874311835979914 -0.1504589001159215 -0.183834904473206
Ni 3.6302154632142947 2.08300786977702 6.347872058302652 -0.21579551654020257 -1.0019987540521131 -0.5946555377754792
Ni 9.258583632536741 5.139976888273551 12.202555507759758 0.12608689902946027 0.025903864349955386 0.015166423327793235
Ni 9.432771219137067 0.8871217451501766 3.7789511259817923 -0.8927266125871465 0.050397221505629336 -0.5464548097005363
Ni 0.16334688385274515 0.962555238242707 1.314613974745759 -0.8730396756811803 1.555830830053327 0.630249889940321
P 3.610114049210975 7.134346125294101 10.195696197482288 1.4039843055612595 1.665141280955397 1.0380276226512122
P 7.562053892370713 1.2033466816418812 0.09192072281094558 -0.24096121717255276 1.1887559743784364 1.0410476404244586
P 7.18029353594964 4.887298506542914 3.4113098621485096 0.20567745426959413 -0.14049998913099673 0.1998222810403978
P 2.008282042662977 4.176330086822195 12.792723957372264 -1.7331765272577635 -0.5103665486184114 0.8589412886065851
P 1.0764108312260736 2.6605095609013776 2.5413691368917357 0.3525764049483992 -0.05529028793187252 0.31750604360782736
P 3.0055637917977513 7.587576120274606 3.262962721879005 0.21554277709944816 0.03204160181657707 1.377145073881228
P 8.773957319504113 8.061231298006758 2.8158473309740617 -0.19433966065927177 0.040732187612039526 0.3544944479067185
P 6.461045886807398 9.146901915435004 11.136216659767376 0.5406441165560303 -1.2656823525228462 -0.19416071187924624
Ni 5.233231538327606 6.68727698706749 11.88755441713673 0.42714302461138054 -0.9149741111314371 0.16789894996923985
Ni 6.695232447740686 3.309693652905498 9.132795773597149 -1.2075157714844431 -0.9746985235752632 -0.04666269416386157
Ni 6.977188774855816 5.411794628298188 10.204740446203433 0.5899681596021388 0.5437379249900055 0.11635115979893511
Ni 6.023606556209621 5.305006444564032 7.680173057242772 -2.028534316903326 0.5544033751236517 -0.03891210368416524
Ni 4.056415392977266 3.8966123893383604 7.787470020438586 0.16944778251359852 -0.060776250747108226 0.2049701437899244
Ni 0.20082172889133118 4.013465155877675 0.9094747395347238 0.4237951911850701 -2.046289841114534 -0.20436696298828674
Ni 7.266129256399158 7.08575306143794 4.363338915856298 0.4783136339479246 1.9727087252932738 -2.044777518235066
Ni 5.851084066029267 5.414162765428815 5.08204818382275 -1.2401145313560706 1.2686018401624861 -0.16277088471405515
Ni 3.389905047669779 0.261990895986108 10.255633193226286 0.4634187191139632 -1.464679309448471 -1.4265922727687623
Ni 8.093339907305204 4.1568392081728645 7.5128835950889625 0.9660369912455233 -1.446991919471037 -0.1992710365226181
Ni 3.53303858603764 2.9371560805439327 10.130924871798975 -1.2601948470457134 -0.9068206287863674 -1.7092984350885854
Ni 8.542277653736448 0.36120011584869427 11.995068767920708 0.9468143955704854 -1.1879766730102508 -0.003660993791354985
Ni 6.434284087124193 6.727461314002795 1.0899554655489732 -0.04197865842463094 -0.955255070138671 -2.1888829653291335
Ni 4.501671426213242 5.037369946660655 9.922287365323012 0.39213822640142143 1.6695334964858215 -0.023598099034914197
Ni 6.9973271910018005 4.252924522140872 1.3200828914317981 -0.016120302600630302 1.4537539207852188 -1.061206888981153
Ni 2.3000069354419383 4.781241115126413 1.7042197104655963 0.5416512176643059 0.5149274285162163 -0.3847869282426728
Ni 1.8231048196908426 8.88532451839319 4.724670389311457 1.1093443679183281 0.5303717880957446 0.2244614197453167
Ni 1.1539025685044018 9.110399301694969 8.739539776503307 1.978888371741424 0.6532967444574556 1.0372382939806974
Ni 8.100795839052408 2.8403029721156057 4.557976661654569 -0.22150053734477979 0.2088957040965757 0.02221458842382626
Ni 1.5718787720598486 -0.023187392701666146 13.406939174449855 0.325859043558213 0.7661702301204354 -1.066993670866259
Ni 0.5674065815514991 2.325538413881497 12.43300392723021 1.2189630940894363 0.0730039031615517 -0.1753219819061884
Ni 8.706391406995946 8.809137106643838 5.850364374354412 -0.07051841773553662 -0.15222730487025396 -0.7763867656421211
Ni 1.2084622278654595 7.25497311038535 6.552826926529779 -1.1800967560415419 1.116730375969754 -0.18233749399207308
Ni 6.343286567772765 0.36861904545323276 8.79332979129691 -3.4708501710549324 2.6450735421257736 1.3872963033826173
P 7.769339895585799 6.317431320584879 7.89533589157789 1.8309306407808015 0.42296729596713606 0.7953903033278172
P 4.580819009375875 7.789293301018455 6.553692776668163 1.6484576496521288 0.3614680510110742 -1.130144849603447
P 5.964514134371974 3.7848381668799576 11.185227847835664 -2.3266804679273028 -0.03329758571086523 -0.4307492539054001
P 4.064953637397452 4.115794581420574 5.552098427805665 0.14532209310998845 -0.0785186623321938 -0.4745392545071569
P 4.402903456901948 1.6583620300060213 8.564126493927171 0.2406254310996888 0.1495638991054779 -0.15043293197399255
P 0.7308098936718099 7.026734643885627 13.146879790310914 -0.0636348032418259 0.8755662987577759 -0.6313503220933514
P 8.995405892824621 7.904480971137799 10.073126599901071 0.12923341507824196 1.9961101349363493 -0.9568959481762036
P 1.1954189725756847 4.99577953830404 5.640819390329565 -0.28844769278929033 0.08657598541903154 -1.038626689687792
