# total energy = -381169.96407235455 ev
CRYSTAL
PRIMVEC
9.19814263684628 0.00000000000000 0.00000000000000

0.00000000000000 9.19814263684628 0.00000000000000

0.00000000000000 0.00000000000000 13.46241151152993

PRIMCOORD
 96 1
Ni 0.1282423404155656 3.056616291461589 0.8449698714570975 -0.8074012117457643 0.11749247249222991 -1.3434407396502477
Ni 7.149348130955122 8.959487358605049 10.135296934291112 -1.2670067277612242 1.3483132372512006 -1.613993811547304
Ni 8.675411929950007 5.548402255005157 13.103637733706812 -1.3415057274110638 -0.5029414597989338 1.5523768100664554
Ni 7.9748354170789 6.234694052790742 9.766965601801626 1.6296076068251613 -0.7720685978827413 1.100902407798562
Ni 7.442428540980884 7.565812422601747 7.989913931850116 -1.3361069249929958 1.2409923059753336 -0.5190095690053901
Ni 3.544881282372598 3.4528538680579466 10.500990239551673 1.245386064167655 0.003500814064406874 1.7789686458912137
Ni 3.982823236430488 6.848366516641877 10.448473445745627 -0.20956521935977457 -1.7839589000169533 1.319144071886412
Ni 3.9781873726809045 1.261608007994331 7.083691790787408 -0.4822080839063243 -1.4296881380852666 0.15874762248727498
Ni 7.052979193446417 7.352857030676429 11.6147758214881 0.7197574471838507 -1.4930935989251062 0.6219925350275353
Ni 8.961280996365305 0.18662111034782247 6.7322822807981355 0.6877672674304993 -0.7657642529312683 -1.0587476288073832
Ni 1.3931414437464065 7.519812512657961 4.779869866376265 0.19363157884865362 0.3653977250827836 -0.39711331101850966
Ni 0.9748283254853651 5.117754427838974 4.352976720921549 1.0210567991248287 1.9310627676177128 -0.3364357906327947
Ni 3.2477536897083117 7.430167417214624 12.91920302179803 0.373310552171957 -0.8356656059080962 2.1199761150550906
Ni 1.500759709361741 1.4365198831175106 1.7305660980911015 0.6597846661746443 -0.43006251225102055 0.5379084627924219
Ni 9.11830248459773 4.5387221681166725 8.052258940768127 -0.8314795928512067 -0.3620802306737764 1.3133079248206092
Ni 5.989931484583558 8.450719708372965 3.7335977295500933 -0.32628944622741224 -0.581822647676869 0.2643837098615511
Ni 2.369882982842711 0.5895788497526041 13.058740681032026 1.1080976399954205 0.6968715437246128 0.1717527764976913
Ni 1.356496044583031 3.1164594056576034 3.2991253147905035 1.0460708046706628 0.09547405923960976 -0.5921847076374833
Ni 2.5009657096191322 0.1110730878858576 3.5084520395546894 1.5313847811958206 -1.2401286724234577 0.28474144758229675
Ni 2.6359576468986754 3.217988501030429 8.630926954052962 -1.6541079059593706 -0.6067366373097292 -2.616479275427849
Ni 2.5166761367704993 5.2735065724256796 11.884952857036751 0.7305753637349611 3.167998901245802 -1.2406166678034698
Ni 7.995779587233269 6.224990012600641 4.286324221936216 1.5520729056727915 -0.920544406130363 -0.28996978586077155
Ni 3.0945126379859635 6.219903439875403 5.858652837374862 -0.16376847274063408 -0.04957935359002429 -0.159421508625848
Ni 0.26410442196239126 4.131860737094185 11.457333058335575 0.5929223571344563 1.2880056986103947 -0.4705082789708929
P 3.8371062651588526 3.3260114849096163 6.56262898366233 -1.5995084734469356 0.25753351970893706 0.23244212395794805
Ni 9.172378363533845 6.665378672526367 6.4117693309970605 -3.5825730880532363 0.004678893532908071 -2.2413362980328433
P 6.44891878836178 1.1333399127801567 8.30113767768154 -0.5863012522735128 0.6412074173930893 0.4274407583574574
Ni 5.063936096888946 8.671079604898313 11.81105774075693 -1.245399948124726 0.06799667975494741 -0.37345607661088587
P 0.4802055785749271 6.2420249722518895 2.24430534426892 -0.49649081907758363 0.2794891980444219 1.3636850917215806
P 8.679035998039959 2.083728774014244 2.9492509747611626 0.7326381598012608 1.5571001836840537 0.16844428094974861
P 5.824585677515075 7.218370991226701 9.69117198893864 1.4892333446387513 -0.46871724850874114 -0.9274064233575189
Ni 4.791293959187738 6.742643068352761 1.691686470148413 0.7762600102562696 0.3473920325339823 0.7729507433773785
Ni 6.914988661757421 0.5156064690769561 12.440142611946957 1.8204852770777615 -0.8223130958605902 1.6464172221833322
Ni 0.2484206694238693 0.37142834702219674 0.06418003831888862 -3.0280447573159464 1.3055822740415775 -1.1995471514566696
Ni 7.460107370597352 3.319545190830336 9.668393709197632 0.1866330360436334 0.47390547757789997 -1.167724607629434
Ni 2.9144038124292226 7.799638399542552 8.788410189031874 0.06666510542771746 0.8689112553351036 -0.28766813431078847
Ni 2.76455687523782 8.643485177817459 11.171782247645941 -1.5894570027482045 -1.756925292937929 -1.6028318813932136
Ni 5.499486533933161 4.846317246786963 10.222102563187832 -0.7778052432562024 0.5102886441926244 -0.718800225476904
Ni 6.572275075555562 0.12797191503017322 6.427547824401893 -0.7989399683522885 0.18073466828132748 -0.4711459125548918
Ni 4.685552114613902 4.159675919591687 12.505476097317825 0.1348834142751677 -0.9918706644791756 0.14041411428540979
Ni 5.090555520879611 4.9238759831688865 6.08604655336312 0.14349455298294642 -0.6613743792592673 0.21666892028409138
Ni 6.460811986433629 2.1011592537869843 1.8997208559109788 -2.1673165520122675 2.034875171519689 0.4421605810661353
Ni 2.878944973630324 2.0745582260810402 4.813970139548548 0.0862455986628063 0.6282752827124535 0.5119133242802409
Ni 5.934880602557252 6.04355665454402 13.177977120262636 -0.329322062406149 1.565194273546098 -0.28708706499633785
Ni 4.227880145193201 1.832205571172251 0.6147127737520829 0.7943639189458319 0.7678964687829227 -0.2150640376908167
Ni 9.097459494009325 3.261863640088989 4.9445009777833535 -1.6386951709487263 -0.40666367371110607 0.539729832271877
Ni 2.1599353834692057 3.327216441558814 12.498286829249029 -0.13264269787010705 -3.5612851252087374 2.397902082377451
Ni 1.4471713319707207 6.448495673813207 7.727249019167108 4.250214788378455 -2.8199702635690853 0.3457015322054369
Ni 7.431556336711027 6.628668886366469 2.1025592110542197 -0.6461912437609258 0.8293990561730942 -1.1780303604308162
Ni 3.745906683656627 4.290280342965374 4.06462507588321 -0.006828078665426951 0.12714593642159394 0.22936039970883082
Ni 4.9900566174511365 1.4469045858422722 4.133498926248553 -0.07417118399677548 0.07396755262640164 -0.6578396266331316
Ni 3.734878110966645 5.476316413327604 8.172396797950046 0.6836193067003968 -0.44857136968848554 -0.026436854035289954
Ni 8.374540693345086 4.424913552692866 2.5991071291606653 0.43636428609933237 -0.28016488395520783 0.5425531606532848
Ni 5.805646702395247 2.4448386449366732 6.1819794989239485 1.3533754822654562 0.49525180446416 0.08713468613597898
Ni 1.9221358090287572 1.408327576783237 10.780550300122052 0.17089248537992505 3.505939044338265 -0.15028329377000568
Ni 5.01983100427138 2.7792739030142757 8.677883470802216 1.232629021612303 0.6686565147429775 -0.08878610569647288
P 5.156736155161862 3.7339674948729766 2.4418924799386743 -1.907515319315076 -0.09096100186060464 1.3586403302088215
Ni 6.526164787903452 4.36470251280244 1.0380692334692685 1.0511191657278478 -0.2991846195908202 -0.8493089077231437
P 7.474106943269706 7.794055127129858 0.2031142994140495 -0.13967980722254653 0.5534749497721113 0.8157606394540531
Ni 7.8305257615883885 0.5714456319035383 1.826593784518241 1.5794361281770926 -3.5904774305019775 -1.5385082796144793
P 6.999629967756763 2.473104536409829 13.25635541112886 0.9834351321173126 1.0483570296016782 -0.10161359647844435
P 3.713372854128299 5.419775432238931 0.4683031823607184 0.12094289293467558 -0.27373635472104474 -0.3594993573204776
P 3.9486245431349483 1.7362321537850371 11.885303306260678 -0.2514094090890702 -0.1755605802795557 -0.6597008482115865
Ni 1.4643626600420934 8.17334052735621 1.2896448657227157 -0.003680019954748501 -0.8672379813977387 0.023586014850056156
Ni 0.21203281824658185 7.555510503158227 12.47898176806326 1.0060148171900416 -0.31534168896665693 0.33535001376778373
Ni 8.29727629751869 2.3694322738670572 6.861992644734403 -1.1174906511745464 0.5591635155164563 0.637016005019561
Ni 1.488498585595481 2.136710074009486 6.643040063990178 -0.46146750892486327 -1.4273525479735547 -0.06292492165899485
Ni 8.513009528436815 1.2151113983630901 8.986738694975866 1.1339210288164276 -0.10638607816642322 -0.2739584980341798
Ni 0.29257083293900127 9.078989624149871 10.738870757644893 -0.23677006190934063 -1.070256657888247 -0.4551027430491001
Ni 2.219373779401367 8.713317474616742 6.743415712311025 0.062242550879989575 -0.4303890423525039 -1.7099442962027003
Ni 1.9657993908130302 0.8786129969540758 8.486677086487791 -0.7010796682686893 -0.0555787657065688 1.477165871951256
Ni 9.11633408213263 8.563967237112795 3.2843843718439105 -0.2356945694569747 -1.6029285548720782 -0.8247463878924312
Ni 6.4551091381702514 3.6384631827461376 4.175407502470483 0.3811696432050597 -0.15026298205503152 0.0391941537009583
Ni 8.842459393355144 1.8988645088572365 11.675962784282952 -0.932577168925181 0.5652891687982199 0.6821378370588639
Ni 7.627016861867083 4.605086765246129 6.236475732965929 -0.2521390881662432 -0.12231071981647967 -0.8317104779150902
Ni 5.68791967832596 5.983621558924402 3.9554182910822546 -1.432713812285468 -0.5949118767606594 -2.077599964081725
Ni 0.7125432960818381 0.986381192289883 4.611939381304541 -0.40758798529758833 0.8849549390615276 1.0946736532800307
Ni 5.5993599636811355 9.00048347910484 1.2283291289348197 -0.39576193919693775 -0.5024732619132637 -0.3730840379834478
Ni 1.5783276438860243 5.65079597575985 0.5344930147853293 0.1354007202312184 -0.28120823761805763 0.5431645689850388
Ni 6.026218156194882 2.3455906888691977 11.271780772130017 -0.9640132759472752 0.1856681010272028 -0.3148925172443803
Ni 7.218398585653782 4.588465722001094 11.634740389481097 -0.8941939411612922 -0.522098749453675 1.3125288805627395
Ni 1.603870885220536 4.349718738897536 6.60296283791218 1.3024157033881374 0.9291804845388062 -0.9769870624991238
Ni 0.4424288079012366 8.075913803476073 8.45596908821798 -0.8561292730790868 1.9029464689974709 2.72610442935686
Ni 6.592382214755145 5.3824677668256165 8.1618695240187 -1.1831602254582139 -0.8058390094649669 -0.5770398815762449
Ni 4.1005226660726946 0.6230646870152217 9.756034529420662 1.264352577967829 0.973610175607091 -0.4485993947129435
Ni 4.809956990036757 7.891187510454468 6.9850794263570295 -0.9977484634161914 -0.5373749588864551 1.1814733246740943
Ni 7.312964687259872 1.2028318783121097 4.367300068204985 0.7826972812411811 0.1892265078024225 0.32262125334720565
Ni 2.9977941710675666 3.5800641769006885 1.8135885310350341 0.6692923485547634 0.996317901617252 -1.2086167178581055
P 7.957699277861689 8.198276691294943 5.096141552735013 0.2003259601496937 0.873335095434412 0.13913961844836037
Ni 1.788643168953941 5.204962015556836 9.59322005112973 -0.23008236547651986 -0.21023576306423788 0.8921532565821797
P 0.48724031785207317 2.9026761809198596 9.74172405953653 0.8063719991503017 0.2580428552451879 -0.9950616606126476
Ni 2.6855080397935303 6.80426142402431 2.685953229883768 -0.22395902618760138 -0.9120430535275711 1.3657923678725703
P 3.35743233921235 0.10732484487404147 1.535684136089507 0.890112314892751 -1.0066725053786985 0.13442781479498783
P 3.7983544913949716 8.143492555397087 5.151943922992153 -0.22140206409370256 0.6855445487475678 -1.144140649661907
P 0.8767282975844535 6.94399960276176 10.488941592873935 0.30481276441087507 0.07565599607241809 -0.2879699818219234
Ni 6.453085546850988 6.675974932525415 5.869731999847826 1.041895847357367 1.8155135348947833 1.9323244079389559
