# total energy = -340855.5937587673 ev
CRYSTAL
PRIMVEC
9.44612715339092 0.00000000000000 0.00000000000000
0.00000000000000 9.44612715339092 0.00000000000000
0.00000000000000 0.00000000000000 13.82536191815108
PRIMCOORD
 96 1
Ni 5.81087946760048 3.526003045172913 2.1644298020305532 -0.3159050176692947 2.5764572265089565 0.24919260394340956
Ni 8.935100948180573 2.3484110724358263 8.348361383653659 -1.2582631772406394 -0.3977751129722246 1.163911147420615
Ni 8.264151995543545 2.900952823488922 6.231491886310377 2.009988178470022 0.13207062741672093 -0.28860915806781906
Ni 9.46039062292177 2.85810519154758 13.189782006362277 0.3874076536949715 -0.5566438344183962 -2.0193541930659547
Ni 1.0066926435742218 8.852853520642375 12.639781263464432 2.1757621116764594 0.25296466939133205 0.6308042197818944
Ni 0.969352103657087 6.101565132885072 1.2119522595948096 0.30493309203882324 -0.17877600189305987 0.477332500981578
Ni 8.601208698129733 6.538448505302853 7.765636423089503 1.9439244540717295 -1.3748922732913096 -0.0010459247660111017
Ni 8.0572062458586 4.9767581176630244 1.8263028532585273 -1.07821602194464 1.7218870703868732 3.2720213642760556
Ni 5.173946018186726 8.068862766541054 8.375321574642149 0.7044485847409223 -0.7460953137474312 0.8151500024532478
Ni 7.491118748728809 6.381680582088896 4.334292071682241 -0.8040834602264411 -0.7088410573816631 0.13687010568789332
Ni 8.006518328531165 8.984560869001752 7.936352497389127 -0.6326106768630138 -0.563051794827269 -0.31556768893453396
Ni 2.5157114272226657 1.7513024943326312 -0.08413759754513335 0.2574131920809889 0.9935835334052243 -1.3100459662398858
Ni 8.051736938342277 4.822757909651627 12.335665094852196 1.5585266317179352 -0.6464491254080028 1.121390757559901
Ni 4.403028703813537 3.891124190990524 5.29819659391504 1.290496069132416 0.1877661212068121 0.34656593708826117
Ni 3.2328613868758103 7.835836260288637 9.782204110414543 -0.31938166336398544 0.7199402526186182 0.3183722482628646
Ni 1.5960365053070946 0.43747186612808653 3.68401691253437 -0.6183742215486576 0.9019512165092078 -1.544513862378611
Ni 6.843662313869142 2.7922279020504646 -0.12288749960637058 0.6173725197570207 1.4436579700017975 0.3492689378417211
Ni 0.7670415684769066 4.02883927610358 9.6699000514667 0.44659907645346314 1.0140340879500924 -0.32618480232874786
Ni 6.234453247115846 2.106306838164092 5.870718792737608 -1.6190095195943408 -0.421669403091319 -0.7117559170356129
Ni 0.7171424027515677 0.25718308675585366 7.323875070703797 -0.020822078951673817 0.4249529589385972 -1.0646953617503858
Ni 5.045450352997556 8.9941864723854 5.999363706732921 1.5498494156589115 -0.3517731923208135 -2.0013749828797143
Ni 9.106264768898631 0.003583860572871484 10.027313157675815 3.0111035014759175 3.0610176126975412 0.18833022124039825
Ni 6.645548692902264 8.116716845777129 12.73983558495603 0.4691399378684566 0.23431183017683518 0.935006347191964
Ni 7.566820010275968 0.616856651149176 0.2505859116791709 -0.9999267020144328 -1.5362899318069219 -1.0255243479778788
P 1.9173937448671574 0.22636604212502623 1.1656785174010151 -2.4061594372902366 -0.7482630108227113 0.5076542918935708
P 2.3607571603871786 5.854558358715287 9.799209028188088 -1.1407491074818545 -0.21633570531438873 -1.2271155479932414
P 6.87841461499617 6.628479541465315 8.785436512448955 -2.5745823780837465 1.0492006085488963 1.3871906310426882
P 4.556320452302094 6.841357458888171 0.32508373665019946 1.1722680040257423 -0.27044200024048903 -0.3916664289713254
P 6.887804065205539 4.3058091650259955 5.272647654296048 -0.4907647152270838 1.0127053418363399 0.49211634415897176
P 2.0518310239212085 3.417514276908735 12.160193840235271 -0.26645781878176045 1.0716088010407672 0.07655228263444236
P 9.382233368362101 7.3737600672386785 6.029710334240583 -2.9414518026160503 0.56488139183684 -1.7717651861642392
P 0.7338422106239437 1.7106652561025493 5.303713132066218 -1.8086245210844334 -1.3388217528209974 1.567002016178798
Ni 1.6530060970703733 2.476160493594271 7.680388905625255 1.5683945256509504 -1.1262565702926346 -0.575074530319758
Ni 0.8934827010498408 1.7055643475381037 11.313113348706034 1.373261679666422 -0.7304264968619227 -0.44530966821807827
Ni 5.578627543759702 6.3910700322982645 5.812209482278024 0.15466599621873364 -0.4752522214137815 -0.7615065060961789
Ni 9.138683876663773 4.653549437216607 4.757389766398259 0.6601690460972566 0.4788872470632075 -0.048465294590239114
Ni 1.2051463251120633 5.681977618951549 11.840592635679155 0.6834493567814359 -1.726437665872033 1.0250142411106797
Ni 7.616034331795895 4.850567307454827 9.650130252328685 0.051782017668297924 -1.3704195822319367 1.0479855051948725
Ni 6.0298690291737 8.23234688603153 3.6707715532953604 1.961814961198905 1.4688046444707543 -0.46265510147506134
Ni 6.014547411226421 1.4713570754142884 3.3668348610955756 1.269790718264265 -0.4445288241879957 2.349542717237457
Ni 6.689936043539911 4.815446607375923 7.498350703537956 -0.7913112481624371 -0.7459500464188186 -0.7700911624413964
Ni 9.263306629794753 8.24024384817945 1.0480232275239896 1.5486034590669522 0.08549046566433664 -2.131605728874219
Ni -0.14719616275404446 1.2560137188519498 1.4602484300961627 1.3617883889195 -0.39117714803973275 1.0632285473968721
Ni 2.9316338438913645 4.782347378468854 0.7014986718745712 -0.554662028101677 2.273217463012156 -1.2856423405845407
Ni 5.2819246955944585 7.759530446615323 10.91707219547361 -1.5354419819843297 -1.3261868376658064 0.4446959458934793
Ni 8.394697470285463 0.8873077678487705 4.120773706850737 0.3072766525703354 1.3484016831999488 -0.19570285955538555
Ni 2.542226705630811 2.447822112680685 4.726794705751256 1.9851299817757615 0.6829225377436884 -0.510074214188973
Ni 3.916156427464191 4.759261044151253 2.9707937078631517 -0.3654051812819513 0.48458044079324286 0.20745614343657173
Ni 2.7493235933472957 7.058297210908642 13.120641079996613 -0.4321844436900299 0.46185703105379816 -0.4638524642172721
Ni 8.462964629906292 2.7663927447842456 10.759795126015906 -0.9521916007219988 1.2616038115780983 -0.5433921116148126
Ni 1.684924560106042 7.154836628554257 7.0386020361737 2.375090226689258 -2.1837302174836006 -0.46406098068365237
Ni 5.404525977553602 8.791670956249945 1.1216775133564905 0.05183883904816234 -2.1145240908015843 0.07274113641846829
Ni 7.3544238453286415 8.40114917500679 10.2470678555337 -2.824584879522961 -1.9136792820339432 0.03193001593937726
Ni 5.839368986545605 0.7018576246994765 7.722847357135382 -0.5673213687369004 1.7062200532735776 0.4109679575134148
Ni 6.05721556675531 5.885740023847203 12.298765689064615 -2.1141937040453587 0.24704161903867777 -1.2856184293251407
Ni 6.985599817738323 1.4578585599724503 11.744133510112793 -0.11228496014936146 -1.5449008134043845 -0.6243029283282667
P 4.553855013162612 3.108767616855218 7.369249541609933 0.8134253064526571 -0.6516648652809874 -0.22699009970444134
P 7.715369803024984 2.7243480336354557 2.556060558580126 1.5782385083245658 -0.6088382570337644 -0.29138337837884654
P 8.529984900766921 8.970363340164045 12.095892164716952 -1.643415459242531 0.40627389447185513 0.26101530760995045
P 2.205047203393996 6.63176679365129 3.1634918642374434 -1.1566927752953047 -0.4610882712085737 1.639188308535061
P 1.8300359626375435 4.322302102717702 3.5053793161567026 1.1450598190420667 1.682366900805064 0.8859409571238807
P 4.2887494597160165 0.8592896106395083 4.358127483868658 -0.8619476795330768 -0.1717571473730655 1.59825763175897
P 6.2690166257034505 3.6848869008284177 11.805172493375263 0.7379780839569354 -0.2271186548625056 -1.9685759340718225
P 3.9397717448921794 7.285400995550119 6.817009122007218 -0.6814909475034844 1.417195919155527 -0.9731088104906402
Ni 3.818917996422707 8.155077567407153 3.994575339740963 -1.8277949233652973 -0.37419244055627815 -0.06284650301257565
Ni 6.252712610551168 5.370123183124509 0.657809390020096 -1.7266330697122907 0.9126395494609895 0.2845326740056003
Ni 4.476302310729099 3.548938241458975 12.878753162032519 -1.1113943084688214 -0.4793297339172648 0.5076740893879128
Ni 3.057919115369274 -0.2023124244055746 7.017324635171082 -0.9640081337409526 0.043124341993299925 0.40358837721989205
Ni 4.958612107751358 5.406859170915488 9.680352190960326 1.558694010533735 0.9726493543557185 -0.850217278470026
Ni 3.459549541930554 1.113509447364498 2.398672969436859 0.5216968860295661 0.35137492844113033 -0.9652844293502151
Ni 3.657360886834354 1.4117142297181613 8.648966426870704 0.09831152868840488 -0.057104201212159714 -0.7947285013741022
Ni 5.097290697815476 0.7439892402164018 12.943746294045132 0.5372700578774746 1.0039273385333936 0.5866442374352284
Ni 8.88536708967723 6.327072522068416 10.842498801486812 -0.9509423016959301 2.3786427199272064 -1.4224293996403246
Ni 7.673570691177446 8.756824193853205 5.56284117636544 -0.19537658656421836 -0.9321655353090591 0.37193269798782397
Ni 5.554681611887721 1.5196173381101248 1.3124212660604422 -1.1460697483638198 0.09824005202052113 -2.4813276950929586
Ni -0.12980017532389126 7.349181244859628 3.3290087902521215 0.7584180969788422 -0.12543589570902267 0.13421364190165272
Ni 5.668044581669036 2.8932069993725418 9.511129549334848 0.30848121440139775 0.1846748838759981 0.2770402222832971
Ni 2.2656818924220983 5.0199835946832145 5.728413834529248 -1.9387105139709577 -0.6993009791017117 -1.7065797506058418
Ni 1.023582318598719 7.92918288701799 8.865098535035136 -0.9268109558653652 -0.009517452572131995 2.665142287851191
Ni -0.017853179975559054 3.5788068949418945 1.3293666732340694 2.1410995272972677 -0.17868704172367936 -0.3862740543111605
Ni 3.279393008335918 2.216420340267315 10.79538152015449 0.14126026433578898 0.24386707796543808 1.0746866686351428
Ni 2.8346976889129585 7.802359186302722 1.6169171689769217 1.0053131631373267 0.5365311228289211 -1.0246391171594482
Ni 1.4797452361647097 8.162152716508578 4.935681634528782 1.0885464573363706 -0.9511328204401812 0.09505265543147501
Ni 3.274943882532485 3.8606982160163033 8.88922394331957 -1.1085406410701102 -0.6471615780939952 2.1865712864768216
Ni 3.661252691146487 5.360592041010572 7.339663327323453 1.6618325282971378 -0.139944630848159 0.7328875568079055
Ni 0.5237423991433158 2.8328556941535754 3.324391523388601 -1.342105822888908 -1.9100542836868457 1.2690224726396724
Ni 5.019190120017633 0.5409494640340451 10.35263777056378 0.5796397810929372 0.0048858673373915855 0.009778933763634772
Ni 3.5132791121427127 5.396808491818135 11.44539502158526 0.8021147665358443 -0.46247409581250676 1.7832261356159866
P 7.2077727241008365 1.2188526553472676 9.15617715920173 1.0304924906164317 0.2504483307273816 1.8978325448096731
P 3.759700226440284 3.0476039447167285 1.1823632114702374 2.0989282932458564 -1.8657732023812836 1.2979584389477323
P 5.634255785493071 6.296731562236937 2.977885859993125 0.41465620499827943 -1.2564850022942942 -0.12006331854319968
P 8.48609819485875 6.3355929285964345 14.126477904467245 -0.8376101312289768 -0.3616518848871062 -1.6399421559819498
P 0.7561067318950511 4.2759027270351915 7.267301271660611 -1.1623605151040435 1.4620043337194693 -0.3200763754381649
P 3.6786524570274284 9.000231993646965 12.178678021492507 -1.2376426727768104 -1.419633324952426 -1.441267358282434
P 1.7850723982546541 0.5622089173954171 9.42842681847664 0.07734572507001519 -0.010216021301053372 -0.3802988105643322
P 8.044368959304744 8.975058065268728 2.4888967065895335 -1.9865805981793594 0.3394516946409832 0.9721245922005
