# total energy = -381167.7701782042 ev
CRYSTAL
PRIMVEC
9.29260210975069 0.00000000000000 0.00000000000000

0.00000000000000 9.29260210975069 0.00000000000000

0.00000000000000 0.00000000000000 13.60066249823210

PRIMCOORD
 96 1
Ni 3.5294789514303107 5.537331482749548 1.5284564826395122 -0.4473650080852101 1.816659218463452 0.5427477931625944
Ni 2.6689282432554178 5.152905827322392 10.384133422011708 0.9986550343908607 -0.6410876039857732 2.0379214145451803
Ni 7.9531292453591735 7.22662432218118 9.019918105566246 0.10835837140144564 -0.01258812107765574 0.692611225786362
Ni 9.278681761592635 6.776286240204076 7.080790871446425 -1.2948872562215763 1.6650608054264484 -0.8653749600470708
Ni 2.0916903872805555 5.138567342313712 13.181381348862631 -1.3131806552141256 -1.1977311812938534 -0.8853331483365527
Ni 5.963313654676263 8.397436428586678 4.76661050035684 0.3354358886133707 -0.09436822776994071 0.016542220629397315
Ni 4.3942020379389035 8.50746083720805 12.359465563093497 0.722331121448298 0.783724951174747 0.989218314457993
Ni 3.999935516909549 3.6653460864347935 0.3783297084629985 0.6511599006201109 -0.8821300680182227 -2.1001333692975512
Ni 4.161663963501302 2.9420749887804676 4.602423231254849 1.7027238671948608 -0.10959301513949513 1.5736143792889932
Ni 8.654720702362008 2.1647302396254866 7.944187903638272 -0.3473403533604405 0.7189647760792263 1.0469051276465002
Ni 9.18005008312074 1.9436964065623155 2.8276997838654707 0.31691648965294456 0.5965455557093403 0.26954674211972934
Ni 8.512014212227008 8.4426821081118 0.7216792749181061 -1.328783394748389 0.5380938393303507 -0.6246482274828274
Ni 2.010380119084863 2.7861358332842485 4.806528731109782 -2.4926279505971265 0.9478119835970643 -0.10363834021795698
Ni 4.90076036249703 1.700713447387347 8.40840541608133 -0.6565509897286951 0.17050373458193863 -1.7341638308716973
Ni 7.255961066946186 0.5030847499008058 12.232041686338457 -0.5353396736239813 -1.5627262716215797 -0.5154722452760929
Ni 3.123280729330869 2.660286123321475 6.902634962898519 3.355738282979737 2.1459625118165238 0.4259405196628471
Ni 8.388794308652736 7.103376540800669 4.9237121603732055 -0.521530792765347 -0.18911954991091298 0.3669511856128325
Ni 0.12563690937515257 3.840335076194004 13.060852582850584 -0.32986379384223186 -0.644813903797425 -0.14916486389484632
Ni 3.7682523618632624 3.433086790059577 2.5129807244173263 -0.5958264181551287 -2.4826394719258467 1.0491011068565546
Ni 2.202913541570184 0.14034431068638945 12.851157582844829 1.4062317068345394 -2.032001963736952 -0.1897939502701183
Ni 2.086932575015848 4.954824721395606 3.531289150315399 0.20061520925533835 0.9984226066650805 0.9960525637710073
Ni 5.035874796733072 7.508208750394423 2.7768060607964227 -0.6797734505917454 -0.2508872180370131 -0.8364366797461659
Ni 6.1899044637829785 3.5593825449221668 1.9220186244312398 -0.4498510077318575 -0.8768965875334253 -0.7269364814307931
Ni 4.757124612154078 1.4233757383244388 1.4176654343465813 -0.23328184625042403 -0.1923293150974623 -1.7273046418580187
P 4.524391393072807 1.6943294297587252 12.46832560867431 -0.40325361958829264 0.3045371421519852 -0.2471259512223679
Ni 0.3645348406759693 1.0592915888493255 12.190409899762056 -1.5700510874177669 0.35790733024300936 0.8024551805943986
P 7.056625459738665 7.557682563865723 12.753654026265385 -0.9819513484829349 -0.44655202526561155 -1.323476894933811
Ni 5.100021628887914 5.053855981756919 3.198046217881964 -0.8033789779602486 0.2297036419808625 0.13409022894991102
P 8.374056241754635 1.3538206117593234 0.39285404551326913 1.949658014121397 0.7369717541796083 0.22830779007460036
P 7.219924356081855 8.098549175301391 2.7673945134102973 -1.17088346497339 1.1586244451003787 0.3453870862888116
P 0.4665815504120835 5.466605488322414 1.6708275098394423 -0.014641918282890912 1.2388912004719308 0.9388069518849768
Ni 0.07638425983334565 9.181165195370282 6.211735573848366 0.7714697879564778 -0.28113033319227065 1.2267918461052356
Ni 7.741545988610863 4.051332899011306 9.364260121923445 -0.17755498500176517 -0.9522129408782376 0.15584638968008
Ni 1.9993683856206461 7.862452034267338 7.284664056249369 -0.2356719437491554 0.7941371476470066 0.33590048695461505
Ni 3.992835968920805 6.990936055638625 10.576473558373774 0.19638548744470694 0.7269971594653996 -1.1054702296749026
Ni 2.069416020095976 1.1839425531438423 3.182527572409186 1.6254295641880716 0.00045251415638631747 1.1745642562590868
Ni 7.144626401431603 1.0226322736456677 2.106375486346802 -1.0144976578500722 -0.44391175942928707 0.4797974175823027
Ni 6.361548116793566 9.262038711268238 8.68335678493022 -0.18428304775421808 0.015897387956546813 -1.1447790545768541
Ni 6.619547920929019 0.9010060513280306 6.1545173058040055 -0.18730075153461936 -0.09556301940899027 1.9401482748587489
Ni 0.41615059892659506 4.441873086606778 10.948574435662879 0.5858813911272749 0.09177244201830648 -1.2173726096738648
Ni 4.692847683570124 3.976332307627599 11.80213803633419 -1.0111032874565424 0.5979624906615251 -0.705617922458675
Ni 7.805516261326194 3.795962901264354 3.657163950303787 -1.5118138010424285 -1.3768509396795772 0.28487051696099325
Ni 4.779594123982328 4.151572197642957 8.645723605028628 0.17993814052196105 -0.2455259537250997 0.130437205578356
Ni 2.357365880733682 1.750038579225374 0.7636307270060438 0.9278928760756343 1.0902138177364644 0.6032257959429933
Ni 1.0231061963517225 0.13406251168064223 1.6024302414934335 -0.06747526003383862 -0.3738296579002207 -0.8188534194467639
Ni 3.468974819290636 2.5830553074386864 10.308227731185456 -0.9822020310411601 0.858024947439903 -0.3033824597222517
Ni 5.965553171777423 8.424607997067158 0.7574167639954769 -0.06996280234238274 0.5639524522646675 0.1945090963576005
Ni 4.1523620688197145 0.4458711281574846 10.345289416059158 1.0841637548876424 -0.8437260143187276 0.664412651864959
Ni 1.4326032921893899 7.138307432017539 0.6385495152352457 0.20804338339860942 0.9364137690624518 -0.7240846138042949
Ni 7.802115168965095 5.867980849942592 11.30621695337648 -0.4684002314889546 0.4568194686298907 -0.8920051610400895
Ni 9.264566299033863 0.062069006329863986 8.425174845794007 -0.06921898219782273 -1.3784087710850002 2.198865787573458
Ni 1.7278292602553507 3.804186854104719 1.6618787340368764 -1.0032246560394142 -1.3337456238496708 -1.3703311362831885
Ni 7.233538018128334 4.699083019565473 6.94429462728116 -0.15530234425115189 -0.1515603607102164 -0.31783488770215584
Ni 4.6293977965712445 4.888429079537522 6.243519990001115 -0.06981882056535073 0.25919573790270845 0.10440478607033633
Ni 8.477008980193503 3.7606974763726226 1.4409898655661457 -0.755420447803099 -0.4664346231221515 0.3662035088135306
Ni 4.273128725444997 7.76369025936633 6.703412725436369 1.102248123193179 0.08002481456407508 -0.03544008597516477
P 7.74932389655141 0.5662874536843697 10.124904206621137 1.2360110507106583 0.7785716891085817 0.024636053381125317
Ni 5.676079324398678 6.449725617926015 8.291779542942674 0.26461408070480236 -0.12017978951640591 0.6402342548465426
P 6.04377829608272 4.9224400031485205 10.345180692614829 -0.7999874357801964 0.596574866285379 0.05075640461726097
Ni 5.887932066607296 2.553950877725668 10.335334251451382 0.4975508849109819 -0.6234102413106682 0.34158905269896006
P 5.524470521471509 2.81385566528742 6.519260300766556 0.051570672988440217 0.48067416376030125 0.0787793721927482
P 1.7973936794225458 6.927021538535771 11.867693626964286 0.4241998828226565 0.07106477715730987 -0.4871852254059416
P 3.7268816974052936 8.478031166422248 0.9953361842973215 -0.5021030230580384 -0.07956047333314685 0.3570917763202496
Ni 8.499840903502854 2.2771242617771326 5.739765243490376 0.5934738587625521 1.1208181728858826 -1.9459324856406939
Ni 7.999685181777508 2.7523665173273173 11.416831442229897 -0.5907708580090922 0.137941227264885 0.6544917932068213
Ni 6.003113869382793 5.847778733021743 0.9989900354349839 -0.6371275908967609 0.908189741219752 0.15096000812205612
Ni 4.419570841615959 0.734535589895105 3.4681143243380737 -0.19659580368330012 -0.5601405347177449 1.2352641452423048
Ni 7.667325975801834 5.955266261275408 2.7991389713741035 -0.1905843073818976 -0.9760450103008287 -1.0060487557517706
Ni 8.443248956838652 6.177889129294176 0.03083842926105438 0.3853476858421493 -1.5718238630474737 0.4963357815569581
Ni 1.8858871290256978 3.7924688828824595 8.852807383850044 -0.8898066107268741 -0.7869869097554705 -1.2175209623262708
Ni 9.03412835266623 8.000521515964664 11.87314745512475 1.028015489830849 -0.25569492383830156 -0.7875872623436307
Ni 8.25354977798758 0.29178770529654297 4.4177532086492075 -1.2064197102067868 -0.1186049888301183 -2.673984568733169
Ni 9.27218623273906 7.604591619163077 2.8113931257363505 2.197639628475841 0.008785973722746159 0.11964782827233589
Ni 6.616806603315564 4.563931414921113 12.88883072093536 0.8928289424929656 -0.6547509604054788 -0.04651742683524892
Ni 0.00914113266561176 4.620058731481339 4.8779321562285105 1.0278707367228685 1.033888146561542 1.3325042952434019
Ni 0.48310379690944827 2.068942097389921 10.136791303201242 0.6856782461119546 -0.28646125848688087 -1.0270711236397085
Ni 7.182391536282723 7.924628834781324 6.932842424478374 -0.5161008799990273 -0.04802794994250438 -1.0596120336902075
Ni 2.9827022450720753 0.6235837795861985 5.899409359435695 -0.42482234689800386 -1.310248826279311 -0.9666674257406707
Ni 2.3675691578169813 1.1547359048079495 8.463991903200528 -1.6920481326485697 0.955425277167948 0.42444310918171413
Ni 6.291361093287044 8.01288067673041 10.554440798843263 -0.030322819353257452 -0.6752501088000952 1.826794507125241
Ni 2.0169964517654724 2.7336233389329503 12.183718297004601 1.0568511831156184 0.45461911854446213 -0.12418274002821193
Ni 1.4966293205171983 5.184026751686663 6.783343971483462 1.009820564089377 -2.5236891907783052 0.41645674854212794
Ni 1.8281521923057162 8.643625335479078 10.379712931202485 0.21473776469964953 0.9428332994355505 0.1786811281864084
Ni 6.532299680004521 2.25074256447341 13.461690832070568 -1.5550379018383864 1.1723667343871358 0.38104365915015664
Ni 3.961203951442161 6.229082074150184 12.92307767663918 1.5743867386786434 0.411546198614388 -0.3553850780417879
Ni 0.9867907074250061 6.579171564893557 9.682447180467664 -0.19567226342776625 0.30865347831320394 0.08641169192702537
Ni 6.319582725802508 2.058720235102462 4.2167495793684155 0.19099182723296138 0.18679527265311058 -0.6576213399747385
Ni 2.4175354791984947 7.413043212498184 2.815703963841034 0.9625127801423488 0.8423340190672073 0.5099934815497088
P 3.4179770190782977 8.73435830218339 8.675331693774357 1.1266064974328855 -2.4922201736357468 -0.6027180030686394
Ni 1.484288744955612 6.730771075218647 5.107932421038199 0.49562024354717227 0.8730021375750255 -0.7316621690412367
P 1.2328588104903713 8.85592412258751 4.458623931115299 0.6533695066769198 0.14630374029696738 -0.9038720876810045
Ni 6.3602006894920375 5.843132431981988 4.725564147711446 1.9687302002614997 0.443587543320649 2.504550155956009
P 9.081418404648845 5.326937679067413 8.46603162935698 0.32823808531335086 -1.3394982100627317 0.017368058964802348
P 1.1579604377295387 2.6720970205645296 6.849076121553068 -2.6020893252547634 0.3734779309877568 -0.028427659213073622
P 4.355247450021607 6.635847144976475 4.660185116520862 -1.0976142239655935 0.49346900153212436 0.8038332918888479
Ni 3.2611086033741277 5.9612878674229295 8.168883951180977 -0.035225141750881275 0.35978474977138036 0.3381283478438693
