# total energy = -340856.6695613726 ev
CRYSTAL
PRIMVEC
9.40099596546867 0.00000000000000 0.00000000000000
0.00000000000000 9.40099596546867 0.00000000000000
0.00000000000000 0.00000000000000 13.75930786269776
PRIMCOORD
 96 1
Ni 7.180292795896902 3.2778077037552555 12.120064994945867 1.3660451073133248 -0.2624468978501544 -0.12430152499426335
Ni 1.3967529945146275 6.8232617662776756 0.6123592632057577 0.9364479647344969 0.7559179562648078 -1.2226773097162298
Ni 4.637746397569771 8.201156362629783 -0.03430611494250566 0.8460927147786913 1.1678053402686985 -2.379532321621012
Ni 7.57032132180249 7.917763335406876 6.197660259975345 0.6778636351635423 2.0471894701106677 0.9693861102234144
Ni 0.3520870457739275 2.6004565342598935 12.149083989685682 -0.37080655480318075 0.950992181097259 -0.37307221090890585
Ni 2.251171925421284 8.745774868288349 9.103805223792259 0.5473680655434251 0.20303127489599873 -1.2360928117911874
Ni 9.390090937512976 4.368624082416008 7.445615228429881 0.21918088807266767 2.3638745604790965 0.5926804163269792
Ni 7.3580750330112625 3.159514969917278 7.975046424900237 -1.1972457570170028 0.3241844840692675 -1.831537421126865
Ni 6.053658622121893 0.6449290141698898 5.262522496415137 0.9824048910805856 -0.6195479301417846 -0.42408032652565675
Ni 5.768761435524109 4.826208166245758 8.705390069272124 -0.7102086271531511 0.3067848005355813 0.42649022151873006
Ni 2.6834297257765423 6.503280062260886 10.138312456154884 -1.8628537147416435 2.989250667266884 1.6700816556798075
Ni 4.436743700105747 4.058109181464851 1.3768802288736754 1.6111293455153157 -1.1798581576681744 1.1109150548395577
Ni 1.3790697208637306 5.403015682526689 5.286464013165132 -0.6807556119993566 0.10301176237755164 0.23780544515239047
Ni 8.351130453301106 1.0568317777846266 7.06752314726355 -0.9130871785213694 0.844050744647998 1.1347604939985876
Ni 8.695056494366717 4.984887579299181 3.7859559851707116 0.7931611568869824 0.17940797905010392 1.1374568098838282
Ni 9.007338782583355 7.161434397734382 12.37056769723787 0.968359468731113 0.38174994118856187 -0.24777746876343776
Ni 1.4703063879461096 0.6207534126171803 12.270867313372982 1.0966361763230403 0.19617954208148797 -0.5678260762874608
Ni 6.9138497646296395 4.233635179516896 2.267740240935553 0.33597916271135037 0.6166585244091315 -1.5861035128949392
Ni 4.021652118616271 8.536433487289852 10.683579630543866 0.5504544177782327 -0.1038910796587114 0.9061935367253295
Ni 8.95458979350564 0.2930393893139149 5.112078355939165 0.43353221596717595 -0.7358103868816553 -1.9222505686427218
Ni 1.0539644739762675 4.255821530296331 13.731376923290597 -0.3397103476190085 1.8601239745153062 0.7948133477784247
Ni 1.3465986803585748 1.4507523160727096 7.7758393176899725 -6.209262985465499 1.0624122221431638 1.363116363702304
Ni 6.739423683120473 6.2746102332952205 12.350244623884066 -0.7880253783223138 0.16537798331959908 0.08201999061723295
Ni 6.5121922065570335 3.1085803730855077 5.636239353999795 -0.08833693397419624 -0.8801644596514195 1.3650022678711071
P 4.4178664999510415 0.8551099041194902 9.472457764781629 -0.40824618770687754 -1.8952773824879876 -0.2961052093345481
P 7.36248410017887 2.143718540078513 9.762503876939538 -2.23580765490513 -2.1627232762146305 2.0560746884154395
P 1.9010506279303985 0.28315988251980134 6.175329133856079 -1.8794267886089762 -2.0958619956157065 -3.3654151439478683
P 6.40353549371436 2.9169504687261862 0.554941739468268 0.5518474414710173 -0.3674538362808639 -0.6360716388284207
P 0.864239211425384 2.257244968897349 0.7013876363058955 -0.28235109297324923 -0.41523033233419454 -0.882926338667273
P 1.8046998189734378 6.549852596905514 8.298472653885494 0.20571370682416829 -0.07033432674918855 -0.8370583724905648
P 5.866719814812969 5.8140648356961835 0.6615424544654055 -0.03665518932918848 0.5778320384602371 0.27275136509995607
P 4.7171190075828076 3.3412456253906906 6.8336564476576855 -0.4673795035339241 0.4963005574436485 0.7885969345550676
Ni 6.772110946535768 5.769861352066988 6.913336470242963 0.6541634633331249 -0.32837949598722155 -1.0925074988666474
Ni 6.300274952629058 8.644770566265363 9.2905738730719 -1.4193134797191622 2.639633602057125 -0.9310278221601902
Ni 0.5664476185864672 3.486876455867056 2.68933919192059 0.6242157679310991 0.3956333840388735 -2.486838854719175
Ni 3.724449028132775 4.3867774058715545 4.869777082638677 -0.1405740369020418 -0.9465241180235765 0.11633958983470931
Ni 7.602256505530346 5.342943317492542 10.121966004148408 -0.9089978389433442 -1.099838742420738 1.826070998695655
Ni 3.1493242901524865 2.042046767332925 10.942488703542214 -1.5224468552762425 -0.4038732554501625 -0.3228583090586762
Ni 7.679335272496697 0.20079963594841485 10.89581745843861 0.6052631380879964 0.16307993131404172 -0.6461493347793968
Ni 6.519299359603327 9.168490657609233 1.5702530779086352 0.44825563822027964 -0.11620357847747731 -0.3593018965976909
Ni 4.633891989171648 7.041797321455109 8.544103760002116 -0.9459841863597064 -0.3327460004860334 0.34114168074889634
Ni 5.73353590316371 0.8468342072588392 12.56502730142118 1.4425205139632447 -0.9113439705780175 0.21070113273643065
Ni 1.717684199136807 9.303865001348157 0.5279401984900084 0.3333057296442453 -0.4166056154151664 2.0929648765735696
Ni 1.4868709430619418 4.593881349799922 11.31932857202896 0.6579360430016797 -0.9942638473017006 0.6576097700105126
Ni 4.903399745165223 1.514782500462002 1.2161965234532284 -0.9529901853638942 0.03951271338264163 0.05289170579270891
Ni 8.167011944820077 1.0505519123945153 12.97484868450093 0.960849790617629 1.5906962744719444 1.2847892485556258
Ni 5.620658143075289 1.2947427859096925 7.484829603432533 0.5284123503765287 0.08421545560665497 0.7277260672116241
Ni 2.458670711185557 7.241897523294206 4.364988717226852 0.411090342023892 0.5713921963721642 -0.8901727358170411
Ni 3.39567739276905 1.01388802763189 4.660855926165536 -1.2845843316336714 2.5267320913696873 -0.7826939388070714
Ni 2.6947673270646773 5.573324127747131 2.4984566667506605 -0.48743436530227024 -0.28919999757428255 0.5737699525757214
Ni 2.9855119332322957 4.778347695136391 7.799518546648973 0.8724418941961813 0.3970148377674324 -0.005347637465158532
Ni 2.2512941383704925 1.7317574902879997 2.284375303522083 0.6442068663410454 -0.691501280551635 0.23180526170489754
Ni 8.665462158666015 8.048700408989914 1.1211439920567083 -0.2141232710441022 2.020490877773559 -1.196391379436507
Ni 0.5045082157282537 7.846390973068966 7.275275759922334 0.1409298775795637 0.849117617647944 -1.1409599379410802
Ni 4.235214546860517 7.519255111025418 1.9078795114923397 -0.8462009582217813 -1.0560682822030072 2.4078669068996468
Ni 0.6232804003669735 0.8761380521802697 10.225463450335253 -2.636077252164434 -2.073264827041481 -0.06423361316808937
P 7.3353998304349926 8.726324207371972 3.608984113919566 -0.09205012115972534 1.4566078452942464 -0.05289761932997987
P 7.4093104617180074 8.560133398440257 12.98695716746869 -1.6564087861784051 -1.4966851729311061 0.5590362459099727
P 8.429299735814242 8.893483318901264 8.586551137561141 1.6841077947555705 5.763225695052778 0.5442259203700176
P 1.7731312740932081 7.914143951911078 12.101049600148595 0.37963058085271395 -0.6708015861104383 -0.012550582971500966
P 4.871126125578019 6.0269503922217345 4.212371066454183 -4.212403631067952 -2.5753511379289713 -2.4978213218726077
P 8.759453317603636 6.254567309624987 5.910145836065275 0.8283040233367024 -1.7766469397365725 -0.5575781733072074
P 9.033934200530398 3.021113505436414 5.982478040104279 -1.1137034162179722 -1.8663460441656181 -1.1912090639046193
P 5.635868954753731 8.478391737411789 7.123193965926965 -0.8253272000965658 -0.3237034306677909 -1.200897494836977
Ni 6.616787689087538 4.963942160004019 4.440321719218735 -0.6211098753122659 0.08597794682371644 0.7580172619959977
Ni 4.587488672456694 2.8596419965433753 9.12191248236695 0.10704248080349951 1.014697175455388 -0.8287141142909276
Ni 1.8293586317253265 3.3223214202555202 6.3039507421014145 1.010712736886343 -0.6763567116007126 0.1298669348971828
Ni 3.671041969328551 5.830657593800295 0.2791588185826287 -0.36050928664223075 1.1239752304576256 -1.1818134816223325
Ni 8.261209925671745 5.958887180508553 0.573653482091737 -0.7059174559769649 -2.205646043720085 -0.3850941750704464
Ni 3.069161996467639 2.9384223438025545 13.657874295238017 -1.2966826575591024 -0.13676417623764833 0.34389456090368514
Ni 3.9426179444625813 4.905740593192375 10.278010317996971 1.9789166538761984 -2.414610139160751 0.014049021893898388
Ni 6.572330378563832 6.769647885559406 2.548801821127401 -0.10233581935644957 -0.14156416872945296 -0.5638583498889644
Ni 8.917108022082926 7.271820893858163 3.295821892468626 0.6339463649553018 -0.6517666809661743 1.729703995328131
Ni 0.4377414013762945 9.296259595508936 2.7595251485515666 0.8734222558315797 0.4626882687058419 1.4916833488411405
Ni 3.7661142428168666 8.597868996757482 5.840729821014314 0.7152649586301358 -0.1366219942328292 0.6968589453191224
Ni 8.601516583241558 1.26653979763075 1.5694962977231501 -1.3861920145748448 1.2263784127169008 0.21469019929116576
Ni 7.966357084211494 7.107848720004392 8.74626936068284 -0.8873530069800588 -5.439263097186329 -0.5540511339905555
Ni 0.3270277505884778 7.9606318775908695 10.2523220961729 0.1573196317914968 -0.512421374264911 0.002070509375783531
Ni 8.061720788578693 2.47965373446509 3.9324376057934924 3.957940779864539 0.5615405003890652 1.348849826480961
Ni 0.9280155689201659 2.1846880810517235 4.427869159793973 1.2279694113531048 -1.4803684380489535 0.5963064431153406
Ni 4.241494412250628 6.438610610137272 6.318315464131489 -0.1497330776934905 -1.41603352341631 -0.3844755676498411
Ni 8.849608870135322 3.4622740490917256 9.599125846038843 3.1351582005666976 -0.016060395896972342 1.6103083922759172
Ni 0.43573052831200587 5.554992185365817 9.676495103784466 -0.14029172977493257 1.3081523487615987 -1.3307744570364888
Ni 3.260707291862124 1.0450993346605864 7.4436889643304305 6.62422335196776 0.7734899037103002 0.7686485164575987
Ni 5.895684283775442 7.500650539757411 4.733587672538491 1.5164667264334075 3.8416037611329905 1.6782487648716324
Ni 4.819477053043183 9.309693618925804 3.3389574229416588 0.19608595392641714 -0.13766457656473066 -0.9698946744287167
Ni 6.18813047023589 2.311347701412454 3.300197116050299 -4.882976903217668 -1.3147431146052388 -1.4064877887094036
Ni 4.956835006957726 3.018434221549914 11.782756315030106 0.05276237930369623 0.8995549483628894 0.3705764410702456
P 2.491216959659456 8.839277175429137 2.680327397065859 1.5591786634796374 -0.41196091755430336 0.18839706992259164
P 0.4101372565484749 5.694502967385653 2.0408077160478704 0.49629695789922273 -1.3306361316864117 0.8295805760562809
P 5.99211970169724 6.849518748365371 10.219821912579855 -0.2365412337279862 -1.7786755401308272 1.1617393365802766
P 1.4697423281805309 2.4565930910490077 9.580400001921236 2.030036355370149 4.435271223963587 0.17530089886026584
P 8.809231591915971 4.973935418850857 12.21959992127952 -0.495913606417875 -0.7859196448332206 -0.2515377071368184
P 3.723245700632874 1.1342959855907886 12.888536259172055 -0.64302441599717 -2.1141111716338816 0.16640719591506178
P 3.943304217177369 2.800443924145875 3.164365883901256 0.15830487852290157 0.12742335845269667 0.5729754816988842
P 3.4338642388987375 4.58504441347252 12.319960255070137 -0.1315381519520186 0.30889284801751965 -0.1622903455332108
