# total energy = -381170.08180703275 ev
CRYSTAL
PRIMVEC
9.23079896415106 0.00000000000000 0.00000000000000
0.00000000000000 9.23079896415106 0.00000000000000
0.00000000000000 0.00000000000000 13.51020734748981
PRIMCOORD
 96 1
Ni 6.048102545408662 4.973379085937196 11.184155078059016 0.3493910652418821 1.3324495307460666 1.0132427023970485
Ni 8.98666277369159 2.7762920136434186 5.496533693017962 -0.678555004803612 -0.11325992246812108 1.2313707237251696
Ni 7.907656223510031 6.250137041899643 4.169682037345309 -2.3807332839076483 0.40384960130107866 -0.9177002518133486
Ni 8.979536596906694 1.4719524304358007 12.234330150818364 0.30613199744293085 0.5941246049726735 0.13502791027283198
Ni 2.7030456240214544 1.6931408347359285 10.624940354902863 0.6323175711026271 -0.06226826191160244 1.0399217543501316
Ni 7.072536612232306 7.191715457400445 12.444819136062309 -1.0814185880423375 0.47970614342007706 -0.17767402707813268
Ni 3.9633450654664517 7.484193321946374 2.9775280460257294 -0.7677020933839295 0.8323046598556634 -0.4805065278341854
Ni 5.683375217526739 5.995542376220575 2.9579513676249403 -0.6100849849566718 -1.285135319041135 0.16276625672836484
Ni 0.9709046637464205 3.8598678093023406 1.727671407426268 -1.9439442515660716 -0.7348369672247924 0.3463527926361906
Ni 8.773966704420095 5.613082683566907 13.13683920978798 0.09587669399466714 -0.6721455017328424 -0.2557126644501145
Ni 8.094902980092456 0.5863366566139049 7.081456333252055 0.4931972359279764 1.4727965392389668 -0.011654039299160575
Ni 1.381047522433645 -0.3520257485347496 12.649431794698396 0.36092117736866874 0.5818036215134754 2.780174471728386
Ni 0.413400407634621 2.2980720127429635 3.4007214082602175 0.40622401507052625 1.0697969446430093 -1.3086863668881978
Ni 2.5220296567263407 3.7684459765593115 4.380603947059734 -1.0727624550292365 -1.3677106679412059 0.9774323775666586
Ni 7.380762219776983 4.2948045939535975 2.312393597304838 1.972389394280642 0.8043045750983115 1.048162139982053
Ni 8.809800665921353 8.415940936571639 11.160593463754031 -0.28196311350621117 0.9954267572615502 0.04536917216341864
Ni 3.5986361991824167 3.413087909605718 6.531995795340202 0.8177483593080433 1.2841824682095626 -2.2597988756134044
Ni 1.1621852794674472 3.9259880221394083 7.1296337191014505 0.4251123673345969 0.424766553959404 0.12921618868706133
Ni 6.926320756956702 6.973139369201517 9.128387845280857 -1.9081598948776104 0.6966036347752068 -0.7749238079433493
Ni 0.44821528893244095 4.877674162484073 4.007195052770822 0.1854269315506742 -1.4520675342217315 0.4730073912436628
Ni 6.2956818038901625 8.355405357095792 3.302623861720767 -0.24553238148300294 0.021087159687602393 -0.5959272053990512
Ni 6.1307274267578995 2.8535907240018727 4.275791917368297 -0.034009009955593035 -0.7091824998814819 -4.071093487330834
Ni 0.655809495627494 7.2366879098564265 4.320901908728546 2.1373305471731388 -0.5786301088815002 0.022100174333149033
Ni 3.6895872611792937 8.328423731781992 12.065222837241121 -0.026566180524302634 -0.6984000645539972 -0.8047357490984591
P 8.595664592014568 5.513353131774128 8.24540100299826 1.8920179950104252 0.9853367200154 -0.05610532763400015
Ni 5.087970224030084 7.908948535362215 0.845475644613186 -0.27498513952648124 -0.410606460408938 0.0075384744688902425
P 5.000231480065778 3.8251784668701614 8.115649200719472 0.9386472863786609 -0.3639720483798506 0.6604534101068947
Ni 1.3007488024183371 6.479227010095978 11.826713761802157 0.56686448370514 0.7723992417492827 0.40693775330809917
P -0.016236052262895193 7.655996951895209 0.5524282397724022 0.03957133453471895 0.8895911522819582 -1.1514616088033525
P 4.234370553266137 1.8870891513518195 4.67732797911998 -2.4983921067744133 1.2970333560303018 0.09954617242645437
P 6.153905962906703 5.062050140594863 4.897558226489703 -0.6619497921467633 0.8158205461577112 -0.0203641654786488
Ni 6.51332558139573 3.3856632059425977 6.206022130665575 -0.7138109997924287 -0.5857055276710429 4.3041174519341805
Ni 2.1828993343165926 6.367552804469446 8.031507699103708 -0.803245794816494 1.1922012526145596 -2.8803171400882586
Ni 6.44518382358989 5.1011979589170755 0.13460627944352524 -1.1833731127999685 -1.1084377969436587 -0.1977386590384917
Ni 7.022477989558089 4.559719292852244 9.17871323804456 -1.6422054980948297 -0.5808731392794061 0.5142921089250627
Ni 0.20396004115073454 5.977016162739632 1.8507364189499014 -1.032918069338789 -0.8649625551000008 1.0966564880380145
Ni 2.275696556102303 4.75312299233043 13.530337091819083 -0.014340842102704334 1.1881659062029215 -0.04882293503997398
Ni 8.30737751018929 6.383411317055525 10.554119819243425 2.0888151160712543 -3.2050919494433576 1.3001508186133608
Ni 4.815864732753932 0.49769975591233095 9.30042686060277 -1.440457460786629 -0.3884515215784536 0.11556671622442678
Ni 2.3774568836627985 5.440762128877199 2.6281810753445773 1.1622761829203532 0.5300074627777904 -0.1956825478404114
Ni 4.925268161840197 1.1975577010214948 2.7117281135083378 -0.9180375805481092 -0.8898055822856095 -0.06178566584822908
Ni 0.7068281213919044 1.087452731215472 9.613323252413194 -1.3025542858485308 -0.2931931778940757 0.18237554631886013
Ni 1.5912881991859906 7.697886317503838 2.2233477722100377 0.5896601414434167 1.3425002301138493 0.8307419433542338
Ni 6.201047653114563 1.9810956077992155 8.224378781482814 -0.681528228499323 0.8384647659197884 -0.33647050052547217
Ni 3.070514499189795 3.025828201501083 2.3632866842036084 0.871431450653796 -0.5799454852588141 -0.05531239941905958
Ni 5.009600740994107 3.034117458952945 10.498525486442391 0.8100561328701081 -0.461448739871786 -2.5069826766569014
Ni 3.206604168023648 2.1271453086938243 8.262761366572555 -0.8372997990774096 -1.3737769287399437 1.0408491512604074
Ni 1.2583794352646107 5.143161170917257 9.984313677378735 -1.7452918224640586 -0.6750608756074246 -1.1999510717633077
Ni 4.46097743654649 3.451229570843015 13.185759674952383 -0.09312767049462027 -0.34404856998304617 -0.21044890751630854
Ni 5.2566630747347345 7.303721971788966 5.326818069790297 0.19460834093962612 1.0459661607719986 -0.6055387603468861
Ni 2.5340020029569255 0.534574951534489 2.234196730209117 1.7826795190838975 0.5715983988456994 0.2778226089752764
Ni 7.303463509418529 1.2889703029655801 2.4989563516855013 -0.09442144960537932 1.0442103544231565 -2.0910316641065987
Ni 8.615990811289624 8.310294442655648 2.6126853331570046 -1.2581572477903944 0.3656995725939186 0.04642769533492005
Ni 7.4218392750785265 7.348666731848115 6.873520586996067 -1.691737029166054 -1.4174399168455332 1.861377130196117
Ni 8.02639199032885 4.9841975822997595 6.164396765906749 0.36702034828787117 -0.35011534500241637 0.3252574054184721
Ni 0.3567269944370138 6.549824160420966 6.4580543265577415 1.2694047956797556 -0.42710265829174826 0.7151376890236523
P 0.7901720819788932 1.72176554226179 7.563959424862604 0.7669029945214019 0.12987644797887957 -0.6808116620482726
Ni 7.152364561501462 9.148977142325823 0.5571848704683313 0.672516511919016 -0.14701336476948226 -0.7613877211301274
P 1.7260394021729393 3.169154816707163 12.20911991582195 -2.0148156817656524 0.334814710089604 -4.576817394970911
Ni 7.195380084581279 6.755024820949797 1.4924586502902677 0.7038772856184845 0.8583910725300701 -0.528840696163199
P 8.008705779551827 1.1621114330758942 4.338748735407198 0.572039600148176 0.6946097442736295 2.1733524737937024
P 2.6781132360732594 7.235894061147228 5.75103881994727 0.2183313955881788 -0.6955309705363183 0.547191944976877
P 6.030204026255922 1.8088304379031723 0.563665814407031 -0.9990391572031568 0.40388636807628503 0.08670222658425068
Ni 0.559261800230769 0.7892757714014146 1.236617826753737 -1.5528349806497965 0.17124138407891154 -0.535139384687717
Ni 8.058302862278834 3.035732848768174 0.5037606984990709 1.0003337076448642 -0.312448683689578 0.5750452197437192
Ni 7.334922072220251 0.12386070639262052 9.43877161361868 -0.15404713168781214 -0.6331279828190645 0.23169496137927842
Ni 2.333019817545579 8.831133042281321 8.461889084476018 -0.5731860550477934 -0.11645374681507041 2.06260966132048
Ni 5.185585922864649 5.692144476523697 6.972807060439527 0.0776966806515307 -1.169254414010399 0.3014150515832357
Ni 9.02062288300718 3.762169033277278 11.173414120407584 0.18314379194345234 0.6954420103669376 1.0954709523703456
Ni -0.10977358412392739 8.141324667982673 8.469102953850886 0.836584775288256 -1.1078716400275437 0.4568474936543487
Ni 5.695726026514034 0.6022505539936487 5.396976757165438 1.5797212635176794 -0.6340371248968952 0.3204206461514611
Ni 2.99017885597871 6.59360583981315 10.026911045266383 1.554999335290967 1.4669773614540282 2.4518551395551382
Ni 3.8186061380219147 0.8425550198272516 0.1319284246698224 0.8749389495864222 0.015855993195650113 0.6743736197324127
Ni 1.1006620045045747 8.755034335785611 6.3492296685652745 0.18349937551065817 0.9271536839167646 0.026831518370547335
Ni 3.8030983957957143 5.573685633673202 4.540281076435617 0.2969377325381725 0.667723718516063 1.0880785165610165
Ni 0.9088016946098544 0.18837014481393102 3.9512628727284316 0.056936822396360005 0.6840931610130219 0.49737836388885953
Ni 4.717067491654513 7.445470120375594 8.613864958292782 -0.5420271129464859 0.005108524871158944 -0.12108404649823017
Ni 6.683883053487102 2.8824000475066174 12.2230491914287 -0.04250162080763648 -0.4954343527886113 -0.5812305226188248
Ni 5.003046873743748 0.9965755156101487 11.475529862131117 0.4293631721911509 -0.24442192202764354 1.5841643868906974
Ni 2.7318087935314783 7.098336695281253 0.43940726057991686 0.6184927494043929 -0.13069714410796202 -0.6302529752641146
Ni 3.2247519187478804 9.060989166790023 4.652347591017276 0.3275816826762745 0.020002154153539745 -0.6718110012115591
Ni 3.2646197393877365 4.156277994198485 11.133032144266537 -1.5008292770064668 0.7666533404044409 -0.10890653059543179
Ni 5.368669589123256 3.409727898790041 1.9372686974922053 -0.5765179476345039 0.594491501393789 -0.11907395804673687
Ni 8.22452185886645 3.0892714826443424 8.019901815591206 2.0593194206049827 -0.3557203498940196 -2.120040649744439
Ni 4.187635018211819 5.835655707708661 12.36266410237933 0.6232161230219913 1.4048744214756967 0.6318825404477376
Ni 7.7272956429399535 2.265265753295394 10.014995006909356 -0.6966360306750389 0.18869968876467502 1.7151692920470656
Ni 2.0577850854273545 1.713254745635268 5.6740705721910185 0.12962705097223481 0.21563585103388666 0.3392069256200287
Ni 3.08175761230379 4.496340627301594 8.761288202070284 1.0070059774587172 -0.9047388065566742 -0.12294166853225924
P 7.097625923762552 0.5048508558543771 11.656795984077618 0.31692831672748645 0.0866924563922378 0.2743585616860759
Ni 3.9521204139503445 -0.10860865729717352 7.000435764759313 0.5095185987958193 0.07985383620384957 -1.396031883483402
P 4.1219763453219604 5.39721121945862 1.2239522475224458 0.9503450344315634 0.07638747492180394 -0.3543216697742801
Ni 7.850674501627688 8.51159970603004 5.2061309120746815 1.0530120118751864 0.25256409151880377 -2.9489979903944246
P 5.339804880824846 7.379414523131135 10.91313974413817 -0.3324086717512727 -0.9439393880155357 -0.4108296321633376
P 6.103478108274719 9.121589361858478 7.586751190535646 -0.9556188812359928 -1.2914895433939373 -0.4208278810266301
P 1.661368424770106 8.466774946357166 10.658662309605694 1.3868872408696569 -0.21675325246778154 -2.0347093353657866
Ni 2.1341145618966704 2.430284746020266 0.40155544642946595 0.11484963555274413 -3.220618584324047 2.077042548916358
