# total energy = -381168.6040624913 ev
CRYSTAL
PRIMVEC
9.24896622122190 0.00000000000000 0.00000000000000

0.00000000000000 9.24896622122190 0.00000000000000

0.00000000000000 0.00000000000000 13.53679696458924

PRIMCOORD
 96 1
Ni 2.6872963571389277 2.7756332326170154 0.4073966101647699 -0.49614834813650044 -1.5030453108211792 0.5150153602443324
Ni 6.331666480124055 1.2574986835803896 3.252932603872335 0.0583136481392286 0.6315300422043253 -0.15652438958371107
Ni 6.5295851062737365 6.6729625791730465 9.902721898414418 -1.0551051469587893 1.066857402398711 0.40968729102877827
Ni 3.5047847261978484 2.370972466632585 11.465504906532074 -0.5071794091396814 -0.13959804614201765 1.2373647365250753
Ni 2.763887045635844 2.5813124542907016 6.00033429228358 0.058155782405125644 -1.6582856914861441 -0.857405311578033
Ni 8.432976090360542 6.663380650265571 11.298243828403251 0.4464260412107086 1.6692157081350867 1.03964690342219
Ni 6.717709077295022 3.727777299517574 3.9989051921481735 0.3247007615840537 0.7384287983411089 -2.3148595640329743
Ni 5.967608675436746 1.610920177221756 11.735062324714326 -0.375425798742747 0.48228161745673714 0.10596775968208202
Ni 0.34291836770765116 4.251000562282824 11.762989577934519 -1.472674926059438 0.39133655643573245 -1.5094458150308843
Ni 8.777870037232901 4.140068462556703 7.466788393292888 -1.2106142079041087 -1.1852132513325009 0.23685387987239853
Ni 0.4075455185194132 7.630896498869048 4.595241532146623 0.41336319721846876 -1.3149380042248644 -0.5219539963456947
Ni 6.661234890124129 4.806789434780915 6.164670847323075 1.0456738263425605 0.5928074288231469 0.09050668793200542
Ni 2.4833566540406307 6.091443082909902 7.885915467196415 0.47600015532339957 1.2371402792190953 0.771660306700729
Ni 3.4529812669210425 8.00699645745359 12.696121470064607 -0.8144421777529457 -0.2769664316225682 -2.397297873134549
Ni 8.403462639449582 1.1225932636533253 7.894375496512697 -0.5839936871862587 0.5539955981622717 1.5144005879329983
Ni 7.197064493720353 2.9703979613174214 13.36934631526926 -0.7868933216003996 0.9330528230100189 -0.3822975861619158
Ni 4.752682982938508 3.6741702918460213 13.35954611076119 1.0840105171392298 -0.4430314137068628 -1.5751367294707908
Ni 7.041598622093175 8.231644595710033 2.50826042023394 -2.5458299885414024 0.6549435360322591 -0.08827137084358345
Ni 4.63522111312679 8.66274815585129 1.8006377451067086 -0.34505721375321863 1.2565371956884683 0.8088801102841359
Ni 7.192985699658387 4.514050407898184 11.175572940868859 -0.3537549986375327 -0.017304552716718585 -0.3017089286745707
Ni 1.5996641854453104 5.03366657387394 1.4089505039084902 1.1462744081754581 -0.900869810519571 1.3387417915126816
Ni 7.783865149641962 5.359054451184652 13.232368202033156 -0.7764448725735661 -0.4895460123286343 0.5661332619660702
Ni 2.2024193079358336 8.343612579642368 3.3056988805229515 1.3814987228642337 -0.6594344819240773 -0.6143987818406773
Ni 4.225972859943414 6.928483766361104 3.5275806530108356 0.9572183645126288 -0.5460686300057113 0.07727836216718949
P 2.9490975923271545 1.092746849961797 2.410727297735869 1.7964274647976093 0.36290658322981373 0.7850698952384156
Ni 0.3561406896826772 0.1973673877685172 9.788079113478181 -0.8706182107238813 -0.03552956036517752 -0.3683334106723399
P 1.5809720249028316 1.2915071320290263 12.236303569685756 1.6880870911182926 1.2858665407802048 -0.38625682791997995
Ni 4.372938931699965 0.62163226235554 13.273303201214233 -3.769383530214999 1.5728291643835366 -0.7999336997241255
P 5.972760349569433 6.163640512496537 12.35535903636114 -0.2077947577229131 0.6153220649858951 -1.0901425981788968
P 8.877629385877718 3.0872216524663822 9.330995207486442 -0.47828175226872466 -0.46239439161450685 0.432780682513132
P 5.067231071948485 5.964288296597186 7.919472566098059 -0.044272853775446326 1.3927385574441111 1.9933150886897155
Ni 8.693408478561986 5.427681779846301 4.099781815901122 2.3820334907763105 -1.6680142316278175 0.5601389920558483
Ni 0.9549187567386302 1.377383782517357 1.8428454020268483 -0.5821440355720297 2.5202845359721304 -0.06154346793043595
Ni 0.5641138669089186 6.39668671199621 13.395079713724154 1.0488175141778646 1.045927337114263 -0.23663353633147635
Ni 7.204935363894351 2.3118068303187616 5.658557246995989 1.4194690314604197 -1.552997988590222 0.6577300976384609
Ni 0.7781876621924677 8.73418717021552 6.729033511420807 -0.6209409538345694 0.24467003348270766 0.3961157229919307
Ni 1.8628712634848272 6.847194603071719 11.221855692264516 -1.516679356664846 0.3797470518259202 0.7685176473066894
Ni 7.636991567546681 7.805535477277305 0.21045282504486507 0.04656473513341658 0.6271879631855457 -1.5234822385192923
Ni 8.273912370909997 7.6854469010855455 8.425681430776251 1.568669890799524 -0.7539649463034951 0.7867228574608064
Ni 3.4654488732601134 6.778890988224512 0.8951315899010786 -0.9646308549266162 -1.132317945995366 1.7365475006125255
Ni 2.1422732812125576 5.9171648141805955 3.6092887944657694 -0.9631226458122057 0.4143728694299057 -1.4961020467341266
Ni 6.297611786844784 2.6075980160233714 7.6529737810139755 -0.2853646829885924 0.44598586834949644 -0.05655475646659292
Ni 8.880357830885156 5.4040414224259266 9.515257735149746 1.3376840396721283 -0.26244741207078676 -0.6024603785318786
Ni 2.476234950122912 7.331377979815295 5.830082098509315 0.1452822410109885 -0.5446244413600169 -1.4623102949956621
Ni 5.07101389909439 8.401982804869277 8.426290937644014 0.560764541454989 -1.4862161550789823 0.7971934179748271
Ni 8.87603856370389 3.759686232655403 1.5134813941781793 -0.7436748772313967 -1.1444000739708808 0.5071763238158878
Ni 4.252175180980942 4.735803619756904 1.7784910957158302 0.22055411427111046 0.432740573303816 1.3510686885091505
Ni 3.5051824317413054 3.057393736707108 3.5404811109646457 -0.9502195645972927 0.33531556098542253 1.129146747356236
Ni 0.19475085525121522 6.102042398091337 6.362957582324607 -0.10668175502997111 0.6958096781190017 0.6402805347034457
Ni 2.3118623241155225 4.86208900325369 10.212227451092003 0.7815716522771701 0.2460669138302343 -0.046693033181164745
Ni 3.0312099136018342 8.723254892253516 7.5437999097485795 -0.5789712942710029 0.11529417928933046 0.3308487834633205
Ni 8.876648995468265 1.4599585520983815 13.285283387038415 1.6533440312101526 -0.8794350376845628 2.7371509169790085
Ni 3.7345937875531043 5.546900953222131 12.294484191107063 -0.38905058861503317 0.6466928659876927 0.32578962377285825
Ni 2.5828200357693873 5.015122396789493 5.497184985600168 0.9011361768070804 -1.1907346953713622 1.5159231952251118
Ni 2.0873714182832384 3.832161131225845 7.710965723526295 -0.8139495543872434 0.05420399684622924 1.1008589561551363
Ni 1.163260967713335 0.8379415327519624 4.311240003563982 0.41318784798286906 0.5049937143422722 0.6491878644954046
P 7.71539505340447 0.14702711493298828 11.964917630900214 -1.4264932852970529 -1.2462517546020602 -0.49788358566005225
Ni 3.168769786807321 0.1885919687073079 5.0965364211215896 1.8681509585848406 0.5045692252103439 0.8971615084300484
P 7.4473970109112155 7.2540658719604805 5.794304322840603 0.233993527605468 -1.588726038119451 -0.6223663734271863
Ni 3.904589784965653 6.842126169634174 10.15366669716288 0.9937051465847532 -0.007441543879709765 -0.6277425501374351
P 0.9077666025270461 6.9748858294197955 2.1320457744694243 0.15426464701525688 0.546554054282562 -0.4087627223319799
P 7.8896270773031425 1.303262567976325 1.7218938972954485 0.0474975313603311 0.8419483535930145 0.5919504801394901
P 6.5758206879421435 4.333038891828489 1.330138213747891 -0.7008788651117929 0.6321787315319177 1.127327177648994
Ni 5.514529571777957 8.459132166567436 11.521100441920911 0.3993272879506929 -0.9283155654353498 0.10443975307332981
Ni 0.538166817336494 8.751723209992136 12.203259788404155 0.11156402282293688 -1.8600206161682227 0.060466175705857154
Ni 1.7935595113297869 2.739432779196302 9.857075475888292 -1.2482243049473987 -2.244075551340877 -0.26644907703101206
Ni 9.01433835419953 8.90346174827017 2.6461190350453254 2.0760069085629924 -0.742957796559714 0.04345550008047355
Ni 6.9054723386373595 8.82290325330481 7.107494731057549 -0.40892367338987645 0.5230181759441508 -1.0881929306516938
Ni 4.152064371623301 3.1998648109259817 8.999140453059796 -0.625983144244167 -0.6410588076303669 -1.3407248833809815
Ni 4.480476660857511 4.270386395284821 6.85430335843686 -0.7862353763014266 -0.4001562116098915 0.15951175434680917
Ni 8.344186015542235 2.1991081780624007 11.34815402431388 0.5729248309666068 0.3762128134204166 -2.972857570620841
Ni 5.111431881068973 0.8944582651670397 6.742881988402625 -1.6797667441780555 -0.7570692962604316 0.303271130955368
Ni 5.757916115407512 6.658145735437742 1.359203089801696 0.48187126939219593 -1.2533112325520028 -0.901223337204248
Ni 6.699303634702478 4.722068905058446 8.780115686208514 -0.6178772273075811 -0.27232970418150515 -1.2661502932982003
Ni 5.895254013425952 8.747376195912489 4.6291648901068925 -1.507695665108997 -0.874166590196772 0.739116825547069
Ni 4.708426680021259 2.440506193974671 1.82641183901256 0.9509546429911041 -1.845131614871532 -0.9871061532109968
Ni 0.3964106881992299 1.910392451444875 6.271814570523615 0.05114078453987321 0.6374032131556506 -1.1584182426268437
Ni 4.983333700211313 6.650478342518536 5.892039997696853 0.03269491912985982 0.5509457555923545 -0.5161096217497757
Ni 6.308904774485737 0.8363775325799025 0.27525200662658755 3.5452743516027785 -0.8987550781694135 2.6005235234295405
Ni 6.768300922009204 6.3128818299203076 3.7094615718964605 -2.792592642887081 0.2303587590663581 1.5083723794610473
Ni 2.533032851108248 9.139541608659467 10.528798288993936 0.5891690607396111 0.11393843659238441 0.27134085790567464
Ni 4.853515211654047 4.2611466781240415 10.7554451288304 0.9184119331683925 1.0003036257378772 0.8791514450058731
Ni 6.5143798059611004 2.6569320013442925 9.8641962549094 0.34892955222443134 0.014203802304207796 -0.6872461048197067
Ni 6.956397146132109 0.12947350212073166 9.708076481377049 0.25780888485751086 0.04276258777850701 0.5654483200839036
Ni 8.199865148097981 6.093644336848106 1.8543918113396787 0.20384965703223604 0.21577417638396387 0.3131086858710801
Ni 8.583040565769608 2.0073863592177474 3.8459393160650985 -0.7497902461005151 0.9743902483062252 -1.5654408423392654
Ni 1.2233145047753415 3.4503360626087476 3.450651452353675 -0.4325963344164679 0.4522315921488921 0.7779592523355634
Ni 8.136463485298034 9.159214159611398 4.9554832134099716 -0.49105216456051565 1.8270035378122536 0.4949443005260702
P 1.922591837766265 4.421754974917779 12.948379622003094 1.5871011009215181 1.3747405782047937 -0.04543653506624433
Ni 5.007584489396063 2.5599658404698005 5.283939897681591 -0.12873847771969443 0.17171369572963976 -1.0629110161564534
P 0.7100533034253825 3.999456430529337 5.740657544614704 0.5373551613921133 -0.15131044948293942 -1.533222862845824
Ni 4.584952982227052 1.0473899200754453 9.892190100685708 0.19083524705043908 -0.9260805054572437 -1.0728982092761523
P 4.821763510940376 4.685674223349068 4.319118272910881 -0.5865593910309059 1.4505438984883534 0.42480152096239737
P 1.1694670239844895 7.402206562415149 9.25772027334602 -0.2282352849654521 -0.05463105708131881 -0.6639562810538306
P 2.886879797191452 1.471963710131107 8.193958758329337 0.399369454042538 1.1568511552500398 0.465841726733159
Ni 2.192319436925251 8.852731169064086 1.0546235364832994 -0.2864414609925389 -0.845562296196518 -2.1070465514776164
