# total energy = -340863.0977656319 ev
CRYSTAL
PRIMVEC
9.31782904690071 0.00000000000000 0.00000000000000

0.00000000000000 9.31782904690071 0.00000000000000

0.00000000000000 0.00000000000000 13.63758467073594

PRIMCOORD
 96 1
Ni 0.8261112662407656 0.95319527261579 2.3713576673624726 -0.08712363039238544 -0.36275488814329787 -1.6425363990716872
Ni 9.014766626658991 7.576187004973797 3.794807930075385 -0.49500574989162494 -0.366384257365769 1.0296604816334396
Ni 4.650677546842584 8.666782984250446 2.989112958990228 0.37112254338170275 1.3326341359530467 -0.07941674866643096
Ni 2.1215205815387743 3.828919570317806 6.290676951221734 0.3299231863252576 -5.249474032012217 1.0730743298427003
Ni 8.235442043470274 0.5835337010029537 11.821385245468408 -0.6699346101244527 -1.7608881342404188 -0.8102394525255079
Ni 5.239312759231461 3.529947708530183 12.303542830349784 0.0687268730527526 0.08788930491381637 -1.0330885334783821
Ni 6.135818360117652 0.9240574895017816 1.3245554844581309 -0.34567582117382406 -0.023201634927443912 0.8733376665375734
Ni 5.806936267190645 6.206512728857373 7.255277246552355 -0.577925883725624 3.297113788468309 0.7120593072086446
Ni 0.08844390123112687 4.648944430645722 2.6623022194533417 0.9065637755805549 -0.24357731463916113 -1.837015670632617
Ni 2.0601160883273915 7.058180936521536 7.235502018033004 -0.6859865213809928 1.2450621051693331 -0.10652800306092622
Ni 8.39333265613596 4.029653560796231 4.566818017487026 -1.8413554356585515 0.7901305975907746 2.320951021642693
Ni 2.313607626690923 0.3873188575969897 5.743645845386549 0.7310481896063216 0.44418455347469954 0.45591264054490516
Ni 7.959028645728896 0.6314515684974693 6.8115780691490775 -0.8547372778275667 0.15540415993633883 -1.2160860296519571
Ni 7.677742023412473 8.138247769010798 8.217504290832757 0.8955681958009994 -1.668458775364404 -0.6854712723074711
Ni 4.773234951881935 -0.10932981496911093 11.152667019823909 1.275655661685474 -1.8404059272610886 -0.7866500952413419
Ni 5.233144356423276 4.468299679524465 2.6896043902513194 2.3694916495555582 -1.4605334056008976 -0.5836697281879367
Ni 6.716626596133606 6.565249145949672 12.925879698504403 2.379542606033657 -2.6664280965421496 0.6121634647522554
Ni 6.2969236237936475 1.8088794645855826 10.508454684489871 -0.7425181379191341 -0.610541098657484 0.18881178886250707
Ni 2.2059307945891415 5.9276673777429805 12.943922742609793 0.46335007065955686 2.0503365003800815 -0.46320583177220875
Ni 2.8746247938782004 7.4685381263590624 1.497679815781071 -0.11275084404218647 -0.7644938708592769 0.9594349125479735
Ni 2.3382812379236606 6.447406562392105 10.249190751051307 1.320205937492023 1.096447457351002 0.07487078116696137
Ni 7.034140937661844 3.9775482609422017 0.6602995671290993 -0.4845832690067203 0.5773314446747347 1.0188358802141098
Ni 8.429616282321868 0.9510149006261901 0.7201433239804054 0.27037309467576665 -0.5168056193755358 -1.5378482774329774
Ni 5.558811798339976 1.6288496901793412 7.728746887659785 1.016372506275282 -0.33222046699986657 0.06358800916429048
P 1.101609653172832 3.5392748553745825 4.386174198148671 -0.793628069221072 2.0950459274723143 -0.48186612718587335
P 0.2982879331378936 8.701137819830167 6.312537509874727 -0.41901242508444614 -3.6790408786646833 -2.606478455461395
P 5.555513286868528 1.7792301326586295 3.410923624253466 0.638903708960577 0.03537477995486811 0.9394379006007563
P 7.957808010127881 8.749832794264567 2.063762154821111 -0.541375595405416 0.2926437331485089 1.8198784967316983
P 0.9329942193104367 1.8513874005537663 10.45578565598041 2.021842506705447 -1.8558420593105007 -0.8625099797944501
P 3.5818107448298124 1.8362738818908126 6.9695152709598425 -1.3526136643987672 0.54980907088475 -0.30789628843220523
P 7.88252926951259 2.34407692757123 7.966286302748978 0.024185853217584152 2.009181366298011 0.5504726726106777
P 0.5188949893403307 6.236963394079649 8.759761872863361 0.756250142793246 -0.5655961585156776 -0.517618087974502
Ni 4.640931097692492 5.290318555261675 9.885257780717131 0.04377508820342138 2.5876186424424144 -0.36694295808271643
Ni 4.722313016312859 6.539354899115918 11.908775300237894 -1.9924229158927496 0.4195258743857549 0.2557046940303145
Ni 0.14817957126585454 8.089263941876922 9.81003308351013 0.5434792720119801 -1.4859963257586923 -0.15550880383500315
Ni 7.932575329154219 2.1861956327345573 3.025253090609298 -0.47359128877159085 -0.2636964539865394 -0.37140459339849585
Ni 2.2050921899777567 2.0166018268255463 3.846657921414393 2.4054503270383543 -1.8970887246651136 -0.29996572073121885
Ni 4.303616369506562 2.7770391706000797 1.8207541058827885 -0.9447390010986955 -2.3689270353013394 -0.6251405937382137
Ni 8.58128258520528 0.7408354268748696 9.31569802788855 -0.1566575727274657 1.3924127986735761 -0.3007735613444949
Ni 4.880949055299777 0.3667627950061502 5.208521061467222 -0.18446071098266298 3.648933260646025 0.32081248227324105
Ni 2.7079661041090355 5.023577064038266 8.359198653103904 0.015999974972682122 -0.39613577759658875 -0.20802255746300302
Ni 1.9022161578326877 2.4943362382733185 8.5423508320132 0.976219073984848 -0.7338743462012071 -1.0324655551824025
Ni 6.107100811092238 7.457971708255617 1.3100578742930944 -0.41008529779814534 0.4639758771690138 1.1533089464247364
Ni 7.121495584681073 4.388222256966253 9.05846538117534 -0.6564170352539921 -0.5863760713755063 -1.1488341984828343
Ni 8.842442696848472 6.381427015134168 6.600917795420562 1.0141536442470922 2.050638347891217 0.32108424787738893
Ni 0.7505762853275524 2.1646994011960654 12.594350410354126 0.3586300673416469 -0.5956104454895808 -1.7817986591408412
Ni 9.411286840408673 4.590987534170031 12.763251901567294 -0.9723948151427512 -0.42211574660011814 0.7496727466860443
Ni 1.5613233833048505 4.073587124603769 10.093353787900611 -1.7621626300774684 0.7584551208643647 0.8280240302024385
Ni 3.913842263964019 1.3362978125833185 9.686598870760433 1.9375537746586955 3.6032527278897755 -1.8734993673809477
Ni 0.7843254620212745 8.248142244418242 0.4501471150819234 -0.4204612417158307 -0.23676054882764386 0.5464856629384717
Ni 0.2775902395460203 4.205685986554872 7.572091819121537 -1.7028125702539254 0.26990541101072874 1.1927378418443202
Ni 3.7491310004590694 8.969929233436961 7.677114933519737 -1.0190168858766644 1.4666978825403967 -1.0696647899405192
Ni 2.8342506407545396 4.590782541931693 3.3884900191160265 -0.11153188403342082 0.19573294146237258 1.1450356506723505
Ni 4.219448420010595 8.96478579182047 0.2777989589159649 -1.447042055982682 0.5373212228303843 0.44581077622421283
Ni 0.4631678493480215 6.426898020729244 11.462335749321193 -2.501499542055144 0.6990382123586284 -0.235669115535678
Ni 6.808779925095757 6.668639776704377 10.613245784945589 0.303189112764523 0.2130315806418202 -1.355700273743891
P 6.28957185670051 8.515163270512112 6.466983321153427 -0.0324159544368603 -0.49185152053335934 -0.1367942581446354
P 1.060806879914464 6.000905513803902 1.193600851910116 1.5992809308171618 0.05162929414051753 -0.27776347360256676
P 2.977838385881613 8.161486434575167 11.860879795533018 0.5627954558420888 -0.790815025252309 0.3097058308371182
P 4.934302944241868 3.375961266221941 9.751759380847915 0.691013542281939 -3.1668195362257205 -0.5211261011277607
P 5.395293216948995 1.5248068113935596 12.997790975713535 0.03396581542248344 -0.5982797647916277 -0.2551580774982251
P 7.370365479852973 4.975012539210082 6.7894715198100775 0.1023273347160173 -1.822699254009945 -0.7440240330406993
P 2.1259651859791124 4.017009266822354 12.115098124559749 0.8155212697497375 -1.228501886817807 0.8076760626737057
P 7.316787963014513 5.464776267916716 3.208528264861598 -0.5442341479001337 -0.14511100554044687 -0.23669729968987624
Ni 3.0416561968079807 4.832794514948271 1.1208565607870102 1.3106458046074136 -0.24358965593433532 0.0201582201154298
Ni 5.524205381376837 8.21612618392138 8.820380873088746 0.03126512866186874 0.24117770405873298 0.86555699415089
Ni 2.384134274508367 9.264400583810152 9.838535390685289 -1.760365943188362 -1.6846209869465634 -0.17698085766585003
Ni 0.06736510843252436 0.43528517780238535 4.472050105703158 -0.8103502670717593 0.9543598120179114 0.3015268945707517
Ni 1.2858044971489504 5.55371494586856 5.335963804259339 -1.0751150144218131 1.5396228528348967 -1.8065375566484176
Ni 4.902072573677654 6.417179525066198 3.2016545023969485 -1.0713524620555872 1.959807443850573 1.80987330588987
Ni 1.06531670915791 0.3894535722244143 7.7621997573908175 1.1254348457222876 0.9749394359414758 3.032243368778326
Ni 6.834776668048679 2.3859605689953827 5.3936924139241516 -0.213413132350955 -0.7611218690632504 -0.1544219985287276
Ni 8.467111226279775 6.728693184708528 1.747833707791292 -1.048947869108142 -0.9541227563064406 -1.6222812483670772
Ni 6.920873408150831 6.795287708681481 4.952107451924465 -0.35613635438551566 0.29572134363256813 0.27300101921691694
Ni 4.308033020459854 3.0636090019682265 5.08664199438019 -0.9903897090582748 -1.8480883835070108 -0.10049079572791081
Ni 4.396114458142283 7.640498660837982 5.539109248886946 -0.24775278617308946 -2.091615561634527 0.1253973291616034
Ni 8.4049240354311 2.767656116781588 10.410127362022125 0.13575270425399846 2.378594126077459 -1.0599437059980132
Ni 3.358033763196341 1.2993898918533806 12.107052179204963 -1.3241099005321197 0.9249535909416522 0.23156460644900118
Ni 5.881255271417351 4.55350190804114 5.17258592208649 1.241159427680817 2.252468403390263 -1.0632018079239947
Ni 2.3021839683180616 2.065977002778068 0.4598991549294247 1.1923336644273659 -0.05753614654325575 2.368740116101514
Ni 6.135343150837867 8.648678442473553 12.836608374056711 2.379103204503393 1.8478425860447918 -0.15157347333633897
Ni 7.0789503773968265 0.09950695962109274 4.277182620372819 -0.31071190350412936 -0.6167145744580477 -0.7487093543315105
Ni 3.5250651661261214 5.324626801696319 6.241704305482677 2.7216448509236097 2.9644647185714557 -1.7404110973329896
Ni 1.8534186872791198 8.524359967750296 3.8485401228755007 1.7986928637930182 -0.9064763580730711 -1.5972304760460363
Ni 1.0635742751320332 9.075761135393696 11.798706581427865 0.1804356489836699 0.038796146931591245 0.7571775397035219
Ni 5.196972544185554 4.12599059498629 7.313768054630627 -0.46022515187733004 -2.7426849594233604 1.84720315268858
Ni 7.714594037168317 2.585483241701808 12.54543273980626 -2.109250501107471 1.3187100696727871 1.1328972155376038
Ni 0.2263356574810955 2.2425125913035404 5.829371735893888 -0.15726255330131628 0.26264718678641863 1.504542721302312
P 9.06664829861665 2.944331472742291 0.6436104035796444 -0.11507589263093729 1.3558915638190907 2.2931026319718573
P 3.7849766886812533 7.080273509117011 8.683255042383843 -1.1630390292283066 -1.525666904875437 0.0038132030985031096
P 2.872537600178754 6.667372551958284 4.414758502219166 0.3955613931503575 -0.3820530742512775 -0.8565463060118473
P 5.260231285370998 5.190785505719339 0.05403036332860779 -1.3412463031020903 -0.11850497291714429 1.4313171890482574
P 8.413962329576023 7.846478589052068 12.744895778406987 1.043155173685765 0.8023515651369988 -0.17173837831998812
P 6.989014691740337 8.893867795184379 10.240912791754042 -0.40906894071848904 0.009721855273454226 0.8993178926514189
P 8.034027851473725 4.902361426377131 10.936197079704302 0.6298613962526507 0.28635018683031327 1.1743827363758998
P 2.999614152290566 0.4291232974745116 2.1458196160450935 -1.1275400649907483 0.3049230647364942 -1.0352186924475073
