# total energy = -340893.32634542754 ev
CRYSTAL
PRIMVEC
9.07541472480608 0.00000000000000 0.00000000000000

0.00000000000000 9.07541472480608 0.00000000000000

0.00000000000000 0.00000000000000 13.28278680673201

PRIMCOORD
 96 1
Ni 6.586418562723857 1.9562963547436967 11.353262798046053 -0.5710736366904811 0.38085802550191183 0.3366419931063299
Ni 4.6693824512099855 0.4088156603449709 6.1808255820762765 0.41658504658987616 -0.24417458190352784 -0.2037118459027911
Ni 2.95564470044307 1.6060761082714416 5.047578570493212 -0.6995583465281564 -0.05188871844949128 -0.9102772198764001
Ni 3.5039267934820644 4.205710447776092 4.7246471879524785 -1.2415276096535135 0.06965452707334456 0.729351261519873
Ni 5.264048987879965 4.748665272489633 2.795548035453614 0.022173193662929556 -0.3203581683446418 -1.023060716928735
Ni 7.528809606872054 6.173305693601882 2.6491053316151687 -1.0288976353254862 -0.6408559475909414 -0.3824289695334575
Ni 5.005163713174924 4.590880115579382 11.128757008639955 0.4018112307148113 0.3270062697887788 1.1274590752411677
Ni 5.6467047658601714 7.59277312843558 12.494519770487797 -0.43130049842317975 0.6943737170034234 0.16893716142576715
Ni 1.9403780776690054 6.7709580416501804 0.1921192651365757 -0.27991908649298886 -0.6410505801002508 -0.5222579007393586
Ni 2.6842535045242744 1.4908274192340962 0.459215067361271 -0.361541584561487 0.15303720236605903 0.0691863291876744
Ni 0.6192645401952034 9.058507026511455 4.585377691753621 -0.6946192573553264 -0.8348269120568849 0.8951321367048456
Ni 8.70934860353848 2.12660558369675 1.5117671231647891 0.17830086202885423 0.4376729776084269 -0.5331915169327269
Ni 6.718547522775413 0.9449049339712816 4.663413551077703 0.1340956282665497 -1.3713696048500317 2.529942627887185
Ni 0.7132077860965482 7.246246575674499 2.2486299772175418 -0.8330633923985589 0.3179539297785233 1.0260467961402522
Ni 7.7506127378329746 3.839662678374384 3.875757417018318 0.5546581714469351 0.22292647115802897 -1.0513904171113635
Ni 7.759969490206981 4.0704958467864545 12.631385189379309 1.0916860314066166 -2.003493314774298 0.7644187946469673
Ni 7.87308545683124 9.027668767959687 6.8863546599442635 0.08616358047196129 0.017346718808563675 0.16997511577197824
Ni 6.53227463967505 0.6372347684937189 0.4340217166432876 1.309924095950041 0.10354243807004104 -1.0343355185116057
Ni 1.9004281029353731 6.38848377196045 9.253731898498064 0.31557823045749517 0.6223522323597991 -0.5484214465086038
Ni 9.236140114985188 4.830044514524273 1.4880703083017752 -0.3233715012496689 -0.3077849596653215 -0.5347169524383177
Ni 6.442428035889734 2.051061833200895 7.113012230133948 0.47560291988498093 0.41633333559038616 -0.0786940115677935
Ni 3.4474777151442195 4.400169354776896 0.6882712696095875 0.39754705612181856 0.7151446310021877 -0.47813288539568627
Ni 6.205487113503167 5.636558452422597 4.85940075788431 -0.8156107441397502 0.7185199752323238 -0.35286642538499224
Ni 5.134243333946493 2.884511601405767 9.398859574772015 1.2010224504506153 -0.2913869779232724 -0.00963906575166082
P 0.3899996034128402 5.6812094918795415 12.42005599432027 -1.1253404862362684 -0.687642568927177 0.5258785282110815
P 4.004435904467938 6.094658151338897 12.602694173903865 0.03600804266349282 -0.3547165912198536 0.362401361458621
P 2.180123303143417 8.548259995741576 1.395741578644209 1.8519810336931977 0.3609062649703333 -0.3806860187004218
P 6.381949473503336 7.839479196849723 5.773349452915014 0.03179657568530653 -0.23044771923573862 0.5325335716337539
P 4.686017686032055 1.249720881581119 12.429008890747967 0.8052435419728131 -0.5375287108555 0.8032625069870424
P 3.9696407651838066 6.31013571837675 8.093785924927523 -0.26008225427271986 -1.1974455317326345 1.4311410684817094
P 4.751369746017717 1.1293445833378437 3.840664604137808 -1.4792996304648072 -0.25659198173127423 -0.3390063795734484
P 0.4508085108879035 5.487140827703261 3.789565482661725 -0.35861541205362757 0.15168917297859683 -0.9452005141161464
Ni 1.586282629195101 0.9830579766292075 2.7622621376047856 -0.16119351292460626 1.2536979264674601 -0.7063707414642996
Ni 2.0597107032420467 6.588923377132417 4.972119221352428 -0.8366464817641268 -0.27876209007041025 -0.2841390381116074
Ni 5.900162942679998 5.519485605065975 9.05136921298851 -0.24118798847137815 -0.1776434309505134 0.6354412043332734
Ni 8.811147528251599 2.4210755587494903 10.355154153970627 0.2720851922708669 0.880361406153574 -0.3218319246766909
Ni 2.3639276734933157 5.287835649346765 7.037007448580285 1.4434018881269335 -0.169088856512283 0.3423231026515072
Ni 0.5115811167048718 -0.17480065160086689 9.092240342296305 -0.1310511850132711 0.9453720066970042 0.23805304238682226
Ni 1.4860537511945937 1.0209569076804679 11.453906422490295 0.05905669695284022 0.28039936856351705 -0.1556648697968932
Ni 4.0414000678232505 6.948291641444631 1.3254098387093545 0.777650462845893 0.5171797148855029 0.9658549571417043
Ni 5.674248648939812 7.81491204973388 8.159589033015015 -1.166670455333307 0.010179254525846986 -1.5165220051513753
Ni 5.485870269669933 3.07550370005849 4.680667729170293 0.01503555417688378 -0.09254917228333093 1.0225999752422323
Ni 0.6664830144209223 7.435632325956516 7.03557353308553 0.2127901540549755 0.42926675582260265 -0.7704495742220796
Ni 5.032244750113851 4.630712109924206 6.762438950036719 0.2454567910500611 0.6055215339557055 0.36103482012839755
Ni 8.022285271602007 7.161055659539877 8.986070697948538 -0.06328744720473618 0.03625769678045368 1.2178647188189349
Ni 4.7429749875832306 0.4231584454583358 10.32368696919236 -1.8774562951461666 -0.9376908360026625 1.5078910689492546
Ni 8.194500337605051 6.983976171352093 4.740892179950026 0.7890252803417379 1.1212010101465981 1.023681124121553
Ni 7.186984118834286 6.041076903990564 7.111112745874123 0.6806972479575955 -0.3162914544744359 -1.4927981791718743
Ni 2.3481001505638623 5.461874873669087 2.644589405348141 0.32811981456793166 -0.3769358076293702 0.1286690579343397
Ni 2.3565312106564433 5.251842555345496 11.429054307358406 -0.3008123850022303 -0.1342977169750268 0.2260195082610559
Ni 1.308983338421332 3.3059829273041337 3.7412697567320348 -0.5939682819004674 0.3074288618774834 0.19894244953860576
Ni 3.736175726559843 2.7777665757771928 2.5260009637660485 -0.3697146072905826 -0.11599557623172925 0.4991362271202307
Ni 1.0845937143211377 3.416285515426025 8.152934939086188 0.2496605447187636 -0.29771600546509375 0.7981236430985803
Ni 3.860681338411433 2.7553866035615777 7.234031067725506 -1.103205859120758 -0.5447434834363843 -0.10847561370560029
Ni 4.171133118440531 7.12793039652812 6.170172860508276 0.4409274799899826 -0.255591822601534 -1.5535487188873696
Ni 0.6802250070928137 7.430486565921538 11.135358465164543 0.09363854869276778 -0.37316888438777024 0.43422795648261986
P 0.21583876853589898 5.600411076374424 7.964929559353237 -0.12904263922367457 -0.3445846449921743 1.3921222640163509
P 8.350896956093166 1.6795052871832588 8.415574712779714 0.3880077491728156 -1.2976151966757006 -2.0928170381417956
P 1.8282331803987888 3.268447012833824 10.48049016625114 0.10611328412101079 -0.38808051139228 -0.2738913922416702
P 4.03306883729043 6.123690402400435 3.975883742834707 0.3622339826428213 1.1080467321528273 -0.3684455107701719
P 7.066208502351965 4.113250124607931 10.47254736345994 -0.970330990635187 -0.9003005682796624 -0.3560314533765352
P 6.1390641546037 7.476362786339192 10.28484873273789 1.4829891635012522 0.6031360644426645 0.4312495905805863
P 2.3328353033348823 8.609101574708925 5.815443040559161 0.6096880066285693 0.07917737896211526 0.6075208237739214
P 7.130952509564535 3.783458636228681 1.6015184350976048 -0.5373255937057584 1.434803090714329 -0.6573871124767452
Ni 5.353614253815043 2.967715001759683 0.408866482666304 0.3005442189425082 -0.17340368183755298 0.19875630166972866
Ni 1.132402998032354 1.028108334325198 7.009817506667073 0.10581400771303712 0.7127884720651854 0.008911443557016912
Ni 6.736344410656525 0.3980340678907331 9.314885671725031 2.3575483611507524 1.2542885088636075 -0.45674593507947786
Ni 2.714066241234857 1.5955758536674407 9.291494698331467 -0.03758284334978044 0.06397033220437369 -0.189395429280119
Ni 6.31319413307126 2.045317095807349 2.6095764561154393 0.6044923213602428 0.0985526981649335 -1.1564840017186082
Ni 4.07133078492264 6.861739413131444 10.552124228170157 -0.26796525656522235 0.5920602662444772 -0.9276586485776411
Ni 7.896291291768518 7.037766153234473 0.4174300438109327 1.0892817928404983 0.8943916589943951 0.1399978526835976
Ni 7.8217004597976585 3.818607716679239 8.346676888339614 -1.0930718560105497 0.3459144195471913 -0.4552127862644031
Ni 3.3372477303385186 8.627161649611226 12.385707365430708 -0.2947489524169698 -0.7030954131471375 -0.24716451776978723
Ni 9.154461384271267 4.9117050944091485 10.20925597500361 0.3078880609020891 0.31530955017714085 0.18760002794259306
Ni 8.652881374371589 2.4355054678422836 5.615643252111118 0.4112379233453498 -0.5099808831442185 0.9891113565664837
Ni 3.541344727563565 2.9661903321196896 11.92244284810893 -0.24673308665932342 -0.20686196149599856 -0.9624485025633166
Ni 1.296395738476864 3.354327660472252 12.750677883128445 -1.719868754405264 0.1440529965895777 -0.8808900249635345
Ni 2.870326728505115 8.505433114603909 8.063302515083635 1.217675228515948 -0.33447301047946915 -0.5872245354187305
Ni 5.597488792897771 8.06026588138398 3.643707235518611 -0.5069171566172302 -0.7351154176971597 0.5841978327772649
Ni 3.081339191597274 8.22851499124014 3.536714451073538 0.2483269135090046 0.31604797100506216 -0.12062253348077935
Ni 3.3139602166705266 4.296146953505453 9.268051087533667 0.2331854298818758 0.6598715694614958 -0.5904057613601896
Ni 7.265595359439175 6.011917597125693 11.630660103296679 0.40558303905241766 1.1942987585735365 -2.0130624465199713
Ni 0.40444584825177604 9.002430040169084 0.1722441073295211 -0.36548282859742215 -0.14520382236456927 0.2507067265950908
Ni 4.551683400251223 0.5116328465676574 1.6583423280552811 -0.796969217779163 -1.078343805771756 0.6142563427255421
Ni 6.058810263970008 5.460604315635759 0.37256845473703654 -1.1973812541536024 -0.387898477288461 1.048373998882543
Ni 7.808668164541526 8.61060809351987 11.48509408450123 -0.6402144573522006 0.4058836010119719 0.23349524781281075
Ni 0.4472455031458717 4.862498196861272 5.927151410390784 -1.872650646227407 -0.732316514795784 -1.1261472984082799
Ni 7.805782182722968 8.761768197827772 2.655149557687999 0.36182594857112527 -0.4544419695366496 -0.6440428299593552
P 8.419606919452624 1.4814978931036615 3.6338649484675827 1.757607149496302 1.5296271750747656 -0.8122837366490462
P 1.7576446062329119 3.2897923877937294 1.5077684955256163 0.6599710711538376 -0.8861967818884288 1.7642367389976779
P 4.822675277930972 1.042665299221324 8.255066023970878 -0.5507107567634127 -0.0852598377107693 -0.07254470413694604
P 8.531397875556413 1.5439548958562412 12.27454352047051 -0.27420043884165674 -0.5169948525682064 2.0304528740822776
P 6.110948520409062 7.779236595240943 1.5414010742092528 0.609123392374351 -0.2876642776560465 -0.8351639836813294
P 1.8943566506189715 3.1728647470694864 6.179444303985759 0.4491177291102588 -0.4211572393415909 -1.0608268799339151
P 7.113210074170565 3.987138164385634 6.033439942668812 -0.6977773433683337 0.24756098187725753 0.5141234445576822
P 2.366187451709734 8.452378241297954 10.184204200752195 0.5620115264882127 0.5350609660412978 1.0574325095403851
