# total energy = -340868.8019536074 ev
CRYSTAL
PRIMVEC
9.23888430361606 0.00000000000000 0.00000000000000

0.00000000000000 9.23888430361606 0.00000000000000

0.00000000000000 0.00000000000000 13.52204105907956

PRIMCOORD
 96 1
Ni 4.366167348736384 7.2579843111331375 7.538146084686631 1.1274822151696196 1.030315084498303 0.49529551321790183
Ni 7.722081183298362 2.6420160102417287 5.336716757877644 -0.7661977409242611 1.3235188039153398 1.866360442343321
Ni 6.286423244167298 9.078293956826162 1.5246912188014365 -0.04250933411712034 -0.2409301068243012 0.027588194030913775
Ni 1.1175631546537546 6.952454409225945 0.6718535099084179 -0.4240705563336438 1.347536506986176 0.9211519578073749
Ni 7.569584159987804 1.5503032536991421 7.849301543209224 -1.8955632891595227 0.2886937473618254 0.5487256080125841
Ni 0.27795368021948147 6.547227707455417 9.166226885383224 -0.5455250987974154 -0.0831960132032051 0.4122571086384835
Ni 7.496957290955677 3.4697184106639667 13.066767402723787 0.13918024187830869 -0.05411143713242293 -0.13224006311504966
Ni 6.583000667243281 3.4972964801285262 8.945276197052983 0.6461799309070162 -0.4479069966316092 -1.0483691137865363
Ni 6.5561432307496545 0.737189975384604 4.790413217609003 -0.2817954775800954 -0.6924261063587495 -0.14854985601866674
Ni 1.928737191165743 9.330441585578841 6.8204769478184994 -2.663415020747439 -2.1930072719101523 -1.3420225191464823
Ni 8.745001207769556 8.587219542672155 5.603790728012883 -0.9551357709519873 -0.5852483855289663 0.21443411741630164
Ni 8.244918881478885 2.781948150982168 10.550369729865231 -0.38473062108344064 0.6590393033681876 0.30121476264697156
Ni 3.512281950370239 1.4944264817990907 6.858460772605649 2.3697665004834993 1.703365614543918 -0.3681086962560435
Ni 7.272276865056646 0.4303906507824604 10.03991213656997 0.37747651062418863 0.22918093670817302 0.020519717219906596
Ni 6.283235829103554 5.78716317857423 8.56541485197088 -0.37995016897566175 1.2236304176581185 0.35465668451619564
Ni 0.840887212125043 2.4498472179928745 5.070657217232258 1.2195670462220223 -0.4582040076822432 0.43496329198674766
Ni 2.9659035751392313 0.14565562952881267 8.759929396928964 0.4764040756300376 -0.31475316345303855 1.6210172940529888
Ni 4.0059247743437245 3.228869937340151 10.814373618766611 0.23050942571160948 -1.027576088300585 -0.09075094273232757
Ni 8.749666844312136 4.35104329523103 8.671644466882253 0.6118685592196559 -0.33451440524036585 -0.5751393221194224
Ni 2.5025827692503966 1.5983084962243845 12.396344995984567 -0.768968618801179 -0.7113031457689104 -1.2353919290694206
Ni 2.8747527432004243 6.818795470886322 9.603475559939067 0.9176786545467938 0.3456727358500305 0.9532007587128036
Ni 5.354321451802172 7.793396130768021 12.074912202630358 -0.04017837199109855 -0.008772346875991344 0.02361995341178513
Ni 3.3569393507129206 6.766115352934256 2.7556025486755895 -0.07973762234095945 0.7651070789632435 -0.7884421541447584
Ni 8.092190886062259 5.887599089176985 12.772893277177227 0.7717181565218579 -1.915296505922392 2.2401854722578514
P 0.9201827078035749 2.844199753009705 11.661449035557435 0.3152876958002699 1.2592875047400958 0.20101193047312477
P 4.779662851904158 6.006660590413089 10.676016707789557 0.6630378830046193 0.6355587037477441 -0.8350997061022973
P 3.0691943009729905 2.442797949315669 8.837073156467364 0.6740794855307618 0.8849528821789986 1.5178037000772764
P 8.811216291137224 5.288900912479377 10.915735265570486 -0.580207223560633 -1.5363308123471864 -2.1315545639213096
P 0.008198585877001577 1.0785196298439632 6.8694402626397135 1.0339210566820065 1.3960642793832343 -1.877662754730018
P 6.146546536732314 2.699019926019393 11.465663220127551 0.09807241609440528 -0.031036814701146546 -0.12926735363997094
P 8.484141311175978 1.4643908691259646 3.7740149215247536 -0.4076160103220464 -1.2290772997053026 -0.6347194956759004
P 1.7626497691341254 7.427092848312128 7.8654464934234 0.3562538537999865 -0.08553828818313655 -0.27290794528247836
Ni 1.0767827196063295 1.1626951041795068 2.579004971929438 -0.5523202673423778 2.0661030191857193 -0.3851293991837561
Ni 9.170775188095922 0.006104130819173925 0.8730736370498775 -0.9095015180526401 -0.35960862920483233 -1.5544720020325873
Ni 2.729120210882219 2.9701072674696753 3.0311143917897163 -0.5982962198518599 -0.7718310279506385 0.44675128576061124
Ni 4.042926505735872 8.80335400064666 5.327035331079684 -1.7012249140518312 0.4804741319343532 0.17506075782500174
Ni 7.813426031806266 8.097050539173937 3.423862132613584 -0.01484837786674217 0.9509248181944332 0.9320130688915949
Ni 4.272568212473252 4.634307486113234 2.854651702753509 0.03907099785953271 -0.4350501952735991 0.49612623664931327
Ni 8.746359323753238 3.578035089525773 3.3402012641303607 0.3991642800102674 1.565728548783013 -0.2895830919453142
Ni 6.52553480725348 4.63652481833149 4.328675956479372 0.8490996199258151 0.47022648606441597 -0.3843069032824607
Ni 7.778835649201473 2.136168620183592 1.6916748126045993 -1.2114194774142235 -1.1695318360415021 0.3321929561960408
Ni 2.721313353697109 8.85317930336772 2.094009743607151 -0.1489614896347886 -0.1483714214592735 -1.1197748192230326
Ni 9.239069020418206 0.9289051384171394 11.599761005468704 -0.5184868637327006 -0.744603302582937 1.7231939621237546
Ni 3.959804264204 0.15465430278123496 13.541918599885443 0.8532660925986788 0.7327163213373639 0.8221192346822292
Ni 2.910174625387064 3.653110262882224 6.001555182980554 1.5231251122901897 0.2887541682861156 -1.1724004158385486
Ni 0.49149385949862595 2.5152215628944563 0.625722836996026 2.050110243301889 -0.6308178466286491 -1.9881134898841177
Ni 1.1260167337358555 8.57476552671295 10.407915373726526 0.7622510975716872 0.03247174737546021 -1.4665418165785065
Ni 3.0990913303824756 5.3192968416379705 11.763729027455039 1.9396947322610982 -0.22656972433757108 1.898951488905465
Ni 5.174338747869484 1.809121356875074 8.968507371481335 -0.8221925111223259 -1.2821757221921788 0.26975705835832253
Ni 1.3686205950657906 4.815287989544138 13.516821170840057 -0.013503433803073518 -1.4606907571143684 -2.325465364573279
Ni 5.642916478892434 2.9075877377990986 6.766808269252461 0.24845778265991403 0.8990967777795484 -0.41782020454855784
Ni 7.827155013790968 6.564208776693561 7.1241415189970825 1.1777305698022105 0.4964679362594482 -0.8819169235661523
Ni 5.177054979836848 8.45308018235191 9.35694147725227 0.6967481307728709 -0.385595025966265 0.44489983437416925
Ni 6.02414055940034 7.810386438890406 5.682826611044193 2.2895077155317476 -0.8530483201609179 1.7385012819047867
Ni 1.4310015414727262 0.07698669850627275 4.522487422346583 -0.4123836069140188 -1.6934321574802902 -0.4426382920335022
Ni 1.4137248279388148 2.6097261098133755 7.652596458797188 -0.35077586140455075 2.2123805342304417 -2.597147664978772
P 0.6522513692106106 8.167303014955682 2.5990311774139876 0.35159732886458156 -0.991171581529622 0.4568834890986067
P 5.491463449501306 0.6185950378027573 7.138447931246956 0.6071487851464834 -0.8034298858028421 -0.6128576626058025
P 3.4977214688036917 5.6211958620377676 0.6600240425240221 0.01960774692859849 -0.6393251127687118 0.13479728231926463
P 8.277245737444208 6.103687352730275 5.000126651034807 0.11337047990405637 0.8119566923269306 -0.9157621542503712
P 4.663373015940873 5.211645362441641 6.863517213951696 0.1363905949483135 -0.6626697010319234 -0.6068626213646322
P 2.559789940481402 5.181813005221855 4.279874322132406 -0.31091039266818066 -0.43924006498523066 0.11160927423857551
P 2.9237835018766103 1.4504863483406507 4.683196889860506 1.3190885360581281 1.6437386469099047 0.39196210583487334
P 7.36808409465379 7.67806713876598 9.038037366515299 -0.7650070630502696 -0.0187939927780515 1.2131035499848655
Ni 7.7036588481183506 7.685864757066846 11.472775313217607 0.7406733714009115 0.9688644333919895 -1.3864573524210895
Ni 2.891059373888849 6.440601744410032 6.206873679172091 -0.8303305668484281 -0.5568490084506668 -1.2109080849954437
Ni 1.24190005879246 6.950310988081631 4.778513534704363 -1.7363531252135322 -0.4081256029686132 -1.3826117534227544
Ni 1.9083654514105157 4.505462006464075 10.117650880253603 -1.7351603904570119 -2.052691887986136 -0.11727392872352062
Ni 6.081162952946491 6.71843347135751 2.424785820596036 -0.4805921455694562 -0.2590427572646119 -0.181213664800275
Ni 5.494216637005641 1.8790227550555947 0.0749652306339627 0.8216096420356626 1.0312121423912757 1.7949817334900184
Ni 0.8442196776713969 4.658605751671622 6.227698124255212 -2.8725452094523236 0.6515275683721747 -2.2496381330303192
Ni 5.16962691690569 0.8040333028807797 11.22472697740343 -0.5145124524659849 0.601501614163035 0.574888639561197
Ni 6.720068753868473 4.754930358786361 10.768804670016175 0.6071315587553029 0.2889737404960894 0.00584566014749961
Ni 3.894254380501807 3.279166423157591 13.148751413716955 -0.9274886986586801 2.471689400672246 1.104973235433826
Ni 5.798249839665511 4.72413715760533 1.2891458650329497 1.1300180942175957 -0.1532043240715426 -1.8001447657481966
Ni 0.5983406318774128 1.5480120104069441 9.274254387168233 -0.6908204524345264 -1.401212142132761 1.826848500291628
Ni 4.383702751029092 0.9721061611361606 3.044135675241425 0.3348198522959266 -0.41590807512750955 -0.898576129389388
Ni 3.083994993529849 7.463789696524265 12.990299929511956 -0.38548652541285866 -0.8150759546822027 -0.6766580448912153
Ni 5.646297910525275 5.386445052314156 12.577959286874524 -1.4770422018891982 0.6207758890116147 1.7353509092012631
Ni 1.7113370060499844 5.094754999002579 2.193234436485683 -0.2950942515715305 -0.36088595325535916 1.467582599138195
Ni 2.0850036792473348 5.081321661313644 7.939169094126716 1.0046531609558247 0.2557095791263209 1.0260969326518972
Ni 5.077884796375348 2.7144026682835443 4.41873290452384 -0.1945638608549359 0.5924006803030314 0.20713089888666908
Ni 1.151673115277926 6.412857375029103 11.488934121758147 -0.062523315345202 1.121960514020442 1.2430779848597688
Ni 8.97012510011224 8.634273180120395 8.069913164487756 0.95373760505288 -0.19671535998029993 0.4627774859855385
Ni 7.021330291255522 0.5512103116899573 12.8037908777502 1.7088268947688052 -1.379738031419385 -0.5140339701676695
Ni 4.439496372970958 4.564997376524248 8.961583751629831 -1.8125241132491559 -0.4460475748253673 -0.23040709580579027
Ni 4.676686248134652 6.1691540864742835 4.586135019783198 0.2642227588036546 0.0024615741666151156 1.272708406131692
Ni 8.445532013925597 6.241069561419719 2.2011179764100075 0.3980620480850241 -0.5375325675102419 -0.28903184742753446
P 5.890315321144348 2.941642265117814 2.372942745556362 -0.7471918892457197 -1.0604936649642123 0.7799032634358117
P 5.367154262015329 8.266870470439619 3.7134226231072116 0.14965234505422612 0.4571210590307095 -1.6504266004530417
P 8.783453443987812 4.317580056503849 1.263056179819895 -0.09559952907388052 0.44070225135305396 -0.27013963850872186
P 0.9690296126833303 8.336947407420752 12.503358068279724 -0.6405823822145806 0.6266572874930563 1.233940541334875
P 7.073456076153024 7.4050026760877525 0.2333391082113221 -1.5582062722640388 1.6009997132804814 0.6605552257920817
P 2.796351571516589 1.8237187939785926 1.0211443109197407 0.10035195615720136 -0.20336680385854652 1.0507412135631387
P 3.265631457741987 9.11304140046308 10.907175439319593 0.14792636350205493 -0.6534672085970488 0.7600366064188716
P 7.760468747326919 4.439644195118842 6.641377481219416 -0.16354941475129253 -0.9099779434684264 0.6791723266726368
