# total energy = -381170.0343110588 ev
CRYSTAL
PRIMVEC
9.20417694498195 0.00000000000000 0.00000000000000

0.00000000000000 9.20417694498195 0.00000000000000

0.00000000000000 0.00000000000000 13.47124333143860

PRIMCOORD
 96 1
Ni 1.8058963631729599 8.48957399152196 7.524201240027059 -0.9250898594092004 2.315817042850237 0.11579323041293606
Ni 8.685162754836803 7.26767346098728 6.979128031497288 0.2454493348508934 0.600093935182231 -1.0406786871208142
Ni 3.9751460256108633 1.2762143795850744 3.9623098802311514 -0.4138591630182808 -0.5724653748316851 2.0720486952461927
Ni 3.1746955601784577 5.801834624846328 3.756146437849371 -1.0335852706091426 1.633278113698213 0.921807846223819
Ni 0.46186008422968555 2.444114003090663 2.163253141059098 0.41475159292556313 0.5320499471291159 0.18168854755416453
Ni 7.699570267094841 8.251618401028848 10.245635258220007 -0.48965528421298893 0.22254106279415223 -0.30998993773644035
Ni 3.8266090156167487 8.09138288194423 4.116084987411265 -0.6049803167402549 0.014292248252956032 -0.05477683863056373
Ni 5.927278354503645 7.194352986231231 6.887618261961814 2.5490544090159712 0.6954780058111958 -0.3521650284425935
Ni 1.4249354731211323 0.7464477175678949 9.847586813387286 1.276721383945827 -1.3765989715697713 0.2703687238003924
Ni 3.7362239965225483 8.858551042993273 0.15896718348062644 0.1121962570902971 -0.6490554526825983 1.6395629182656601
Ni 8.438766933945587 5.776771650610737 10.568918172492426 1.3694531045536091 1.6981236494186882 2.7475867676003523
Ni 8.355018126538445 2.055053437193327 9.874300096576398 -1.3523884357618385 -0.8279569244099289 -2.1688527861511355
Ni 5.094235897970164 5.725927776325975 8.236183916454605 -0.18485794642108164 -2.33266908141057 0.8287863622897598
Ni 5.263353447953549 0.2949184017120719 2.0489897253217118 -2.072555459679282 0.5509262152083286 1.046251039002269
Ni 4.854283001046967 3.119001084563488 5.893184241700312 2.9968472486672195 -0.447342639487707 0.31234018313617173
Ni 0.6494918364440256 8.066752504032207 0.8100485813093331 0.4531733872368712 0.02815666493987409 0.8373460789343127
Ni 0.9841658402918998 3.339109775665189 10.217951854764852 2.2873217636240217 0.7048507052753474 1.0840076889257524
Ni 2.691117299670292 5.779376432729236 0.31738671842397126 1.2357138311852138 1.0155122151575156 0.016840211485790353
Ni 5.2955404552623495 4.751214625912868 3.8058554370980517 1.0208282280537904 0.28632961800502305 0.38188029611883906
Ni 3.912088208318158 0.47766641755865397 8.836772119145952 0.10105412443054854 2.7017224009680696 -0.8982632261346594
Ni 0.6374362052821536 2.8090412166392227 7.727711118151726 0.24951836271394448 0.1041718441239238 0.7745839081054273
Ni 1.9138889730540447 5.191174291157549 5.906925157688676 -2.1982119560395432 -1.2090622900359564 -0.8512683454423596
Ni 2.782413532297112 3.2185810765777605 0.34879045026180244 -0.41228179122883196 1.1869078654261043 0.4685375283977673
Ni 7.128920491247456 5.725605630127574 5.349256032801429 1.0596382589424524 -0.14583579952161338 -0.47551910192192304
P 6.770114055468514 0.8253339582146018 8.473950821317224 0.10289683406624214 -0.6546717704281113 -1.1569527138249107
Ni 0.5544136074479789 8.155269075175681 3.456182306252631 -0.8854403633383784 -1.157303155185794 -1.0879183368340684
P 4.439358697506585 2.2219067596108077 11.923801574144715 1.0718628260331025 1.4486158282277053 0.1796730597860325
Ni 7.188931725920999 8.81616580746081 5.844364365959218 0.7069119586797503 0.48410607225998553 -0.2201018572250403
P 2.4968447336803448 2.281485397960783 9.028615702799957 2.1053547655974905 1.674472842768968 -1.641212538053941
P 1.562224978702506 6.917353276491928 11.105706701217036 0.02387449262475243 -1.2302142415232233 1.4764246229098572
P 0.36523463306360465 1.3828631796099724 11.49005472844062 -1.3011054692171464 -0.4398201058584168 2.386392024855322
Ni 2.6765931082109597 6.470720582851799 7.553151138250786 -0.14489786108837627 -0.3926287928845948 -0.20550544746810415
Ni 5.3116477651823955 6.568275655904694 2.18915829749908 -0.7056827142583394 0.7289298577117381 1.149983224485613
Ni 5.289346044075954 2.5744543549636743 2.840761572169196 1.6025146072631111 1.878264907090391 -0.3596654505846967
Ni 3.2292303094791848 5.827035661738377 9.481155637301049 -0.10618913166426874 -2.428404364731366 2.6189477915729995
Ni 1.756138581785664 8.837215760482035 12.270484267851264 -0.6248099498716724 -0.8654842319314255 -1.6606094545233143
Ni 3.2551492721848128 1.4594603414126135 6.326837204798013 -2.7324105740805456 0.1708462055230219 0.618346967855148
Ni 7.104934405732233 8.774700989638063 3.3451790100430627 0.11074126981132541 -0.7470504785718489 0.6293199219268839
Ni 4.0158008758490595 3.5687263817082657 10.168808912407647 -0.14481918533164093 -0.4870415007392257 -0.6002643993218243
Ni 3.8010490158179104 7.039345439737807 11.679191363610348 -0.6061126305724851 -0.4563312161395625 -0.19841563050085828
Ni 4.864858600531615 2.167758585748162 0.5574776780036265 -0.7150721258930395 1.1960424807375207 0.19613814732059126
Ni 0.5299875622675115 5.456457083452157 7.925267734529943 0.005910194836847886 -1.5654809515485815 0.5512429751177991
Ni 5.765459716958316 4.551152632528801 1.030834699845386 -0.5079121735406479 -1.338229113542321 0.8345888279041497
Ni 8.941683170534905 0.21650249451503026 8.512465700380329 -1.6349351896856616 0.07040426075517552 -3.045877414621993
Ni 8.54214825110099 0.5021467673839946 13.360146545195496 -0.11577086181543286 0.8127097684428712 -1.6492631762725594
Ni 2.2762206086612022 2.2677435615547092 11.94946466072704 0.29989064451890934 -0.6932061790578836 -1.8462682995791366
Ni 5.567947280630165 8.010680657156252 9.049092235588029 0.05199259101720723 0.38148588889389784 0.7839650922100112
Ni 5.361285892267428 6.8264436193031885 13.371731842907703 -0.26531419209562046 -0.5106977067055849 -0.12932494635078373
Ni 5.300335831529974 0.8899509631075675 6.714553040421453 1.5523582981236943 -1.239505179906846 -0.053043400879224774
Ni 1.005519531157332 2.7133085706515674 5.2389669807346 0.951268317576781 0.49476303775319946 -0.8852609003377205
Ni 3.2465801833073487 3.88220224528365 7.586263165357852 -0.6749130371756505 0.04687532439529992 0.3882005819099121
Ni 2.9147051697147233 7.956173520386818 9.64270275162201 -0.07690323821595788 0.5732251358158451 0.4499494809829347
Ni 6.1097327571008275 5.9635151997352 10.906574329719781 -0.6002476871512759 2.4406633846043775 -0.6662885287314332
Ni 7.939817697685148 3.275131540662767 3.8373917090860825 -1.501329356571337 -0.3992406417741576 -0.20444718140691887
Ni 6.588313149445231 3.7899027573532384 10.296138577952174 -0.29900669925205925 0.6330441648560066 -0.9235651952345579
Ni 3.2538606873912093 3.769322217363969 4.779650931054571 -2.00822440170138 -0.9248646307722717 -2.2347766425374544
P 2.775860158203928 7.1916561623417605 2.16266039205404 0.18659575504779474 -0.24684981474284584 -0.9451660613337851
Ni 1.8191411740157863 7.494169850994417 5.429921440881018 1.0193511292876314 0.2121895443564991 -0.06013990271468997
P 8.415848532973635 0.5927517663108172 2.025023888996103 1.369624854244783 -0.8591711452292041 -0.15803414136001814
Ni 7.397903362735125 6.180135507717074 8.593373178317574 -0.25444433926065213 -0.6205815136126216 -0.2601455034104874
P 8.789335631222562 4.366553656667978 1.2086750484637574 -0.449246027158007 -0.5148736924601455 0.05138041135450506
P 2.8002604316885233 2.2669243897930618 2.4302120140030987 -0.08859610117285387 1.1976774452377825 -0.7374551215739299
P 0.13781414367591246 6.344052697640558 4.987350550593869 -1.2290027377136252 -0.6257406892160577 -0.6728669532798992
Ni 8.721887421454507 1.0188747921253245 4.147297272365475 -0.061555037894661734 0.8495043115634014 1.1547299951419792
Ni 7.1441073834577855 4.520024105586176 12.607601980718435 1.1190104302531825 -0.26644779147943143 -0.5108164916716363
Ni 1.7705891398282196 0.499339493369358 4.550680458243716 0.7492428582374773 0.5465813079760716 1.8973221808321583
Ni 0.5412838488188672 4.6311369315032005 3.534463832464054 0.49299283322665416 -0.3618904832604735 1.6867004951834113
Ni 0.4903506940162627 5.617760287080045 12.848293052644827 0.03834183300299203 -1.0083504073017537 0.013033436145190458
Ni 5.933371519741971 1.5014866140382874 10.245406074210289 -1.7980274622948778 -1.0367798662870402 0.26978971136847085
Ni 8.547514286348639 3.931867984899974 6.052778229641255 -0.5880781416682775 1.8542271494148967 0.6270036150888815
Ni 5.882868200009805 7.386922779458202 4.5865003542527685 -1.0880242662843134 -0.6127450482873383 -0.7989849626576111
Ni 0.04718613430634695 3.0574343439605243 12.89158950170991 0.8612642803128071 0.5656424383725807 0.8219297443792425
Ni 4.2261071183422745 5.844578823285581 5.9236555903982 0.7575254099612437 -0.8027230895438047 -0.7949537300110309
Ni 2.5206099189452353 0.0933874216632968 2.5090862892195793 0.24713289320090343 -0.35742987638595863 -1.8897513104634358
Ni 8.404242065654104 7.41199495787089 12.408779789989358 -0.7624948381513772 1.189344499892055 0.12206697923678976
Ni 1.7251297091453015 1.119402814380605 0.4890501437924327 -0.24380742837209624 0.4941218046247749 1.011926040468154
Ni 4.8399981181921605 4.714038954617402 12.265405402929046 -1.294696480367009 -1.6786028057769413 0.5613890624128653
Ni 3.555665654407383 4.462645265562423 2.072093130253316 0.6557955996199093 -1.0700098319847637 0.27830520503864975
Ni 7.451149527242248 6.085691446523022 0.777764009723303 1.3762253902804362 -0.13882645808331576 0.37616910466667475
Ni 4.024535639914273 0.23190016238088443 11.444549276872216 0.6430871509143055 -0.5208432797800191 -1.2903171203523907
Ni 5.440773165678579 2.851122714327479 8.165728702028904 0.6606393008654557 0.23330884283361755 0.6749865707260633
Ni 0.6448354432505677 7.4393865889120665 9.289028564992451 -0.6935753894718442 -0.7050180840911471 -0.005722504306074016
Ni 7.338333928562246 2.242192765932968 11.822713937921925 -0.002787847157782296 -0.46130552942570224 2.8985040954099306
Ni 7.425184543651134 1.9209577810646705 6.542551821753526 0.6492279737047206 0.21040417032130215 0.10736926801529896
Ni 6.104375926030276 0.5826520227820935 13.130340333104217 -0.30842516435248174 -0.4499170850831025 -1.6329472127213558
Ni 2.5206375314765266 4.8025555257608765 11.623689255296709 -0.7558125410351951 0.22927529619419224 0.07236884068071407
Ni 7.947457164675798 6.529710153867555 3.029750020087659 -0.459329379535938 -0.5391976139174907 1.075421232808322
Ni 3.9897070337785845 8.133906180133152 6.756919867599723 -0.6085119840425972 1.2279401007770658 -0.6848354384956851
P 6.286066381928393 1.229705672713079 4.410390390928665 -0.21027432961165723 1.2200064477522858 0.93373082291365
Ni 7.260291710955349 2.1982152077626944 1.1958987302351771 -0.19487624988903213 1.346662589021655 -0.18599565956995065
P 6.375356103948031 4.44054603635212 6.820733347832106 -0.2802754413911431 -0.48035611829925007 0.7246993645701584
Ni 0.8249059639795834 6.045110229701604 1.8700237058443563 0.6426462067221449 0.45860509977540376 -0.6163168247989967
P 0.8551508899208811 1.0047095635727812 6.482524019561208 -0.5309513147482985 -0.8362932121897663 0.33195410071235737
P 8.519662446452605 4.2038053972358345 9.407629909395732 -0.7260047136451433 -0.8887953958535403 -3.2271905811146095
P 6.157171085859638 8.048325741483675 11.838259793039045 -0.024218506227732483 0.11911509569731744 -0.9193583562420619
Ni 6.758305096252846 8.247034720834456 1.1981933315855013 2.5655763179303945 -1.1053959247935414 -1.342109936653966
