# total energy = -381170.2468236674 ev
CRYSTAL
PRIMVEC
9.18211095822262 0.00000000000000 0.00000000000000

0.00000000000000 9.18211095822262 0.00000000000000

0.00000000000000 0.00000000000000 13.43894752935669

PRIMCOORD
 96 1
Ni 3.1821340020209563 2.987179422611712 8.810224425286114 0.31709081044727966 1.4980915663603296 -0.14784177420804862
Ni 3.6512480497799196 4.8719178777125185 10.46312100671144 -1.6703112551921107 0.3764994914229 0.11797429722465488
Ni 6.362798866292032 1.770760912042831 7.029846170248123 -0.5298028029661521 0.18516699302106818 0.7186194769246655
Ni 3.8297023758358097 5.293147216936289 1.138890275085459 -1.9703497381427937 0.4369147592861637 1.001708990725836
Ni 7.919267673292806 5.9107451806535645 -0.17817518988341302 0.20652437565092174 -0.2968091773801082 0.5129037132179683
Ni 5.951192379329983 6.902863085259323 4.781174748168915 -0.6235663072725584 -0.39408120906040517 2.953070103581269
Ni 7.657256137712419 5.6079375261811615 6.598617512214224 -2.132621571733243 -0.67072111058149 -4.456229314272493
Ni 5.5319188297357424 3.3976014172629183 2.534330566166122 0.6064543301826201 -0.4696893826140234 1.249517055616893
Ni 3.4721601580693924 4.109664938297559 3.749587539701503 0.22670239326069344 0.6592262225680131 -0.06504453910515895
Ni 3.735016447855962 3.348063928759109 6.2805978545528935 -1.2403857827395863 -0.644178069985639 0.1440473401626229
Ni 6.397112414862696 8.457036364525909 11.45299388519316 0.45142477997688063 -0.5212955368260893 0.9136651625120265
Ni 8.030013113301044 6.141711999156774 4.26588478272009 1.8288405910209922 -0.40569873869467543 -0.11492805419916335
Ni 8.39755464987759 1.2599417164091136 7.861475467056851 1.48887081909301 0.8797209443560978 2.4805944164713605
Ni 5.63462074056338 1.2924463891252367 12.461331070557609 -0.8810851716934762 0.7770981898868488 0.179888004010316
Ni 6.038569347004173 4.970010368849904 0.862954068269478 0.4812089532178487 -0.23427557762226103 -0.6686061211210163
Ni 0.9240784625643819 8.860874785635458 13.238572887865732 1.0630699103318209 0.017872252294730512 1.8050910540098786
Ni 4.196858263753013 4.129553390586577 12.375751960204836 1.5908839650027182 0.9826889979799075 1.8470889957082188
Ni 2.867233507444843 1.1525477468927927 0.09198271452006629 -0.12094520692752073 -0.5278819317943553 -0.9402516547513032
Ni 4.886645983655079 7.073512617018969 10.343245793798785 0.07256013075591375 -0.8520823567032229 -0.48797686806930163
Ni 2.764467321840648 0.14564388904557332 4.325728272539317 0.6675511974939407 0.7165132292149401 1.3039007725740963
Ni 5.801735159612375 9.043268237283218 9.05465221842261 -0.4349661202002251 -0.08499038609946653 1.6261906107238124
Ni 8.060956827157916 4.341439782563203 1.9702303353996795 -0.34224494111540416 1.092996522687924 -0.35535448191416863
Ni 4.391656747276332 1.2523297464425414 7.854768853228644 -0.4963578930441452 0.7094442381833007 0.42650693368927833
Ni 6.013346088260898 8.152355559422405 0.5073832497211826 1.6806393765909957 -1.7927320182238933 -1.3240353385404424
P 0.4443902958506485 6.6150314537247725 9.175078357991472 0.010228619706543674 -1.9387531942834353 2.518343610195676
Ni 1.6912805597742542 1.3056869930960415 8.446028849934923 -0.6857160413284255 0.774993227728704 0.0506630735725063
P 4.395292863207288 5.429519928569019 6.854749742161805 -1.4740674355315904 1.220643824225969 -1.2206535944179817
Ni 3.5446070133604124 8.230109674834873 0.7799505400344672 -0.49277351812699655 -2.111616687346802 0.8492811398090019
P 7.036104697062617 8.917776327110547 7.457594808236991 0.49019984386254933 -2.2858346375555345 -2.0882260763370035
P 1.9678273769675299 6.847999972412194 1.794610526989966 0.9355167111694791 0.1346885246555422 -1.2615395339990658
P 2.3134144862942883 3.071204919793984 0.7058095852756153 -0.6796348681313521 2.539224567409743 -0.1617982363881407
Ni 6.645029410155161 7.396980021099078 2.7529143898600195 0.9572283918149579 0.6364573043026135 -1.7821185043741048
Ni 7.075661230978171 5.871757937616091 10.970132380939685 -0.9241542349688083 -0.1157906593097748 0.26979871022953533
Ni 1.2669476670538597 7.711357135351796 4.260186364672738 -0.05556591019076237 -1.1391910189661156 0.6875170990929063
Ni 2.0821354760192294 2.3079786766197277 4.842321179530067 0.5573022939380016 1.6562910296536186 1.531645233946059
Ni 5.879884105795122 2.1239232628924145 4.830172328549643 -1.1678451923676985 0.8534707524103172 -0.03680071376811727
Ni 0.43138383570873085 8.04673373731688 11.281109359512522 0.12924215682899032 -0.28159621708509563 -0.3726446364531841
Ni 0.5079507041770742 1.3403494618823026 3.647518276317408 -0.49618074403633255 -2.996970404508645 0.48347358088230924
Ni 0.2835105301277127 5.838105501032873 11.439004020969916 -0.6284796854137756 -1.7682633436585677 -0.8256053934586168
Ni 8.750083435072538 7.706839536770911 6.240617107112063 -0.9666818239183739 0.45321606754934846 -0.6144509752348515
Ni 6.823713288984469 0.9865168169343358 3.088619711396639 -0.0076850273490835395 -1.3113407737919092 -0.03757075916492239
Ni 8.154449080715986 1.0738386919429037 12.713217492408033 -0.6690072132141769 -0.7009842803414056 -0.11401942634196492
Ni 1.0488358038621117 4.089106191910158 9.577508243283324 0.008011814560882976 0.5671434483981395 -0.9826949115171786
Ni 5.602373166953487 3.1250763646599427 10.326016480837051 0.12230763449268613 0.14487317849802792 -0.033034304747149565
Ni 2.0809509837083877 5.173880777978741 5.552919235659202 0.7538099087828696 -0.357654590802255 0.8460875725723686
Ni 3.361855459386119 6.817634731544336 4.6846422976796855 1.5405337946849404 -1.3509403904614026 -0.5913105325626462
Ni 5.401946049425934 7.123986680838327 7.796336653860397 0.9039327657156109 -0.47761377966742263 -0.9351189615104282
Ni 6.432656366298886 4.4418369835457145 4.348991150597593 0.011555823158399453 0.6008344128926814 0.30974851114959556
Ni 3.4799465881437635 8.258078384748236 8.751563591355543 -0.4828886549131167 0.4630250832199703 -0.21480795581595263
Ni 7.64334523964323 5.5600344534240955 8.643460762874904 0.03126975664755905 0.0242411319355518 3.50705978820627
Ni 3.573310292148718 8.528730286720114 12.00485068923653 1.2721283652585058 -0.549295621583441 -0.6404065187583486
Ni 2.4185312922982933 6.745527614357976 10.358337511334438 -0.9159326183899645 0.6356831451407503 -0.20431271271158363
Ni 5.149107442671368 0.5885292369136872 1.5039260135873644 -0.9557695478812444 2.2062875339588257 -0.4780626942793832
Ni 8.117977736075185 3.462932136577951 10.66129207958183 0.40718329366000194 1.7086507742022576 -0.12874259148475248
Ni 2.4078524972788435 7.589519705331956 6.637496406342644 -0.1521519715476283 -0.059795889111709924 -0.21012803384178003
Ni 8.32003926934948 9.41065367797384 1.544591746504078 -0.560332596123893 -2.071159093552388 0.34895346348383127
P 2.8164288876317616 0.5805160086991785 6.780553694737333 -0.6725131694849062 -0.8154161116304409 -1.9206287167685827
Ni 2.074367410166732 6.544797487169511 12.772698288845257 1.1104743677577134 0.43087703773251607 0.5445295676533654
P 0.12090544575976012 4.529911791651096 5.1296597317073145 -0.9321575648892592 -0.6519656843508578 0.2966939919584826
Ni 2.835454221492724 1.8814604414963847 2.6596480162309946 -0.2388292584312145 1.075047137298355 -1.2003022844551392
P 8.572556502221259 8.323987577052286 3.9227483788023525 -2.5372054800971853 1.2519722020256052 -0.7007559663806835
P 4.572323962067982 1.1042498433654462 3.4306680351683707 1.1641451178082918 0.33339854646836775 1.778249765447318
P 8.065713160623158 8.00654363774669 13.119221055276471 -0.21515428341177784 0.5473122726048251 0.0315561775397263
Ni 1.3161913280076927 5.501920873305354 3.354603428168268 0.5503106931115167 0.3288916597369497 0.46831847040842567
Ni 7.10132523104641 2.276199390667608 0.9841680329567132 -0.5214698576204245 0.8276810450407229 -0.24977058793406665
Ni 8.975026788801232 6.9352483905332685 2.1806301436156446 -0.3255535965026522 0.5615471852572845 -1.2960398817687806
Ni 8.066860924490253 2.772887317569655 3.629376261528562 -1.2377072074661586 1.341264300824219 -0.17807717605382234
Ni 4.953014281505966 4.850523559229873 8.823542158988788 2.4123997617729938 0.23550482204367185 -1.408454168407155
Ni 0.5143194163228095 5.831439288492787 7.238943036922163 1.8682628015723566 -0.4225767453969368 0.3439056166472787
Ni 1.7047048059637944 3.925168783245282 11.750518153032553 0.38677284832445 0.8288791791138822 1.5945328746092151
Ni 2.322348680235754 0.3931109609021365 10.517844551472331 0.37051602014595547 -0.5954800905593035 -0.6132363861014599
Ni 4.4882066437763415 8.110329037664865 3.225992354910381 -0.15829228011741125 0.28927353112469534 -1.1684954243571875
Ni 1.7118576703835287 8.9727955358436 2.233338215025916 -0.5119922571472925 -0.6978133388125918 -0.7710136742556657
Ni 5.825314820497969 3.968343068869918 6.562896346036954 2.6195838824951014 0.26733945005576537 0.4264488267578333
Ni 0.754008322004845 8.352149111295322 8.140709888121316 0.11948816276602002 0.6514262669076201 0.2676708652532551
Ni 1.345013974238176 3.4409960735500364 6.993466646716688 -0.5784223637460684 -0.7264122334962071 0.4283889812033397
Ni 0.698469405792771 1.8063507740337048 1.3256342108950547 -0.562318001985038 -0.6607848253043845 -2.5354404177769623
Ni 0.6921190578689091 0.7197452750443328 6.2040897515945455 1.28132622970769 0.07160599437276055 -1.2286368697337744
Ni 4.42601620640168 2.811727646832141 0.7367046339445247 0.33635762909669165 -0.34028087541049784 -0.10116005388079351
Ni 0.9205525319646668 3.4394259325798506 2.706886304156239 1.255577145768044 0.5297472671378682 1.1967778162416485
Ni 3.4560730997081928 2.5126938399547454 11.095315772184879 -1.5223591806584427 -1.372963431699713 0.13799213510747846
Ni 7.256925282980709 1.437487013482265 10.528259819907895 0.5340266112395126 -1.9991450651079314 -1.1054180362807284
Ni 4.861349268024311 6.483020244787004 12.720542062302284 -0.15472436026049483 0.1961147502818235 -0.5829228227195832
Ni 0.9577033528147895 1.7086898421103474 11.746822353380507 -0.14285229141325717 0.6280073737630474 -0.05655861312133486
Ni 7.81806244654786 7.978923848048922 9.59401125126996 0.4593543192366024 -0.3268610024601661 -0.46988504356459715
Ni 8.249180919250518 2.6996048901833904 5.930539975411028 0.5050487359499238 1.6123606468192555 0.38985457257356726
Ni 2.6330162216700215 5.432228651295362 8.160370624059102 0.3274582697245328 0.08846471780131215 0.05851342285486052
Ni 8.935571258105984 3.419418112848655 13.024745397637075 -1.1427993051426641 0.3372086642430773 0.17626969053143834
P 6.541198099682302 3.5131215549582695 12.298155777100481 0.30349044605502573 0.0391203630402294 0.984925086399278
Ni 7.528633127710313 0.4284005678653782 5.387243653393997 -0.1736674770219009 -0.33730893726636746 -0.6074691446003796
P 0.1832134141544121 0.49659059652611737 10.000498711384765 -1.0780159901186919 1.836817695689198 -0.9485082383331407
Ni 4.60976861046808 8.657619577939386 5.65189688229089 0.3370914219389227 1.2303687648232164 1.2485462070631916
P 7.511637040366375 3.454952882173908 8.354765094701204 -0.5833496258443567 -0.9445924482185023 0.1258236180657446
P 4.514724580161698 0.8893957931340597 10.328462595190603 0.11090196375890578 -0.33603649831184706 0.7301660441116844
P 5.0624834080939936 5.854715939717468 3.1419053375848325 -0.7091837854330626 -1.5244983384886326 -0.758665694213274
Ni 0.9204056181896786 5.07251945534787 0.8935635532882542 0.891212232825149 -0.32881529797305953 -0.5167485408853552
