# total energy = -381165.34820122767 ev
CRYSTAL
PRIMVEC
9.25355373725939 0.00000000000000 0.00000000000000
0.00000000000000 9.25355373725939 0.00000000000000
0.00000000000000 0.00000000000000 13.54351125803290
PRIMCOORD
 96 1
Ni 9.097538651034954 4.868035430586956 11.21553085571711 0.45694570979510984 -0.6676692111290438 0.5659548274066768
Ni 5.253196090586577 7.124727298931085 4.777175713496159 1.8382791107260725 -1.6008377337813204 0.6305692209529526
Ni 3.4633922673204323 8.838596461650013 8.224865625773624 0.6905507437129075 0.6580034059045055 -0.902767027542284
Ni 0.2577836444787126 3.7889045210456964 4.2131290574162765 -0.6456574827446429 1.426261114681589 0.25964542384561734
Ni 5.342927799497909 2.3931077549864765 5.2619656832993 -2.7832497682196 0.1650167433254384 -1.5544722591429037
Ni 8.39631361549904 0.5420703917204389 1.0866050047550044 -0.6212014065848076 -0.333502933256716 -1.2807081365077169
Ni 6.776108921956198 4.507091320264653 4.385808695121077 0.10365659505040212 1.4477905041129324 -0.5771946619865543
Ni 8.540215626974765 5.580207419989231 2.8041570817924537 0.8747746560944161 -0.7684960500401345 0.05835658556202208
Ni 0.17141837835401072 8.182510260399907 2.6323981726672834 -1.2050752803637503 -1.7072492658690404 -0.6388150059015126
Ni 9.086397372543747 4.626804542723752 6.992026714044735 -1.874676418408184 0.33916938751387393 1.201365692722647
Ni 3.5348667150497417 6.069054147674885 2.5471007666238816 -0.3121229249190431 0.877251913990315 0.29364363516793296
Ni 7.584305036693409 1.1054387623240705 6.927695084311574 -0.44988957427927684 0.0825951463944126 0.35806750996995756
Ni 9.102739148137992 5.987317509042959 5.375987970316462 1.581844223397953 1.3484873009352194 -3.146118299122627
Ni 2.8213066926128487 1.8854485529049534 8.067815240038632 -0.013318057265144805 1.1598153800846864 1.014525425764214
Ni 7.007975213612506 5.237566838616769 8.21564260893626 -0.6315259284392671 0.6579239588168219 2.020018051902199
Ni 4.209515544749485 4.059968865599643 7.565879360836521 0.6037341030379796 -0.37959278563624305 -1.4860750015154278
Ni 7.0410011462828725 2.5750141109500677 0.0506548775653828 -0.37878777323644447 -1.868675463629743 0.7672464939037495
Ni 1.1157657281016353 9.112261054755479 8.07290747056497 -1.139197960944651 -0.1450683252279695 1.026865949607438
Ni 4.932801051982275 4.601014888940533 9.608105319646326 -0.30843236344133335 1.1017871243963604 0.9515711935291805
Ni 5.2317278463178045 7.682605536205121 1.7053447891756541 -1.6972803275817865 -1.4208399436660175 -0.5049821443780464
Ni 6.628505489054822 3.4455514160487968 6.722118138330948 0.8924731018154437 1.1283512480381341 1.4099564639842943
Ni 3.197991097547731 1.2310464984035183 1.6308694140254978 2.7957651270777912 -0.3333489241773549 1.5726196194758917
Ni 6.341367721959989 0.2553370049163577 5.114774958886884 -0.49351630983029204 -1.282691999706965 -0.7293551181746148
Ni 1.82195066834792 0.7898435419534799 6.402992687275644 -0.53681677239014 1.0608240517204377 -3.810049126255161
P 5.24745888737682 5.365589752176454 6.1119156824285605 -0.17563771337439427 -0.3299388700545415 0.2149424245112879
Ni 9.213642987604045 1.6086840193555054 9.3619793019477 -0.13288463867758404 -0.812197090472511 0.46839534639294816
P 1.389578378064127 6.5097268755057 3.559098995768119 -0.11009515158689426 -0.9128488372583182 -0.3935361351902126
Ni 5.68186695944472 4.310286743062818 13.328534469672844 -1.1519133516287905 0.17487949505213107 0.5983514985698275
P 1.482955987079724 3.862969963772962 0.7922374362605192 -0.44169418295267804 -0.016089192252378745 -0.4990665502245598
P 6.04914975395845 2.97885769559566 9.15527804920903 0.9261098160332825 0.005050417939713882 -0.952137864665928
P 6.5774813947022315 8.790311419152403 2.7846135766650195 1.182370639677383 0.037339102770090525 0.7634937117295368
Ni 0.36610204107894734 2.7215256245308765 12.66111081459597 0.6533090857526297 1.6497827962214555 0.3664485349448012
Ni 0.1816009886959751 2.448314455550053 7.111250423520292 0.38301440972328227 -0.697959634582469 -0.33003862885719937
Ni 2.2894587015147 3.0526270246088734 5.033973854520292 1.3395732862750414 -2.71671964570785 1.1531477382565238
Ni 1.5091342901126366 8.249080324740229 4.799793249117596 1.8584373308415025 -1.038149492941057 0.3481880460727165
Ni 3.3028801271971 7.211331306737742 5.893133915511927 0.7287023150819644 0.24436690041999204 -0.3108643699215936
Ni 8.41137840070144 8.231535587182647 7.155104864571399 -0.12239993709617632 -0.9916847737206146 1.256739027286629
Ni 5.404926608377553 2.6229012506444205 11.376942441246875 -0.637361818394754 -0.9963356422290647 -1.3161934738985204
Ni 3.9159650650347118 0.22442921065682 5.954093550326321 0.7820149104621759 0.10674037618204842 -0.5895850652311072
Ni 4.300468722731281 4.514484909562389 4.214212648538635 0.6841502395032024 0.1185761924747119 0.812351356662188
Ni 4.8362032063263625 8.701514319151048 12.506999357472946 1.6498370464981587 1.5129877667458718 -0.7758293504767542
Ni 3.4248327096187183 7.386908232063472 11.104974949865069 0.6695494588708921 -1.5893970960445467 1.2825660156520622
Ni 5.117307656497386 1.5906303363518952 7.333378275405714 0.4661368893760746 -0.18840246923923037 2.2067868421927477
Ni 0.10904017377823655 5.976324287408778 9.051250525396481 -0.36030874059565043 0.8277262964563616 0.07294990999516468
Ni 0.2625464484981683 7.028786455578225 11.640200488014125 0.004887924219920614 1.6870985019527784 0.09760550376031578
Ni 7.81359884045889 2.242219310569836 11.371023868387258 0.3249866682555887 -0.6450669003484955 -1.5088341495888145
Ni 7.452081009815611 7.1433732093627995 3.9541498538170785 -1.1273937692208713 0.39415191439734054 -0.4963679203464741
Ni 3.908108798058769 0.792775067722595 10.15878429224747 -0.36801613654223714 0.6482003037711547 0.705481653991127
Ni 3.3973774161939563 4.938380944781443 0.3558518797959649 -1.0790189774619094 1.0684576570062954 0.8141441868965527
Ni 7.231013615168638 6.38095442410732 6.294956524059114 -2.2672255070947793 0.5576941300597815 -0.1924108190676751
Ni 8.32172072021862 4.26680429486499 0.648510316947156 0.7186714132085237 3.6034977540210456 -1.4727600295740766
Ni 6.865822123760401 4.360589060237408 11.410489348982901 0.5922926939702574 0.5729567126458068 -1.1927486404775973
Ni 1.3381748880154063 0.6006000433688929 3.202322685971098 1.7486440267657433 3.2809775450280787 0.17174917695326553
Ni 2.5596439584800548 0.0729244795728087 12.391527038612287 -0.677405207469885 1.1141798416337585 -0.8113499119808671
Ni 2.6653287937359385 8.004777257093735 0.821054852769921 0.4168156745434435 1.71257890561207 1.8408664118372746
Ni 5.725793578213627 6.343634842583199 10.997804919262142 -0.013447897974789744 -1.2018999679595623 0.9613969213703507
P 1.6699888117178407 0.5331360857542751 10.177122059345498 0.8013115539082587 -0.030747308485185754 1.3856608246617232
Ni 9.143399262498763 2.7837280115889325 2.036374936891207 1.7412647035825364 -0.9538250225603638 0.7706889439263953
P 1.3661298733326315 3.2863255198708785 9.188120761518828 0.5672709751149391 0.8464786373632002 1.0387601299418627
Ni 4.373941938030442 2.0967719556489017 13.292577011233364 -0.8567111137244858 0.13784969599234323 0.3173903439655695
P 0.5536863775094863 8.127229531407817 0.2109338281388985 -0.7019019070596686 0.8935038570728032 -0.6784884132317347
P 7.0754706333092425 3.291137367724224 2.3008118863825264 -0.49992504157011325 1.4137161881370426 0.32199776083059384
P 3.8325627867612435 1.9004763238930944 3.6389516108943893 -1.1613032774841228 0.5109075087235458 0.2848221802215611
Ni 5.186811097317538 8.06175138638806 9.830760624084903 -0.014477367680568615 2.1384662034394784 -1.9093783406657436
Ni 1.6820832062261537 5.442098133044649 12.440649527707448 0.6253969327233939 -0.6875638931704416 0.3295431772780195
Ni 1.3637332029595228 6.967093013966197 6.960755255130127 -0.568232310586944 -0.35242291008967047 1.3348041470211722
Ni 3.833062478653706 6.673561041358552 7.989980824944699 0.8780147602982684 -1.7216924378775638 0.6647448383933972
Ni 1.0987576966507713 6.443378896450915 1.3562331977957987 -0.02313838578967628 -2.933163594465329 -0.40080798626127745
Ni 5.904822079018775 1.6231935913440552 2.984894713940896 -0.8229106202352731 0.39227398064833735 0.16532424726352818
Ni 6.261074637684067 5.399661336399566 1.7615499481687995 0.22382635726447903 0.15601119739271843 0.8481814789869199
Ni 8.681785742952332 8.754574195287747 4.964942344931911 -0.5725746467160396 0.722463276150788 1.0362612747794089
Ni 2.6471825751966875 5.502884726407394 9.657823737591018 -0.6073950968293346 -1.9249692531254652 0.2766455579480397
Ni 7.513339534410126 2.445769728319918 4.742382352095045 0.6642969522227011 0.6299716965782699 1.7151173557632073
Ni 5.964905402310646 8.354191439675137 7.382987501418351 -0.3156715615022499 0.08132219321925994 0.40587074549616553
Ni 4.092152724895674 4.761064351385658 11.801273393483442 -0.8832770371384723 0.060880637535456444 -1.6728677030653771
Ni 1.3390632291575626 1.2970706030835581 0.6691466667505136 -0.9658392734124205 -0.25248618709301673 -0.5748333608432293
Ni 4.503824815856516 3.754953233018918 1.7533429715127762 1.1022769195485855 -2.3400856855896146 2.3255352985792657
Ni 8.20252569675911 1.0400624063935193 3.308584942969384 0.1296126527945316 -1.566920255098269 -1.3568840096393469
Ni 1.9440050398587434 7.687500666040544 9.639404539221626 -1.8206508561213484 -0.3155576616322049 -0.8190791623043249
Ni 0.0306542468918806 0.39884851643167685 12.27575675532686 -0.4001857792962463 -0.7900601493641556 -1.1113606270174086
Ni 3.979768316859362 8.504284078485265 3.814055679632991 -1.5400972213681543 1.9740310436491229 -1.9671973085567411
Ni 1.948215406730421 4.152347090830314 7.34843843383133 1.1087671552586194 0.640831007890277 0.19142737210848323
Ni 7.634746157171461 7.355853306302264 1.0344334697604616 0.486612383621607 0.010557720911188269 0.047908650755820716
Ni 6.664566587294222 1.0377952857703086 9.274934824991389 0.3784242192494386 -1.2877357327784595 0.23941109907661345
Ni 8.454555481631651 3.742655260332194 9.402311840512299 -1.040972564212149 0.02500166425066017 -1.1710037926013381
Ni 2.168921912788393 5.286749475810099 5.2120982831422245 -0.17063717483600935 0.8421316732484142 -0.4051930027028505
Ni 2.596639665629431 2.6959025347118115 11.397474225894957 -0.22184763627155343 -0.21101917819748175 -0.6303244519319984
Ni 8.8476279299286 8.581338419013742 9.760998083764957 -0.610986927945651 -0.7880192076747268 0.7677267759742779
P 3.9280409524358966 6.988413201377944 13.157710169457651 0.06757424750554815 -2.526844191467519 0.022634706680380375
Ni 2.3550849033914822 3.9924364316886507 2.958905183400691 -0.814496685139965 -0.0665774308099176 -1.8985557961289432
P 6.782095971112187 0.7344286364347106 12.501771099709215 -0.09992078215705372 -0.8232903721721949 -0.15475495638811412
Ni 7.204122788511288 7.809999208122445 11.928054480154822 0.9040762332720108 1.4002358942624205 0.18907404138495823
P 7.159844534706944 7.319255501956144 9.502032760496105 0.22593723295989476 -0.7562910233335104 -0.8896945106290419
P 0.3322007222414149 1.8069228973597793 4.911553967643686 1.0813219145634732 -1.3302406960202058 0.8141914951947204
P 7.08724115344281 5.880772093305612 13.039001882915615 0.5516841764202757 0.29517138466636905 -0.24760417641036714
Ni 5.791262469679819 0.5214164601653094 0.9088266590363699 -0.03649218138876296 0.3618480600583123 -0.3994450444754798
