# total energy = -340857.43533338886 ev
CRYSTAL
PRIMVEC
9.39541789211960 0.00000000000000 0.00000000000000
0.00000000000000 9.39541789211960 0.00000000000000
0.00000000000000 0.00000000000000 13.75114378851442
PRIMCOORD
 96 1
Ni 3.231037285499705 7.471471307700032 3.6297929200757695 0.6741386209034713 1.391954370979919 -0.2606954623766865
Ni 9.452260315145548 9.718056691384767 9.009336820382117 -0.8082828430197693 0.5191592072093769 -0.9277949170451893
Ni 7.457378180645991 3.5156620794831244 7.1803796474824155 0.6342466698045399 -0.08766407627688773 2.7530971558956194
Ni 1.0565053627332652 5.825638348656938 7.629052198542091 -0.9597128487997085 -0.08694571005362445 -1.7017170231969014
Ni 7.417626166935559 4.638931282780402 13.563908523700634 -0.16652623799142935 0.7591436622909571 -0.5386908494844013
Ni 0.24214998812614602 2.0461341398860866 2.9349341093016705 -0.3568773463165983 -0.09016318854965762 0.5812819446820505
Ni 5.250572996925797 7.312998791686355 1.835269014736305 -1.0112197584297489 -0.8552784950430175 1.0281494443055519
Ni 0.6994719610297886 2.2093231557538493 0.3388833331414788 0.2663387767053929 -0.8602888037734153 -0.4219581379763313
Ni 4.0810689414732275 2.066052426122465 5.32984683660478 -0.0033090097685749466 1.2660731602033615 -1.2012517928526023
Ni 1.9928151425316298 3.905205506674864 3.8568792344647522 0.29558533227533607 1.4227392175712594 -0.011408498947257772
Ni 7.9001560464298635 5.590311313108554 11.164416469646765 -0.139076883531225 0.741244413413033 -0.01940720088201819
Ni 6.300285472419015 5.832525190077345 6.263508987600591 -1.4955083790141857 0.30757567186799284 -0.1670422583958994
Ni 1.992495698318405 6.6464220682843065 5.322243124788223 -1.953718557344016 -0.29127462071512417 0.09122865369969449
Ni 1.047194503459562 8.95105234459562 4.343945221786851 -0.2683393520751895 -1.6474657180525047 2.164749048395407
Ni 4.418035609335357 3.3822095616993884 3.0662021923920295 -1.97602827658481 0.015941610930920933 -1.4682989084789293
Ni 5.258361798477663 1.6783129191936428 10.990807935177047 0.7316595979380754 -0.07805637798379461 -0.8365652349042302
Ni 1.8744516661137545 9.519437554103146 13.385528995952221 -0.5399460620477411 -0.1700249951733072 1.7768963367432173
Ni 8.833205616169726 7.983343077720851 2.74886725051618 -0.26544737523937506 1.0959306656155834 0.2329126358364634
Ni 1.7055502360800867 2.0973015865102926 5.078888644069858 -0.9059233137830784 -1.3760562116924238 0.9240889289485118
Ni 7.191112033504969 2.707646732966716 1.022859431204447 0.9744005327188702 -0.6496835731849004 0.11506406555639538
Ni 3.2816973795499655 7.37618297797864 8.365178503955834 0.636856082402929 0.3760672889814878 -0.6534396977932231
Ni 1.2419333330923057 6.883421488243102 9.4348797313207 -1.4903556311686526 0.752361092151485 1.996008062140846
Ni 2.114814645729448 5.803455766673876 13.457612522208233 -0.2892174810757793 -0.757659878656579 1.3881362827854093
Ni 8.082530505927194 6.911513788170825 7.075898840754574 1.3159538470838883 0.6766544453467895 0.45187138059599596
P 7.645568403907624 0.8628582806763081 10.14771197679772 -0.6165070864329318 -3.049350717882574 1.0889141250884342
P 3.2402635860110838 2.0075565534301574 1.6576044783004342 -0.0012660111966171744 0.2853513132521537 -1.1318425490208441
P 4.27377836081019 5.336935679512963 0.5133731578229759 0.3188687282833089 -0.6521518322197348 0.9653623337760019
P 6.024370230954992 8.067629372922054 3.711076439672658 0.2090895652749367 0.1200250091060965 -0.3043599931441726
P 9.123430079302619 1.044770485606267 5.13672589795784 0.9805207866839952 2.2645366474087063 -0.14129857377289215
P 9.09880468863019 0.456403101019719 1.4560398774645167 -0.24211769937449917 0.8365302679012366 -0.42192857028997655
P 9.110755660372016 6.729458772886718 4.639443333063364 1.1467577755697798 0.18163198328461624 1.1170257957229859
P 3.2936671421278647 -0.013761468797369596 4.933745407623894 -0.8319621889145801 -0.41624257564879286 0.08098435026386698
Ni 1.422231405203675 7.544952872159804 12.290703481217214 -1.2851882837662576 0.5890754725845404 -1.883355948460053
Ni 5.345184856548595 0.9234371175472031 1.1415019515379925 1.7453195903782006 0.6379747693884045 -0.7855136676440536
Ni 8.349942894068612 7.782807275159879 9.924668510789639 -0.5691391386719296 -0.19518041139301226 0.4178860247894867
Ni 2.9210072811468666 5.611761052484805 2.1616940235620112 2.073123159257294 -0.14379228672902333 -0.34310188979906076
Ni 0.4183469602647893 4.489064969687726 9.809255195635076 -0.6548358068098012 0.6001083333599342 0.12631392743860181
Ni 3.374655645598422 2.8500812703928946 7.561726511979525 1.001412285421024 0.35944742103661964 -0.5215382489645147
Ni 6.324535046370002 9.031937498467782 12.058378281731342 0.6892793331996517 -0.47089728687919546 -0.0018419383047452147
Ni 8.760034100505143 4.421803171967804 3.4038340558511098 -0.24968162776468614 -0.9076886332136175 -0.08758565763046851
Ni 1.6618709376305945 2.6798269001620385 9.020433748624468 -0.09017552984483179 -1.8662869087929082 2.213678427106258
Ni 0.8479703012564188 6.150428554744375 2.698373455365157 -1.339436503586861 -1.6070124951334648 1.5034901116680817
Ni 0.23054664685165197 0.07813605455481977 11.2424266255999 -0.14032309723350028 -0.021182290504569972 1.0304642084816575
Ni 8.46120343445125 1.099602145264524 12.950126533326632 -0.34980347018895236 -2.463452100364119 1.8480233345970303
Ni 4.3167999799971595 0.5591250854912156 6.842871803541411 -0.25367300831226636 -0.8891797757761525 2.0352718927374758
Ni 4.12730379362852 6.513486298492553 12.496462196664414 -0.4723144789416962 -0.9161691598808028 -0.6845541598098405
Ni 7.4910889405592584 6.444768210977046 1.5497262884107657 -0.20752710588382325 -0.9701579553924323 1.25679739132839
Ni 3.4286699038875446 8.567146168225497 11.909178103777421 1.2414183377691588 1.5832200206995573 -0.7474070905803192
Ni 2.0639290616463226 9.016557199142804 9.779689694159305 2.143724880735256 0.6889970260725424 0.12807333333186977
Ni 4.435708390661125 0.19145231240374122 2.961446099915733 0.5291181181943017 -0.3597988908387674 2.196540996095024
Ni 2.9786857524700396 3.662409113787839 13.325642601390582 -1.557879999272872 -1.2307469740982417 1.4770982519381142
Ni 3.956156858684241 3.6884532125837075 11.352999421382304 0.8354216082180902 0.657384541373584 -1.265466379857298
Ni 2.360204173994416 1.5341590202668713 11.575657675250905 -0.9961916604520328 0.8735268997302439 -0.3663575178928916
Ni 5.674466072457253 4.7648956523894235 8.185643339788989 -0.9745506851434892 0.31285208977558376 1.0433896582940738
Ni 5.303093383747191 8.218050015678855 5.7578654401958556 -1.1726953213711482 -2.0010587371908763 -1.686090372403238
Ni 7.244017632465841 8.505794088450237 1.0578188421747021 0.13765069260765972 3.3865161875925422 -1.0840583396580297
P 0.9122650259605627 8.213267747898518 7.663677132630263 -0.05473647231093154 -1.0915726457572041 -0.10568545255497283
P 5.971652540354842 5.054593972112298 11.945426566102219 -1.799128151558224 -0.06009902217442553 -0.6827942396959402
P 1.8796943093778578 7.679523444689828 1.8613140530739771 0.9165566251272086 1.845551990238402 -0.9091639322075632
P 5.453673748610606 7.460046479368223 7.987434782275541 -0.2661814251919222 -1.3039285404882381 0.22345071909261516
P 4.605286290793387 4.173059479463975 5.652738228707136 -0.15655987080733683 0.7796104147857412 1.0099953991043444
P 8.828968282635477 4.9551058905288015 1.2994032261350792 2.326311514623658 -1.6190995082049857 -0.28151368467361837
P 0.9526014346728363 3.7183212465202393 7.394609271830898 0.6155398374236561 -0.5741548467189661 -0.09227869223076367
P 8.497591888504784 7.717640655661991 12.341967700647192 -0.6411577951020764 0.016568960102274693 -0.8534316716422657
Ni 4.716105246528333 5.478270953028925 3.9121318088510235 -0.6331938030599934 1.3594106327159428 1.2310277385634543
Ni 0.26117289102369107 4.575474629365071 5.666970407948111 -0.6930681108181226 0.5273656542795692 -1.1792333795999819
Ni 7.495936976265848 2.7928537791354504 9.640445840698161 -0.6845783281795566 1.2677703454001263 -1.8623654622513153
Ni 0.2479619937232327 4.612454994754875 12.5236064989123 0.7965244169322604 -1.0860663712269942 0.09542880782397113
Ni 6.256747105240063 4.7442727098003425 2.358142819277312 -0.051226659385460165 -1.4218953815137254 -0.9515917623544708
Ni 4.92897723297061 6.442062330582671 10.317249476632426 0.8064812710346563 -0.315319834589786 -0.8838593920045036
Ni 5.289742494717996 3.4323247215035595 13.502138347822772 -0.0035090415945229886 1.1343863984886204 0.2100131055304706
Ni 6.221664614293536 6.820566141582078 13.406554062433244 0.5248603713592122 0.43618353754709394 -1.152490307178183
Ni 6.975750261283145 3.851163062131633 5.15032576556499 -0.8043757946558792 1.026778532099954 -3.184313579245426
Ni 7.672890279556392 2.856404386731141 11.974124870493265 0.650326606085538 2.9057031842615313 -1.5737035965686896
Ni 6.596137790955487 9.11595132654594 7.282578307169306 2.4015731034711347 -0.051337216821395464 1.419563390946439
Ni 3.1383890682464366 5.3955818788938466 6.831182963962789 1.9043618612877589 -1.1228030645263956 0.06621696214670532
Ni 7.145581837702379 1.1737413889868176 2.739640010462997 0.180021958485019 -1.2980759383622031 1.3330974487427105
Ni 0.12840811784019254 7.20747885172373 0.4803304121320704 0.005621974172467737 -0.06018258302716732 -0.01237651928748191
Ni 3.2151308427647103 5.07230433511021 9.368214542646067 -0.6722781706559647 -0.7742252392144279 -0.758971398379151
Ni 7.8679297625662885 8.924209635266688 4.768470608952132 -1.3057303695836675 -2.6994148358808157 0.06377749946727726
Ni 7.128811016508071 6.103808490449605 4.072057796034874 0.17984969457321284 1.2321484824314586 0.031554377767513395
Ni 1.9249426426393668 0.7137962153675161 7.284696034394625 1.0928188594594794 -0.5984548569169112 -0.04362673555101519
Ni 2.1374576031962746 0.46528646877278307 2.741675997551405 0.25940348303814037 0.5927894311010178 -1.9518501366767096
Ni 4.013346768269541 1.3585680525915522 13.152350692508678 -0.9751081003088561 0.03667832925764006 -0.31981232314350083
Ni 4.94960017555969 8.829165586414234 9.879687946942157 -0.2523805147530879 0.3792860530291016 -0.9631480997335026
Ni 9.286750631022885 1.6685980569443901 7.21092133289213 -1.4817900009868288 1.9170703099933628 -0.9240758163223892
Ni 1.3904185197336856 3.8431769568010097 1.6529565649980116 0.06939021766836437 1.2250175278136324 -0.12719298760944545
Ni 7.045689753143335 1.612977182171107 5.794071623139492 -0.2929460948802761 -0.6905103773932754 -0.006854561027988194
P 5.77222539712212 2.2746119156862052 4.059365525810004 2.423430565665859 -1.1781162352764034 -0.31775415506289145
P 7.683197053141915 4.938908189834691 9.078271942054254 0.07446763219127175 0.8930192041269007 -0.7031018409050407
P 3.454169068437324 1.3783266167213182 9.763628227026716 0.6130808343602022 -0.04881984971618043 -0.93723806473596
P 0.4947307693558899 2.5525941491181534 11.062575775387048 -0.6364452201177555 0.7677134062378391 0.8275465763453876
P 4.568766300887347 8.451798620997186 0.164738320301904 -0.028354382772976975 0.46518789519924403 -1.5859564457941135
P 5.923961398403965 1.6298231667097045 7.879309492891525 0.6678404465995853 2.086891673796296 0.18850839868947536
P 6.277642514952188 1.6451470935264654 12.906933917531406 -0.21567853134636403 -1.4945460151009164 1.4247457064783269
P 2.3048087892539977 6.074701485373993 11.002070222776833 1.1938382739973505 -0.9976219651406562 1.871230368841113
