# total energy = -340863.8084099695 ev
CRYSTAL
PRIMVEC
9.35107534042802 0.00000000000000 0.00000000000000

0.00000000000000 9.35107534042802 0.00000000000000

0.00000000000000 0.00000000000000 13.68624398189744

PRIMCOORD
 96 1
Ni 3.568258046280077 4.20381321670858 13.148880535254433 1.0719394449073087 0.34619389846082316 -0.5864213227911449
Ni 1.6701487687135161 3.117124779026557 7.2930025939734024 -1.9882176195621502 0.6761813623651128 1.5449383515105395
Ni 3.1141791903692146 6.834878462973122 12.922688314703302 -0.13731850607922158 0.0647383207186498 -0.16142696909165102
Ni 7.623763211860209 9.28487884202454 4.895282205606026 -0.4146443779237375 -0.6324368702893108 -0.8098345037776052
Ni 0.4661183651055585 8.963641359022297 5.5348125180606775 1.4805733549709081 -0.03228122863120893 -1.9686019022137515
Ni 6.856226967432532 5.56200076892171 1.8329846501214815 -1.137298944149725 1.1602380694444017 0.9836799011382671
Ni 6.712716017831758 5.183843291769477 6.114822302379284 0.75320287132649 -0.5878372293020651 0.1823071549747699
Ni 5.048804416211726 0.07055853718724467 8.822932926629797 -0.8320843163147411 3.276356758426615 3.1155733364562344
Ni 1.3195769631141783 7.1632321141285 6.721848277777031 -0.3998371377075759 0.4612427945085669 -0.7348647351389345
Ni 4.458340129928329 2.1016915336269286 5.13969125556468 -1.0277763772368493 1.2045600312902287 0.4220447841528667
Ni 3.076297985128272 2.1606126578488927 0.5391184680021119 -0.7906566452975738 0.5562944214987774 -0.243301178159639
Ni 1.976209456824114 7.7369299227527994 1.4457603705496933 1.2911051634713249 1.3046188816870434 0.22666536937517093
Ni 5.547300878860303 7.207696476241726 5.9885528650528235 -1.083798915349056 -1.3698961056282988 -0.9746296180105408
Ni 9.102196238818653 2.009695656766798 8.64119291179426 -0.3999381820618145 1.0152435348771611 -0.38639052528436685
Ni 0.4732466896563287 5.45362180848169 1.9043314829398819 -0.19360252538293107 -0.8399521490985921 0.5024933165179216
Ni 4.360032277373892 8.206194924630408 3.2422711522331857 0.5953787890947488 -0.8147427397125 0.16473777863243885
Ni 3.2203699992352073 1.393843201579634 7.01596577276649 1.2104308882487087 -2.398461811535663 1.0748761589381295
Ni 1.393123168796728 3.5757669595875257 3.844246611967978 -1.106696645882836 2.674563324054774 -0.7368766233626406
Ni 6.7141934876979805 4.899018895217056 13.139176924620385 -3.835879971275336 -0.12881586792484911 -0.257273324069015
Ni 3.819007125158344 8.672439529249854 10.716177774927944 -1.3388366652193329 1.3483024386179232 0.43232354037105547
Ni 0.784196119830606 0.5192296663662296 13.448007401176397 -1.3696878462722346 2.632844089939117 0.9954277857028145
Ni 3.172071696329884 1.340906765423383 12.065778234874287 -0.01869886196108393 0.9364178828275098 -2.606983934342904
Ni 7.952659225371544 2.9407635025900807 0.2846317644053049 0.589576580590675 -0.6512126082349171 0.9255248900640899
Ni 1.179236027973211 3.6210635673848905 0.17331189084549387 -0.9705937573782705 -0.3448368702122965 -0.09949449325291253
P 6.220952329257109 8.803812783367354 2.0345835431525714 0.05038976530646161 0.42260631308329155 -0.20878797487411785
P 2.4405090378222023 5.250638021227894 0.9086383570820029 0.06363428902119364 0.8109002260379583 -0.8001766689728671
P 8.258738615632348 7.140219118300814 5.518348080127396 -0.02817877642706115 -0.24856576899268804 -0.08493767848466018
P 2.3603422709669575 7.110005794644066 10.12300261197228 0.424278815689708 -0.5060740918906446 -0.15756671480529638
P 6.384165994099223 3.0412501556434415 5.401728017199387 0.23270283381850246 0.5415419457799512 -0.3856832148046971
P 3.151994938084438 2.2713387381396837 3.239616382011536 0.8123858094445492 -0.1676366974467887 -0.3973344258903802
P 0.9830130680186497 0.9879691378230682 7.348568552448526 2.4844356445943214 0.4560319397315888 -1.633024345816194
P 8.95962974780325 4.378201416298392 8.238571151958405 1.9173256205372786 0.8170117382523348 1.0031416094073047
Ni 0.12648077162378027 5.0191428059860375 5.985172451403205 0.8312379091540458 -0.6290188457466973 0.5156527367180151
Ni 2.264877145243734 9.262062218774009 8.877978965329211 1.4307973119890456 0.6485756848327024 -0.6311029819692356
Ni 3.8496505982698146 0.4208311083832968 1.618096944261978 1.1566778628969692 -0.7956373863416168 0.37686175985832515
Ni 4.840499867224508 3.1962535765454048 7.5054945543916 0.4240471592948762 0.5342335850439961 -0.4232552595212001
Ni 2.119308959120371 5.150665677305181 11.113763980821007 2.019320511614542 0.7386265161742118 0.5003387320687641
Ni 6.42842463256019 8.17863730630282 7.683594195689664 2.4489279386060145 -0.7662885008658545 0.9003499334603591
Ni 4.932981999989977 7.058415913302601 9.753528543160394 0.4626820980582548 -2.875460840437222 -2.0623242688695775
Ni 5.591568868396372 1.5066732737685273 11.010829216305767 -0.3501847647877711 -0.19540178337519895 0.25828993825898744
Ni 7.056255814953882 6.350034569974453 11.178403287468258 0.6204431882625444 -0.8657837654497155 -0.002029885945835214
Ni 5.579272204636353 3.9377564278872312 11.095382572491678 -0.33987181289753726 0.7380665299056837 0.046741627030913044
Ni 0.4109694645800142 6.4204668676478125 11.341612276772821 -1.829587496489346 1.5020168695566647 0.3063276583935047
Ni 0.9737555036670001 3.405829871746588 10.343241938113048 -0.744195525621557 -0.8973818519709706 -0.7412179310504718
Ni 4.365549411684471 3.5807136783168416 1.7939654190405439 -0.34622680858128757 0.9886081916778198 0.6286925727555301
Ni 7.28754530654348 0.4037111600853168 9.36939666412506 0.8159439591094528 0.11195277362092333 0.5601251080987772
Ni 1.3054381375589317 1.810265278052019 2.1976139269226724 -2.3489217958240065 0.5069225559338689 -1.3928858816552527
Ni 0.405839464778686 0.8664210583159498 10.422280030203398 -0.9598180069190051 0.34101801068683846 1.4791420218410205
Ni 6.448136698876631 3.74471283346758 3.1723886977758644 0.9924152241287361 1.4665055640239324 0.22276192055570668
Ni 7.1372548274932655 7.984593146847184 13.647703350424091 -0.9331937194632575 -0.8183088597972036 -0.17094982098042172
Ni 7.7713231769804425 2.6800461776523603 10.445765255323769 -0.7614460851718886 -0.5011548002121563 -0.48052092601188856
Ni 1.689711217828315 8.743058848425266 11.529181751827366 -0.523746312359427 -1.6055749913559896 0.6871584302019068
Ni 4.668271765983413 9.160808777562229 5.316599569894662 -0.4219517102184281 0.797839021978626 -0.04049410345930445
Ni 7.020936804291074 5.043090909323991 9.03705384433088 -0.7995243801008489 -0.18925761815067405 0.03963664055501561
Ni 2.0911996273617257 2.0392263519410503 5.206972240928436 1.5893832120874756 -1.0264681999483871 0.14695988582372754
Ni 8.171829723628072 0.4157366426673586 1.2232618246641216 -0.3710220132480965 1.2888953003041996 0.46585123981485577
P 7.634451490702569 7.574875791223418 9.506697564750146 -0.02821862852606108 -0.21745104986575453 -0.042088187419301704
P 2.671770476186492 7.639622635234349 4.429278858724231 -0.8448665556810739 0.05662134803847023 1.5615841875973362
P 9.389320999846332 0.05536397525290581 3.1104453060807153 -0.049959619747578475 0.230000604395991 0.6150726679792504
P 2.3791285808482345 4.430988235253 5.9030269970562355 -1.4030021441536484 0.5778657199116499 -0.8143907556897201
P 5.2296916129978985 5.8052315834174255 7.679392757646032 1.5147240327106881 -1.1976759025758859 1.1628371976301457
P 8.323859502647386 5.659102332787901 0.3754783941353163 2.0684581496814567 0.47868078747935633 -0.7394143021828298
P 4.1602559088803135 8.545900780960435 7.337318273992496 -2.1589414405746945 -1.1383199292150719 -2.3523729875974
P 0.07558754537746404 2.4682630287269456 12.209826871293465 0.8066183108331527 -1.6619551699179314 -0.27483935797723635
Ni 0.5032720567035123 7.931591253165213 9.243592910338714 -0.2651244446823176 -1.4782683609868155 1.8120335467659825
Ni 4.294986198959675 4.886273379852108 5.41648120838888 1.9932258714100188 -0.030826241352237233 -1.2273181509223507
Ni 9.306414367986005 1.8791920526338466 5.125005392115926 -2.4107655686036806 0.49078219872858064 -0.37738420802069844
Ni 3.790561154696003 4.685917244702164 9.190860327619701 0.6533106284145265 0.33721817732477405 0.35647136912743127
Ni 0.32902038281019946 7.2913885984106805 0.06622244366213363 -0.5217282534881338 -0.3733056670759507 -1.9054622934407897
Ni 8.573533207888845 6.59131100977371 7.723817845243826 -0.8045817400190983 -0.8888625016460497 -0.464390081888297
Ni 8.522410880302514 7.614973201263694 2.057959360694242 -1.9927556166418197 -0.5447663662545199 -0.09767209533219308
Ni 3.3058107724483614 6.272373891246726 7.136937826047284 0.4235272822356641 0.8022597767541408 -0.4246469976624041
Ni 5.951248621145717 8.451389464897685 11.223103296674072 2.447917237953313 0.6752264546510114 0.34922034399197277
Ni 6.553364347007049 7.290285171548564 3.898978454543943 0.2405084459058503 -0.5137568052468829 -1.284633182593736
Ni 3.0452898200877976 2.367954046100536 9.142410537297714 0.09551699666240324 -0.1136854400413139 1.4069338751078866
Ni 7.866573227976304 3.127382908414193 7.027311432188569 -0.8878078351292904 -0.303477076318587 -1.5511064279944642
Ni 2.3117166804330402 0.13728032825986122 3.310962279722426 -0.5826317738417256 -0.8521422634068808 1.9611822127109124
Ni 5.883275656224362 1.9032149645726222 1.354704276737382 0.5483435420828169 -0.8929009333814816 -1.3309678039942174
Ni 4.783645330600235 -0.03290830350133874 13.079190712944225 0.9797669392371061 -0.30072085372968854 0.41042802584954474
Ni 8.875788008432654 8.98639252474711 7.586298129461337 -2.592806871511573 -0.15934720374448685 -0.24036523545976665
Ni 8.21765934270629 5.398618784727748 4.005142145292138 0.07920591820720553 -0.209758052096871 -0.7400822747841319
Ni 4.69669903429555 7.299561438050419 1.070204362491025 0.8224982152882029 -0.2424740542726534 -0.2160775665569956
Ni 8.420717938560907 4.217175903030305 11.927055035726081 1.1472005195341533 2.6014087542479714 -0.5155115831544604
Ni 0.5677795131918151 7.1479711595609325 3.7070971987595542 1.484417925527979 0.3958907514653182 1.678622089050651
Ni 1.6504741066974848 5.52839300500269 8.528048643481917 -1.7519399239081956 -0.5473896628099798 0.9506551094728145
Ni 6.535457038185424 1.0452631749771666 6.5946895532083065 -0.642504538937958 1.0412037063863486 0.6933858991688574
Ni 2.76791823039221 6.0931418347537285 2.8114559009627613 1.2329635221335864 -1.05212318151233 1.3815624862226337
Ni 5.9955727171324025 1.7086284427610292 3.6381592028876035 0.7876314853180049 -3.580925782257801 0.2435158652736064
P 3.253267081446423 3.3542960968557387 11.19052976166141 0.636158285004956 -0.36039770076503097 -1.6211170528556467
P 6.4759000408564775 2.3235364393628233 8.61502486322693 -0.1051843445488382 -0.46660071638637063 0.8503838859548775
P 8.812406421386713 3.2877257931997854 2.5844146027923096 0.07193766668056643 0.8685793259169815 0.15453384151624355
P 5.935174123044216 2.658865992544798 12.952003935150195 0.030202491725309272 -0.08785510924177128 -0.16829104320133598
P 4.844474074143145 5.366376277773719 3.050759263915353 0.9244421985228725 0.6333352137338641 0.5924287053274894
P 8.760096507262341 8.729845779305183 12.373445437687524 -0.4932633132792215 -0.49208523381072033 -1.1137244992638948
P 5.433423486259909 6.756927900917211 12.59725687451751 -1.0161724744493337 0.2914106320723562 0.4937651926163045
P 2.689079316201546 9.251747982935758 13.504284976466835 1.5978794224839448 -2.254073028873221 1.2970066165574243
