# total energy = -340870.32248600916 ev
CRYSTAL
PRIMVEC
9.24112321839224 0.00000000000000 0.00000000000000
0.00000000000000 9.24112321839224 0.00000000000000
0.00000000000000 0.00000000000000 13.52531793717031
PRIMCOORD
 96 1
Ni 2.981010760237873 4.158616329654151 9.74465351196045 1.6409880807479609 0.6811093957943496 1.1447165767700351
Ni 5.122299138310351 4.6841774878012465 7.217298730316597 0.41365090366221663 1.1416587637803177 -1.0968503492163755
Ni 0.17213532580042495 2.9082646384743702 11.791993859331164 -1.433033400408416 0.6575771170003643 0.6787295827082632
Ni 8.589356013928459 7.171139319975045 2.1755341323955464 0.9669535895225218 0.048147249129188045 0.7395413146789973
Ni 8.221041808007959 6.904495951407449 9.281411716279885 -0.3769363218500024 0.853202329240279 1.0728226188432104
Ni 4.771848023519025 4.599233083424961 13.063333989503484 -0.1073103897529055 0.18026081396870244 -0.39782987746956
Ni 2.9706791845097738 1.7549170174357842 9.439738955807568 -0.9341113461815203 -1.2532004180057512 -0.4478609738850223
Ni 4.836036865207197 3.0574902957707426 5.537116524355127 -0.12481111764083021 -1.0145938171083042 -0.1601748418521048
Ni 2.019093006111249 2.838355541530658 2.5769112288706015 0.28037288620095585 1.2760022463916154 -0.3845809828794538
Ni 3.7219640177324944 5.051558340279405 2.4348409732614087 -0.6251701614245685 -0.7419195851031867 0.8818577881934425
Ni 6.4992080115977515 3.4201581754212342 11.998945116755571 2.707823885880117 2.4481401525973965 -1.9696779088867495
Ni 6.365701504850123 6.352486698686275 3.6671465990728245 -1.498010576610749 0.8175483274820952 -1.0917027435771651
Ni 6.261600252097854 2.021301634554018 0.041004711825332205 -0.6054243462562089 -2.7984928104215996 2.100605166727647
Ni 4.143608745591152 2.2685478855426515 3.2584653188272066 0.9611688645199447 -0.05742327511447529 -0.8701412710874628
Ni 0.4707049267700214 7.955960189259726 5.793732350147624 -1.081109541442351 0.00637427895745999 -0.5072210610108941
Ni 6.183697583593493 6.519030220843522 11.921174596312849 -1.3050469703633976 0.42749963661985085 -0.8171966005696314
Ni 0.019478439463047694 1.0068943006996636 6.629190878072459 -0.27490312133563627 -0.5735843189274767 -0.9517951366145285
Ni 6.819006320762866 2.1187954842243633 3.4413009411710718 -2.201878606257853 -0.5625342317609021 -0.0045696216485534204
Ni 1.5743085057810715 8.037873505229198 0.15749831077740511 1.211622851674281 0.7241512053761722 -0.2235831309054214
Ni 8.116099613045263 0.2072118570984087 8.91016807430768 -0.09589032084142195 -0.45744193270523803 -1.3475362498758598
Ni 7.7078360315679015 4.3396776563452475 3.187173749854046 -0.7279309841335785 -0.5805728344301679 -1.068832780957527
Ni 4.300827974448174 5.561788475051799 4.892445605280444 0.66911725642948 -0.05027380855388761 0.40679531419296394
Ni 8.436877481268677 2.3174796328416534 9.826467947911775 -1.4352576617532442 -0.505651145420613 -0.4579065310464823
Ni 4.524130475247625 8.441553489603576 11.337259441660695 0.26820179805606065 0.37689441286847347 0.4797452241881286
P 4.741657274052389 4.973433884818448 10.935517320819576 -0.4725769885744635 -0.27958767129549916 -0.17397189563619717
P 1.5858137041544913 0.9501907687966078 3.3071429352384425 0.5888582143674117 -0.05303003114278609 0.551834585955211
P 0.6188946541566266 4.240834602688944 3.744132548156589 0.48029364049243095 0.13521302970044455 0.19108695804992895
P 5.315068968085082 0.42089250043086873 2.420247391517389 -0.013589308648660467 0.13246452042102994 0.9466724706759825
P 2.9626116839635923 8.19545313789069 9.913854781147572 -0.4816568393885446 -0.1618709986076051 -1.0021594479996936
P 6.053711944781828 0.9663904577513107 11.68365647570791 0.753332969146451 -0.9356678920353627 -0.07947794092166957
P 1.2907816051426018 4.578948818019615 11.116891921586866 -0.5716711610651639 0.017282441229531525 1.2840402862047435
P 6.713786892104426 3.49162902218431 9.02850158088718 0.7170241074130878 -1.758744605534855 -0.7374741477373234
Ni 2.5732646816592344 0.2229291594225151 7.223696359902074 -1.8800646793032911 -0.8529567888883762 1.0144544633169625
Ni 0.8894442454972702 3.672459320795619 9.041580542540114 0.5721398731714663 -1.3135853468517118 -0.021819152757620485
Ni 8.385432148461586 8.418921978907589 13.379000592489678 -0.06691038866930411 -0.544208693978837 0.15578416898357686
Ni 0.5727657395216067 0.5506646692968107 1.45015771215252 0.16448478208136832 -1.5559300746353526 -0.4022488324728621
Ni 1.0316050641137395 7.721226419072386 10.934624628319277 -0.1173772870706043 -0.059167254388775514 1.4569785983701038
Ni 5.950460875363177 3.852642740783523 1.4205510016715863 -1.0356447242413325 0.8372231802032034 1.420974669471669
Ni 3.947780104040035 6.160798080324952 8.640148923438229 -1.2441642759454121 1.0029521191043178 0.887681079743439
Ni 6.530923546390985 1.730843891521922 7.092541719006683 0.09419056454149585 1.1834091082442264 -0.28140826944400565
Ni 8.349539625985793 5.947614609420195 4.514115870044995 2.448554871537312 1.5785544969030878 1.719533482553032
Ni 2.601792028951401 4.880274121924917 0.22523204732183738 -1.6813723981022788 -0.5755679250164087 2.0631768466778593
Ni 4.518336291006554 3.010120298291104 8.530134275955719 2.101019114336614 -1.0336752592197875 -0.7950871702651017
Ni 1.9398780981136947 6.1017103386384886 4.639251767405761 -0.5251236523229279 -0.5022323495470512 -0.4908323352402257
Ni 1.382629128542939 0.8320892144092136 10.815357768297433 0.20587800031617448 0.01802651848440766 -0.8336184935710805
Ni 0.4311399819379252 4.585094164941963 5.898066479204319 0.37193629753224977 0.10612176876144305 0.9285852741569685
Ni 6.904144788726172 4.161203844147772 5.700596614174391 0.7964161734891703 -1.263776650859701 -1.67435714312671
Ni 1.272853826151088 5.859897868086458 9.47806928658128 0.880306898766555 1.642596048665029 -0.512253481228479
Ni 8.15840547501596 4.770711365366471 10.349505355315271 1.198444148200478 -0.7587135167320739 1.0495520783510441
Ni 4.059523765671676 1.1006270132310672 12.900880588470795 -0.9135345504714332 0.39231717518144693 0.4077224539929236
Ni 6.193345316205421 5.497303917421498 9.374018860006563 -0.6066736452822779 0.969475070392795 0.25974055466258494
Ni 8.702707630995421 3.1324358048538232 7.497583844939489 -2.0943584144869867 0.044499110853639494 -0.9859764104819277
Ni 4.20131031879889 7.739634736469858 3.5521546826393706 -0.11921434027934306 0.3071226434909743 -1.2616683462674465
Ni 5.091812672901587 7.67201743807764 5.698960011257176 -0.539506146296845 -0.7264397443000328 0.39368268807040585
Ni 2.593243989999262 2.993135113865123 11.937553563057469 0.41379771365272605 -0.2107947208915015 0.27645529631410454
Ni 7.374591888159151 0.2457639748287163 1.758561716422513 0.30297751097434916 0.5434599887382705 1.124822408949269
P 2.922939542102475 4.712307466796179 6.687417347077474 0.4458184895336967 0.7459505606394509 0.3590419580680848
P 3.5460962022750224 2.9998441693021536 0.6564284001112307 0.25427464645200726 -0.794581948493909 0.38760999951376474
P 1.6161245882226176 6.343513568067327 1.6181012644732797 0.521604840536392 0.7402594237919444 0.3155669176035856
P 0.8544675183297546 1.0973741378676585 8.580840318907489 0.5566590039270478 2.6974733958837285 0.3783038916214904
P 7.809710173631017 3.3954012063912007 0.4919955504909226 2.1695384993642506 -0.009100676749687552 0.32463571267407315
P 2.7595564840767217 7.981900022058272 5.228211651208155 0.48943236956890546 1.0520141667382914 -0.06925677741429363
P 8.261767437912907 6.930343372974081 11.554787164577776 -0.06957610842692534 0.37836919764178706 -0.6556099659716645
P 0.1983708745410988 6.3754416486939665 7.716558727748359 -0.05709905900583715 -1.0502316209165719 -2.652402985907651
Ni 7.423523635458153 5.838033370615364 7.072713040974677 2.0511214581752224 0.10067051583888469 0.08551540536500112
Ni 3.3271555116219598 0.09417721055691496 1.5935263455701187 0.31067899338366495 0.11709909370855318 -0.31415795307120087
Ni 5.1466402567967675 0.5469026080455502 4.746033869995883 0.6804918168150087 0.4992562976378627 0.14474668022249265
Ni 2.7940258735810235 1.2479489991499904 5.23922152537851 0.06413745390985727 -0.576895899799213 -2.3741756852947886
Ni 8.770823950039981 0.4927865906361152 4.038524237331307 0.32155758796938166 0.46365526060480144 -0.24724936417410967
Ni 1.9451917439488084 2.739253736424992 6.739057667583905 -0.37415670222233627 0.4882743447050623 1.796196836844042
Ni 1.2221939888152749 2.543295719149194 0.4006498200798838 0.402954600290635 0.9687189089530608 -0.059441591096084725
Ni 5.953399552538075 1.0632559110446336 9.445662515773323 0.5693543400065291 1.6448439641589414 0.7124704266041343
Ni 8.872291482682671 2.3436966993359447 2.507648086437975 0.6189115821093664 1.0648306017766693 -0.6789915781203983
Ni 4.827054493465057 6.568830633722526 1.1456183456012135 0.7174488536553321 -0.11614701420792901 0.3318844238166865
Ni 0.4130412421673687 4.625838277093295 1.5970019320024424 -1.209549256974704 -0.496013622330849 -0.5831976736475246
Ni 4.720966399226616 2.515655519683412 11.013328502204342 -1.3722476365796108 0.5963578651785666 -1.0692081620190745
Ni 2.750472459979475 3.7775770970989533 4.702915713296655 -1.3697492956377895 -0.20240623971749014 -0.754704652682997
Ni 1.7712091176224023 8.067805503246474 3.0340529591324557 -0.7519769693391887 -0.6686377456899001 0.2859868899536236
Ni 7.64100422864696 5.459406071213149 13.272367271982938 -0.5923307462970443 -1.9523862116858377 0.6693656249948602
Ni 5.791901683643387 8.852977535212434 0.1912709195930679 -0.7764680125020176 -1.3385415025764174 -0.6345991680479521
Ni 0.505688122723771 6.146659161841954 12.955144463851294 1.1835114381500456 -0.8523253259519644 -0.3823418091362899
Ni 0.9368096224153132 8.259429433745458 8.670093859027972 0.3460961965406943 -0.05516558942855016 0.08628519365149011
Ni 6.770804622195992 8.62099761973616 7.009753268670975 1.5617603081638847 0.0780661481758075 -0.29747894975362316
Ni 8.163811532082988 0.049135976121534725 11.182963180069146 -0.5042432093294928 0.16100710794541304 0.559206967159882
Ni 2.8117688301087074 6.015749410711138 11.914344482162011 1.0299260765900005 1.4376932677779306 -2.3325785785792923
Ni 6.273706123478721 7.982583865174443 9.737268930418121 1.1716303704417435 -0.4667480405975123 0.967913639442946
Ni 2.134117266475873 7.034805029530817 7.1315078390559705 2.211345665208024 -1.9365294471592391 -0.2651828087240788
Ni 4.689620509361041 8.737934792601425 8.44745394676135 -2.7274133779762706 -1.1138368564720431 -0.831850088816748
P 6.902444422058936 6.957937366823906 1.0107811171140093 -0.6145335076463287 1.3431987988427705 0.33134680614566164
P 4.435387969239633 1.001802441821146 6.925598056215244 1.8940478809562604 1.822657859249048 -0.7319262213359007
P 0.5924604212673354 0.9908609519624078 12.6732088846264 -1.1290696142613974 -2.2650035597427958 1.618810259099341
P 5.480836235894242 4.208093303221452 3.5788938725939814 -0.11720245205563687 -0.4593337504113122 0.5465797653141748
P 7.7252925132766475 8.035858940373453 4.599892899620834 -0.8909265832639301 -1.1990506714362255 0.6533965032601134
P 3.78955359275514 7.647389844772287 13.231318202766285 -1.1258269389543836 1.3431453198970158 -0.4891976278502801
P 5.753412405550782 6.842266227835876 7.600796101640735 -1.8764535649132652 0.6251390510763168 1.0326905267090152
P 7.932136573672035 2.224245940962591 5.272372206603385 -0.03277050956280163 -0.18339036073661963 1.2482183914101277
