# total energy = -340893.74491664855 ev
CRYSTAL
PRIMVEC
9.03663654766859 0.00000000000000 0.00000000000000

0.00000000000000 9.03663654766859 0.00000000000000

0.00000000000000 0.00000000000000 13.22603102474013

PRIMCOORD
 96 1
Ni 6.534897845452606 1.9651069554454688 11.371860505810735 -0.2761915011297566 0.35212877588801933 -0.030278596378883336
Ni 4.64961149948681 0.30513467994276594 6.0884310755968825 -0.2954408362776718 0.041184187547793585 -0.7009212883139542
Ni 2.5995330518034407 1.3957446412966728 4.498649066143254 0.7155125558645677 0.10662416231915832 0.8655253695820061
Ni 3.2417216188444247 3.9394132067644017 4.318708850798285 -0.4769697183255205 0.2876758476202723 1.4416280840559625
Ni 5.052853326364595 4.451546502478378 2.906578980348601 0.9517755962305028 0.53049828637128 -1.1994371082413664
Ni 7.334061823709643 6.286037915138926 2.6098664455473566 0.5774034355632508 -1.3168727593537322 -1.051053602597235
Ni 5.045253515137107 4.765361775364217 11.487879169789757 0.15034859979030235 -0.21526046997233894 -0.13353795599086682
Ni 5.6823634925112065 7.870250645568178 12.390277682485355 -0.43052119705499403 0.8591919711648106 -0.3036801934683286
Ni 1.9218847234584568 6.653458515255992 0.5658389296094409 -0.34809600057954243 -1.0955282879708421 -1.7789555332650913
Ni 2.914613453787793 1.714765016759247 0.36666784830345217 -0.4569763059227291 -1.2617051130426529 -0.29166208596153
Ni 0.4068510594631108 0.11664580654642535 4.628872418907635 0.9619486801087627 -0.15168994430954522 0.5939307437943125
Ni 8.481244743694429 2.3653576556689155 1.1954692830204117 0.5693646244191742 1.105252971457774 2.062830776192351
Ni 6.727839069612066 0.6521541696826889 4.596389325639704 0.0898903945042452 -0.6594223977392192 1.0936457262361488
Ni 0.744363104027718 7.405559691048393 2.4526877100118982 -0.5143116493090885 0.10402374858183375 0.9215196255594387
Ni 7.687023805558004 3.943082081150086 4.129947070982123 -0.5342379559193703 -0.5863660440731773 -2.385805299113917
Ni 7.531765355261359 3.9439767081554624 12.747658579542088 0.014331586131323706 -0.6374716044997408 -0.3476560848286464
Ni 7.646892103225928 8.754069833788488 6.9088419933997836 0.7657814793224489 0.598046565734899 -0.012926478253680963
Ni 7.004839085731213 0.8258238630172479 0.2520851058512428 -2.2528101030003977 -1.0755456742013283 0.6034921622305026
Ni 1.8026101593780521 6.599428466113122 9.433704414818136 0.8971921045576676 -0.6329174094701552 -0.9957586866796723
Ni 0.24698482825695686 4.829305014657568 1.4454334903043635 -0.38341190227201705 -0.014463483723497672 -0.3643970517324111
Ni 6.296664999566424 1.9452805751445064 7.245166623939073 0.7941757141944258 0.37292437247713195 -0.5378567836188801
Ni 3.5248665477277727 4.312102165913128 0.3373520961000095 -1.1677300069460728 0.8471849194016056 0.6089822388107964
Ni 6.204762407195963 5.647174830299745 4.796671009561457 -0.9707341396108766 -0.17370887178279762 0.37652905910925477
Ni 5.144575186006697 2.8467212043798016 9.41894397289307 1.05848949004999 -0.4217905020502155 -0.10546845144816029
P 0.09323549624210717 5.447835667556382 12.468682251038336 1.3031294416257104 0.47294105678210163 0.04663286936719065
P 3.8800063589528575 6.28966160634252 12.757908836230959 0.40467543963648367 -0.18464711596185618 -0.621502225654678
P 2.47414068486809 8.518466649099928 1.4840795696093303 -0.2721481842983184 0.7045907667457414 0.4916890268135661
P 6.317629996056048 7.648301818507126 5.62828464553168 0.14203416638733604 0.5206103378336066 1.7742655839885895
P 4.893944074955101 1.145809351249258 12.57864275396277 -0.18108330986999782 -1.044483405578885 0.03060795469384406
P 3.85537248807755 6.068562223104755 8.192163648348135 0.28713257352229254 1.3005154010416313 0.838695908093988
P 4.742824404137872 1.0630337616609178 3.84323357437733 -1.1505678933444894 -0.39753805726075403 -0.21538671113755808
P 0.2397383495134099 5.3750817077555375 3.578686043242104 0.4651053627877667 1.499384059919508 0.6081476587246429
Ni 1.2344316446000063 1.0049101162207208 2.461443307037241 0.4600228060585368 0.09450269646527595 -0.5558989858325717
Ni 1.6730067198719412 6.450558917763961 4.884002871231724 0.557635251797388 0.17556083738987183 0.14163333140449158
Ni 5.972529887891295 5.684225039613303 9.270085268507609 -0.7013678889330694 0.46125462158310887 0.09675266884171724
Ni 8.570662261049955 2.3610471800975574 10.179414881335768 1.2728310477524853 0.3466469268378417 -0.15955443465928648
Ni 2.461127928426255 4.982476001941669 6.791276257266011 -0.5357592776599032 0.3505660593865898 0.04860567682284533
Ni 0.74267686767213 -0.0919125326705206 9.121966664644779 -0.49602056430938446 0.4742191521635768 0.433134466308125
Ni 1.6094882024902333 1.1030750976288146 11.659063788109382 -0.1363697690127071 1.0356488380063906 -2.1644045205717948
Ni 4.109952609243786 6.882112526539156 1.7368821843921578 1.1654352973746251 0.49568477823652046 -0.24126820689001027
Ni 5.563911262344835 7.78588460797028 7.909245539038877 -0.47585128845036107 0.5888795545236504 1.033294478841601
Ni 5.234372242091777 2.802803151388608 5.078293265208383 0.11515431127735651 0.22947147136539836 0.32599865445987086
Ni 0.7844541414959135 7.610429275279536 6.987245658289124 -0.19106176123894839 -0.8715846884022086 0.10552861526213439
Ni 4.96904756022461 4.4286567024317325 7.180517623341482 1.1497636522756391 0.7097301448548358 -0.238588346065002
Ni 8.391104295425466 7.075577875610857 9.111584473064207 -1.372401902769288 0.05002543998850739 0.20508841453534354
Ni 4.72971224469544 0.33651711089499176 10.154298454075743 -0.41416563851510607 -0.21656350505447863 1.391042914909243
Ni 8.270600748792221 7.215365604359987 4.582250604300194 -0.4108229472951183 -0.4220321857473764 0.6422440861877197
Ni 7.133556934868366 6.123514009162255 7.105790965810601 0.7558698766356917 0.8103533523955527 -1.1972293019567701
Ni 2.4153844748786377 5.502552501067015 2.6622942990533254 -0.6012912979244418 -0.9007877923287261 0.055025464306260076
Ni 2.3974106050433526 5.173031554086794 11.405123460801535 -0.46543754931620485 -0.13089691882359392 0.0002028600394254571
Ni 1.0014581211090672 3.2255550762927276 3.4631969261571753 -0.2609487160380732 0.32488382412913724 0.3434307338933892
Ni 3.747267206609721 2.5377134220683057 2.3560056406399883 -0.7188812152264845 0.5879732406592971 1.3718102919318762
Ni 1.0891406042723495 3.321253055958724 8.137579653392846 -0.8144709741083521 0.38400505577132577 0.197723232419524
Ni 3.5594045721171432 2.6627714334561925 6.977339697447777 0.26901580931692376 -0.8418964173091564 0.139604731010237
Ni 4.114109461996039 6.839947581013042 6.12092772381944 -0.10449503179129746 -0.03306901463982692 -0.9114666121988109
Ni 0.6894113179702182 7.346442015602222 11.532093624455458 1.068572842427921 -1.0726089601705076 0.056509762161270426
P 0.3639234218233235 5.491021752997722 7.891681932496967 -0.07090536876131014 0.5929784071833724 -0.11499438866072455
P 8.706491943048029 1.48757494057579 7.983893577832921 -1.6357761975297183 0.39469030339931377 0.4978450191126329
P 1.8662551896696113 3.229359500224681 10.347861398820756 -0.7929966062846601 0.44576012549193555 1.1758030137621944
P 4.125107048516673 6.037647889918979 4.0253687887082155 -0.9111621935845148 0.09644747889647261 -0.3737527819156982
P 6.898224849272345 3.965429683011654 10.384880883570494 -0.013152735331874122 0.00900246060892643 -0.15717333602161962
P 6.39916756645513 7.754572662782114 10.24311142045491 -0.21061834321463727 -0.4455744918436907 -0.7489510380286714
P 2.457956069043558 8.445568103116397 5.852347141850888 -0.5503736851389682 0.3507429512840862 -0.5532849452484923
P 6.958896826182401 4.344724423381895 1.657843243962636 -0.41526478511655573 -1.5402879972227217 0.23473426242623444
Ni 5.2807753700979045 2.9534890636577753 0.4960896514175626 1.6669518518015742 -0.3985682982974813 0.11221296926084545
Ni 1.5311947845651919 1.176353182341899 7.025072114670984 0.13478596946535495 -0.768918996510166 -1.3832241901957725
Ni 7.032436973351605 0.6280661116470251 9.291789461856222 0.005906338182105957 -0.23903931755949157 -1.0253158315114987
Ni 2.620064289745003 1.602457699357075 9.221400389805954 0.6761883043436483 -0.8482434425731069 0.3681279795297531
Ni 6.2132658820652455 2.271223014103223 2.8069075916496367 1.2297565851605143 0.3562535966896703 -1.3417453542256956
Ni 4.066269508799459 7.019333850545591 10.63567284675033 0.2561574652970169 -0.4091159919063405 -0.9097581141481365
Ni 8.09031081561788 7.141192892641526 0.3125664097328807 0.43726751463989216 0.3177346146788657 0.20465595498361527
Ni 7.531738245352104 4.1340081353883456 8.095243915438433 1.0804891342495329 -1.7438196087939062 1.517409035742019
Ni 3.165199381657299 8.469018174620954 12.586724217911334 0.8120191701337499 -0.0005602433788441964 -0.037740194863251135
Ni 9.05922800898594 4.947106607001849 10.19036547734703 0.6225877454093729 -1.1307912249381944 -0.09608803867452484
Ni 8.360831563425364 2.10423500973609 5.558318488065772 0.5293276631019463 0.41327089461497857 1.9444543584332703
Ni 3.845974386202891 2.7233620806384877 11.558968581162416 -0.8052160311689874 0.06518337867586838 -0.9575937455741768
Ni 1.1283867162354677 3.3029086840303035 12.610742693846579 -0.6247862957225885 0.9420604258252678 -0.6442207502981163
Ni 3.0170166176759015 8.365874006546575 8.07110615590247 0.7360019340671712 -0.28998546959005544 0.16669181703501615
Ni 5.812337434110454 7.724209564417832 3.5690575071387878 -1.8224241459716872 0.8503406914217677 -0.9873090132504221
Ni 3.10313576273888 8.121713127170224 3.696053877038323 0.3519351718199745 0.04752915592921492 -0.018517084967581015
Ni 3.342037319719988 4.174429010085795 9.057886972141517 -0.5045766814095116 0.6787840900952826 0.45384264538975394
Ni 7.2546117163231045 6.007248645009025 11.416617158661515 -0.25364112663306637 0.70368830953613 -0.3055532421213254
Ni 0.5731640270898241 0.009360148001703377 0.18077248955906067 0.16410014504843998 -0.9847469089502008 1.4769709823316306
Ni 4.571119275560574 0.41908485784571947 1.7114612224848476 0.3806081142746348 -0.9400153703707811 -0.5090360027324459
Ni 5.9916514105516585 5.791706793168294 0.3661636039913311 -0.6964105449277942 -0.040589748496904283 0.5286460636538896
Ni 8.050667091652372 8.782246066139628 11.33773726303295 -0.6785478057147605 0.7764543856552628 0.03306721486761402
Ni 0.25752244998391793 4.461107263808559 5.746723320743425 -0.321508222788685 1.0635093118620844 1.0391064575376878
Ni 7.890673443872725 8.954583759266182 2.328654453193806 0.23177338002569758 -0.7675858795210393 0.21540959395569353
P 8.303466995444273 1.6589908967877145 3.442814792716509 0.48947325010916987 0.9336302927800437 -0.061499759176694084
P 1.8566673184301759 3.257987564396718 1.4270095959754652 0.1230077458835043 0.0635152469448261 1.0303222835871544
P 4.562371811508006 1.0462436911963833 8.181424509629053 0.1924344732167589 0.059285525134194675 -0.4916622873406888
P 8.615782186684736 1.6463938256211046 12.44540387562572 0.3174016568194792 0.5925528896101795 -2.065991176198203
P 6.240963172686236 7.977524556485556 1.2908527877390632 0.2068866440863469 -1.1588833551887203 0.6227834063599468
P 1.8097581387846438 3.0191221539612814 5.81634518236181 -0.10740140680481504 -0.26976271478527736 -0.6340916322839144
P 6.856430405839367 3.959691418886262 6.096750203083238 -0.12897013411452626 -0.4449062621320725 0.11689700500007609
P 2.3838014305979334 8.487353509912957 10.483163341252023 0.34665746836080297 0.20464849878444755 -0.722535009928988
