# total energy = -340856.61092356156 ev
CRYSTAL
PRIMVEC
9.33980163264862 0.00000000000000 0.00000000000000
0.00000000000000 9.33980163264862 0.00000000000000
0.00000000000000 0.00000000000000 13.66974377099442
PRIMCOORD
 96 1
Ni 3.2057561115770583 3.4107647547529387 6.018747418154269 2.4412555096624216 -0.2628860422701021 -0.9113406281439078
Ni 3.9981635514097706 1.134430971181265 6.399859886788456 1.1622041920318371 2.1777837700921787 -0.37452077042997434
Ni 0.2533626635608537 7.914986771456499 12.187998265824017 -1.1313897777541417 -0.29746506579655224 0.4240422741988697
Ni 8.007637602449883 8.578859862888917 6.841856653515352 0.010924360221987636 -1.303734422199561 3.3176003384574346
Ni 7.32334770491348 5.881674623212226 6.14383911571745 0.20880211594150494 -1.642577279611952 1.0162313527117273
Ni 0.6937810038323177 1.6933527130297479 3.872706667607492 0.8108426333271455 -0.03630423374767296 0.6963874049993426
Ni -0.19036757032656315 7.235824424949873 5.522699352120427 0.5459285048834212 -0.6490824492657918 -2.010665921263337
Ni 1.841164411749633 2.745556071704386 12.298518005069065 1.009430784850126 -1.397345202978187 0.9988440104732151
Ni 1.2734539166788947 8.958980444602592 2.7370923435747287 -0.7786904740746331 0.30771296877680554 -0.8624621572756501
Ni 8.927010304028968 8.089342186071868 1.3719906905847798 0.05085076410328017 -1.0018946243740812 1.3423331084083656
Ni 4.8592932507635815 2.257467384518586 4.037235677052685 -0.19640168539462305 0.5104922755629983 -0.26576850602421975
Ni 9.127797356921683 3.1362679883320217 11.600499533291012 -1.708888601244676 0.8241990000293934 -1.0131907661131905
Ni 7.689000934085948 3.2127796423136536 4.868301489321356 0.083457751505024 -0.31726435991066654 -1.2948530605495314
Ni 8.614295069823282 5.494773345601254 8.363599853574092 3.309715279282403 -0.2059972995028581 -0.9994993846690271
Ni 7.528113513250062 4.84477919921482 10.540793512062244 1.4597625888731443 -1.1053707279825609 -0.34195183535501755
Ni 6.6186690206776255 5.023944611608575 8.270987315766908 -1.2548055577093422 -2.1678467134841246 -0.8028886685873915
Ni 5.805116270223037 8.321595030256589 11.945811608751741 -2.9826362472741605 -2.457152383398336 -1.704131289065349
Ni 0.6065211062713328 5.376680895290737 12.173836324792235 -0.5798274716237111 0.03145410474422325 0.3126823969669389
Ni 0.7983634312565508 0.36247302675782794 7.628209100028205 -0.30469809320988167 -0.25124742958990925 0.35312842079712736
Ni 0.5541743207402232 3.833736345801052 2.902784158308095 0.13210662286097896 0.4497306801039093 -0.2679889107143062
Ni 3.5616772675746184 5.556845666446215 3.037718138704021 -0.050042666379688 -0.9021005976028786 3.1620452547655287
Ni 3.4092890661141326 8.028838951880827 13.102558167684263 1.1150576162530215 0.9274069375781513 -0.15022904349330257
Ni 4.98020632113055 3.596785581456082 1.1228272017834646 0.2953649887344139 -0.026285158948774083 0.7016147148365529
Ni 8.966760499261612 2.4822203680896284 0.26931878046298 0.03557995398713872 3.3404903556817307 1.0344995548932958
P 3.4057866405473467 1.177739630789764 8.894300451175638 -0.41121786874069177 -0.1843118441096245 -2.775073403056395
P 9.383231588457772 3.7238722606221053 9.537776350087247 -1.4354772339632182 0.3832535223172819 -1.2351461316072019
P 9.022556473490894 8.260017718891733 8.994267148692925 0.02739304730097218 0.6608560448619522 -0.7449509157303428
P 9.153369733459977 4.419827570246284 5.891905441787846 -0.2578477085152463 0.9863690179346561 0.43972497504144914
P 4.346052478107501 6.480430618506956 11.907112141189131 0.7846472058787003 -0.7536445868495988 -1.0158850251159022
P 7.783781239823937 6.408159234411513 12.012465102238057 0.5894271994970042 2.6873255088164494 -0.9631642976834187
P 6.669626977723985 1.5679565379372937 6.608665159278733 -1.3332311461070974 0.7703130486442152 0.3812105237453241
P 3.9098744077222265 3.109453418192708 13.002673660420278 -0.3820325054259872 -3.5717978518146034 0.6661334912108076
Ni 1.8755442211132054 4.42895255632295 10.376907080961036 -0.23165228106680105 0.42280840179176854 0.7856969872994533
Ni 5.423510660069045 5.343944890993177 10.057431698421377 -3.354343716625055 0.841777375232789 0.5467080633619229
Ni 7.689271788329781 1.4687024672753313 10.10513940454176 2.976212346025687 1.0309997692701534 -0.6750513625257277
Ni 5.837011692384569 3.761203447263289 6.387133473248983 -0.5250768582453925 0.09828993142185008 -1.5261623564546167
Ni 3.0213137113293462 0.24594686116077857 4.10908396813966 0.916613189396757 0.8156932765512275 0.7383298108693994
Ni 7.301016239499651 7.106888465084586 9.662937162181612 -0.09374447814301275 0.684901258736614 0.3204795244138545
Ni 4.514383720747997 7.623398168269667 3.410478022846538 0.32865229003263396 0.8099682011419923 -1.438070191501375
Ni 6.628784025714504 2.1378525465617066 12.640931006140645 0.9290316176657677 2.0546875782599257 0.32698981472854655
Ni 6.071758263572841 0.2101492699277711 4.857474791409307 -0.8173966323955795 -1.061538561288959 1.47062729950179
Ni 1.4433449061717998 2.7771432804160416 6.942917041789626 -0.7007153429507351 1.3646603111506563 2.7923185632900878
Ni 7.292815893772616 8.038318850414928 13.439162746195885 1.9757716804893135 -3.007077925256292 0.11352320343183675
Ni 5.990147077965968 4.875507146187423 4.054473214722179 -0.9819906863613023 -1.080631830474984 -0.005366920738868177
Ni 3.3519426848339546 8.607411636109358 7.187045443596129 -1.3559365581244132 -1.6699034782307305 2.575583051434119
Ni 3.531061398220152 0.7644739614723284 10.862237724760512 2.216397111589002 -0.5385262988820789 1.070945970645788
Ni 2.2388438203047953 6.9954552932517196 11.509035791069733 1.254814813680723 -1.044707348664233 -0.4636560319357499
Ni 4.919833844160668 0.7540993099534324 13.227117496561293 -1.111827025130866 0.4635259341157888 0.9158079198866421
Ni 4.955651982957002 6.354128482667893 7.6620686824475905 -1.332726695666853 0.23511915656947896 -0.13634457220172647
Ni 1.3165757802571656 0.10071107969774562 0.14858877020563616 1.320435794114642 -0.7430639831202751 2.250425147707989
Ni 8.651962489318878 2.7858012764171365 7.166827575264337 -2.705020097882735 0.09136415083629426 1.476594058608186
Ni 2.8980376711799862 4.815760435918808 12.768428636573171 -0.16922306809730212 3.0579554288324498 -0.6965789521848584
Ni 1.8883677685883984 8.778600858012352 9.703440145416078 -0.4042033850960716 0.25977680721715907 -0.6284948549224273
Ni 5.827494434644422 6.096471378372084 13.626916106079399 1.7135474401729263 0.17645918083442513 -0.9305107733144555
Ni 2.3151593384546865 2.1682069014738525 1.3584787997381946 0.051351614999098655 -1.7884351906207523 -0.04968271193710798
Ni -0.03722004300319819 1.0168241905493431 12.420807762178818 0.027565825433410594 -1.0650326904851464 -3.114268758712198
P 1.7464121254161797 1.12969569181497 5.8875446884621585 1.0456080061016313 -1.7906617659584256 -2.411734360274853
P 7.561839536507835 4.298895820276293 12.680627964504675 1.2199023180742539 -2.3633906788641426 1.451074831291159
P 0.67505376782175 6.020706908511367 3.0331659194473506 0.6984121487388553 0.4177204457458999 -0.877613668205108
P 3.0248441563006665 4.475978456932999 8.63983849297689 1.881290324180276 -0.8888974686490433 -0.5637981860749904
P 7.378219038793128 0.3208259178382122 12.152114748417103 0.6448049049363604 0.004780452107778864 -1.85552529940103
P 2.8068251696193647 2.8842427843476046 3.3755518350945466 -0.8191771213347699 0.4511321884371262 0.051113787956679715
P 4.704700856146399 1.0141156481110285 1.7685231715143381 0.49049012140945847 -0.049567012294850124 0.7235634511935023
P 4.201939340786142 5.031089559764818 5.272789613178349 0.4805111558198757 1.3687488793977332 -0.02902724047028549
Ni 0.7116844693495771 6.640664253237042 9.934486287245521 -2.63891137917912 -0.28911335139774724 -0.37751276317876276
Ni 6.729205571565395 1.072386669740838 2.8737214979449797 0.22457017740903903 0.8490805937624215 -0.36779733566321177
Ni 3.2914861496504706 8.75075890970678 1.4811851119953567 0.5593002982046368 0.6135508320180852 1.8997793841233992
Ni 6.101533550791278 8.215354788064078 1.6848506917138935 -0.5183513665961009 0.41923405417694903 0.6176609975317169
Ni 7.882979271676831 5.579999034393048 2.8831406877692562 0.7293345493493245 -0.4091617575426114 -0.6518021621898
Ni 3.716951467702136 2.964163465880908 10.682453083526548 1.0866569536231414 1.6814467029836395 -0.7383035856171541
Ni 6.6854112422783025 7.046768162755514 4.360251778345328 0.22098580249189037 2.6394790787571316 -0.8600838868514606
Ni 4.936542749064617 7.699106599321316 9.771173319957118 -1.6339527711677344 -0.468908795694257 1.3036166656747743
Ni 2.5794196824190765 4.385251625050971 1.399863460235339 -1.3966075534812143 -0.18281957583481417 -0.1321945545890949
Ni 2.033209410427649 7.384271230172534 4.102590938128914 -0.5318686843562453 -0.9436000023982459 0.028623834384279737
Ni 7.581593216704508 0.5940683489161438 0.7263853169285672 -0.07004919140860194 1.7541274184778177 0.5799241451025755
Ni 3.8819110419970055 7.231649533674264 5.444289850471674 0.6446256990460187 -0.7813618502592091 1.6481272628959036
Ni 5.454836354338379 2.7414745784438916 8.376873579482137 -1.0244537406215195 -1.640376415305891 -0.6778073280043101
Ni 5.764534832655875 0.8000016324416556 10.615608124109249 -1.8270886413268923 0.28421000055885887 -0.3148824899420512
Ni 8.405438428424691 5.7500114413056025 0.28041539863870957 0.36259676529887874 0.49540092844751454 1.9131750887040149
Ni 3.903784857136774 6.263149476145057 1.0166364605389633 -0.2612294805032856 1.010076645964241 -1.0441761587511114
Ni 1.302566077990021 2.0248502880749193 9.762753488894562 0.6677993089490047 -0.7303863876526067 -0.23769771592993258
Ni 5.530386008764334 4.148870588598199 12.193261243975707 -1.287588408567318 1.1515048033364619 -0.5182351527332106
Ni 1.6196056402954997 5.348026384253671 7.324371347159132 -0.8833973647664204 -0.4079955051486522 0.6159746109682295
Ni 1.6501281116348516 5.114802200711762 5.03888642606656 0.23875598199111783 -0.139444808393605 -1.573583783161374
Ni 5.9869528658490605 9.022743269521122 8.434232102504279 0.6749832282919537 1.4867401459032525 -1.7886316229022743
Ni 1.656936826936684 6.641243320930751 0.5890211201793673 -1.2395632868382909 0.19779933707309805 0.37836148433230327
Ni 8.404336331846343 0.8827634815947357 5.596024265826359 1.4848946080540812 1.4726497292484573 -2.428890046118533
Ni 2.796420630735632 6.5193028723975255 9.192957416146323 1.47365040259883 0.1073983214810215 -0.6377629104879144
P 1.6765223907061517 7.282224558858655 6.451080292257288 1.6130152496841188 1.0740184389235246 -0.21952001657964132
P 6.939481862793722 3.5162111138169787 2.525526225757674 0.2212197728795674 -0.8304249263344473 0.6095530237126019
P 2.0886131129934493 9.266923040235937 11.824615542398977 -3.5572027276092477 -1.4171329271280755 1.8248924050065216
P 0.044932851091336774 1.2065342388495015 1.8329892834866788 0.4493612125796325 -0.07540634195545723 0.32659720727581815
P 8.139599658004872 8.70123928209318 3.612312067488683 -0.1461013944781742 -0.16768503418622088 0.3428069842664612
P 5.790153908201727 6.059242929547525 2.1229929223570223 -0.11469588358369924 0.4405222741317639 1.0741853035186921
P 5.966704176172281 3.105764196595693 10.302926513189002 1.0737214765083958 -0.01917554448718633 1.180003167886471
P 6.1260318501557585 7.7474027129369185 6.580190906410838 -1.4283532213239272 -0.25625953809251995 -1.0950626611883334
