# total energy = -381174.64944162784 ev
CRYSTAL
PRIMVEC
9.19624892097964 0.00000000000000 0.00000000000000
0.00000000000000 9.19624892097964 0.00000000000000
0.00000000000000 0.00000000000000 13.45963986693979
PRIMCOORD
 96 1
Ni 2.6235794745082512 0.6869726723767936 8.132919802995467 -0.06175944059598397 -2.1737021438236375 -0.6665029587350844
Ni 6.749826029772259 1.1551316361484079 0.49823805488382916 0.7663664052916415 0.32695510483586915 -0.6183693364526512
Ni 4.915836491333098 1.0568697159655727 7.656421680663086 -0.06901740770997791 0.22577293946788857 -0.32184529441312965
Ni 3.251830418748828 2.651903921318091 9.770621844667339 0.6203478003352607 1.5256519924771017 -0.3478129221214849
Ni 5.299356858137492 6.071676238651752 13.058111638399879 1.4302152142333304 -1.0024186151983512 -0.16964138658164332
Ni 2.7623140863826783 6.446359010201517 7.82511123428871 -0.7298107176547948 -0.4448075317706791 -0.3838014244009519
Ni 0.5916388378641705 5.6755018332725715 2.7759971852165615 0.11378211352017825 -0.25342052598182807 1.4328405676713194
Ni 2.8886981358981396 0.5318383897244492 10.2836364323869 0.02851044873486703 -1.7582018456575073 2.774089698986887
Ni 2.5748025700019572 5.095577177339042 9.838619829133776 -0.8735333274881472 0.3212066323878661 1.192114092217392
Ni 8.45015728576525 1.4464596070863616 11.790805996635545 1.1264866840255696 -0.7347562345855282 0.7287311114373708
Ni 4.668825244153786 6.290786066473579 2.0342498147590002 1.990956358649552 -0.9411556546228114 0.22402433220789802
Ni 3.0907305293933858 7.570388932352889 0.9027746094461866 0.39117689092941665 2.1847080080158374 -0.15048332559595373
Ni 4.538863853791238 1.3581296357848986 1.151018153986706 -1.8236024825505046 -0.8639179158855703 -2.6546948672656216
Ni 5.6274422361854874 8.107541834353768 0.7215055068623869 0.27438195872484356 0.9264070355587272 -0.11121203880015684
Ni 8.019782030488088 7.747655827387454 10.899481636774725 2.4969887986689834 -0.8713355485058799 0.2871598272158022
Ni 0.8902125333610437 4.124995865404872 13.337009039612878 0.10946086043700504 0.7099618012496677 -1.9878139563658281
Ni 0.3728637535046408 8.101555076278052 8.835163766402266 -0.5798660381711304 1.5493578207344736 0.8532920607406078
Ni 5.098602743248275 4.264889204648793 10.872912753892157 -0.7426839740730371 -0.04957601115591462 0.042975218009945346
Ni 1.0007082235409985 2.9610266340018363 4.354085462602686 0.3489516637116184 0.9612976767883252 0.11014734498106837
Ni 0.8377368975213343 6.333125596704911 11.825128237019857 1.7331631575213247 -0.1759788987638969 0.2705944666579533
Ni 1.7869691174850357 0.21620105427444072 13.324612496009092 1.4157620149224779 -0.3790130018733731 -0.10632180058739109
Ni 8.51227794751865 5.164585829566651 5.061551056171378 0.9615223912046216 0.40907099760101806 0.6569294561140364
Ni 3.2228254495156357 8.167133527642001 6.3097045898428 2.2512738688615292 -0.2324992024481286 -0.6967746131354322
Ni 1.0471768695572705 8.054001272884001 6.474153753071017 -1.435909179294314 0.6416573604463143 0.1493373849169686
P 8.986206637890424 1.0436730987018976 5.1656479963220185 -0.7737634690866609 0.11929944379398164 0.028703795692595728
Ni 7.9764033241237975 5.954148176888848 12.568127216961448 -2.0216764134412277 -0.33737192929381893 -1.0563526462126451
P 1.2115414272950162 6.471317629890447 5.141300007564315 0.37473597176457396 -1.3989721970586488 -0.9124965961252222
Ni 1.4945008116755172 2.186334621254805 11.92646538285633 0.3129577621155126 0.4763649948619861 0.38659287110316004
P 6.0852590983719255 6.163546765804445 10.687492464525901 1.0920012486541901 0.1832389227604199 1.084202835655694
P 6.889057239090755 0.0681340889511097 8.016251590510718 -0.9816993803731288 -0.30160839854096444 -1.9913546225292351
P 6.535930475113153 3.087189973542156 1.7277066499097222 1.3372459236934453 -0.3231395877445209 -0.1263586646336082
Ni 1.9691835944623588 0.8904920993295563 5.830917521143221 -0.8740637460703204 1.417855921337029 -0.9354547475832923
Ni 7.069745138740015 4.718714894784753 3.3438857905057024 -1.2974406187710494 0.4745156003580731 0.706749464959957
Ni 6.497030341994444 9.010172062691217 4.58639926468736 1.0783396920066977 -0.9981454417442939 -0.7569908776140125
Ni 7.847996099836205 2.490095920792402 3.686178453578542 -0.37867181648387044 -0.6759440495433262 0.41354394577070713
Ni 6.354782763015681 2.1991541923109463 11.472337136129449 -1.371384003027735 -0.3002446854242184 -0.06537569719233258
Ni 8.759169643461426 5.921942913016101 9.750755188029906 0.23172710016879447 -1.388285920989396 0.5531623036276989
Ni 2.624030090707499 5.434321007936584 0.8412369898771217 0.18503149588446843 -1.1284134687346372 -0.19776025630504654
Ni 4.34944871387492 8.566149573951128 2.9961425106717616 -0.19645182190626811 0.02084650443170603 -0.16974423070809475
Ni 3.2804307530275945 4.205490632588808 4.315200963107218 -1.173480536276605 -0.4676348140778398 -1.1683311308651814
Ni 4.8790331029782354 6.9691289788223365 4.736110519325497 0.7645365511717542 -0.06860988785891409 -1.462271985558559
Ni 9.062388364310134 3.6293824199754354 1.7511929501394783 -0.6719038180356816 -0.6625192914969881 1.9877535354415379
Ni 4.555490671918572 0.7348492641094898 5.338658867335938 0.49940387895932054 -2.1241158482550775 0.19751060218808564
Ni 8.58898386012932 3.256971121919835 6.563095274928601 -0.06739427028425812 -0.5638940882229062 -0.9945464115391259
Ni 4.934486484232564 5.817813785994085 8.809644175526518 -0.2130218104498073 -1.5041801957565708 1.7873702396913476
Ni 2.541723662477609 2.549365745366887 0.9277378272595985 -0.616983254738402 -0.1609464299108067 -0.6755244455074044
Ni 5.344565618045665 6.855159865408591 6.957543544377195 1.3696233115828862 1.2172859634973294 -1.0902688393441158
Ni 7.77732292654607 3.2521430912136124 13.209519600971918 -0.5826736828232545 0.6311060672930293 -0.02133552825298261
Ni 7.35968447608437 5.350662731108951 7.39130761739768 0.28930849812768883 -0.0102108790947308 0.4840019425819535
Ni 6.787236370558762 1.583520501649298 6.290955277454521 1.8302534122081189 -1.4353782464915088 -0.19301399986931275
Ni 2.8515360938336722 6.436951247511106 3.3663099239800895 -0.5778402659903532 -0.9764661569986473 0.5006572917504474
Ni 5.196524402219433 3.50598715137335 13.298366401465168 0.499922727577268 0.5276417907590912 0.8478261525300302
Ni 3.1059043401843707 4.215349011478467 12.048598926100523 -1.9058669850783758 0.32295755364070183 0.7957885672075004
Ni 1.5859575076248196 4.497600284688722 6.321037127441425 0.33734004761461905 0.4428465513895664 -0.9330258264268253
Ni 0.5601140964147779 1.051333574089104 3.105165881392543 0.7524639362779364 -0.5380336755163766 -0.4678800973194265
Ni 8.58665720914137 8.541264524253913 13.244702610259282 -0.28524358402969585 -0.9860396596196953 -0.10864196408013548
P 6.675474356896431 7.125124950002629 2.9148872136984836 -0.27562534421364143 0.564579287215389 0.19440033869387813
Ni 4.694050555062678 7.884128162016679 10.656185674176962 -0.5488881017323772 -1.5628265446448697 1.7054723764742756
P 6.285240728348146 4.993581580076728 5.565008901967306 -0.15364681092559992 0.06607632280378298 -0.5420291698290148
Ni 3.415312136586008 4.218273418649093 7.923703299809361 -0.3982425395269464 -1.78587180076895 0.7591405769671635
P 9.130440606645461 6.092367798821277 0.8397269657971945 0.5857955162816879 0.6141373006491746 -0.8146064712449519
P 2.1358012331963416 4.005959618811834 2.3902973074076437 -0.4374066113209176 0.16955628306700476 1.6906198848424754
P 2.6257038080189896 0.4408507024723227 2.0144098272435627 -0.7194823391455932 -0.3712158744264574 0.6081635995642429
Ni 3.8579919729773167 2.1258324993191127 12.013159341467057 0.9852487882872838 -2.008536790735476 0.25108030788442565
Ni 7.06393310939462 5.317629804829424 1.1499044882371374 -0.6124694260284483 0.041671154486541136 0.16527925295820567
Ni 5.628738907289444 1.3399854365784658 2.944228765643767 2.716638398847954 0.5854414753763788 1.8077650012976156
Ni 6.527414748572272 8.976449417739373 11.620757237413006 -1.6028215969805686 1.7782464230132082 2.827488169212685
Ni 9.011422752550352 0.8971225948327687 7.447474627571632 0.2246766210799163 0.08725064288855297 -0.4657710213962237
Ni 6.906309402147657 7.271823513480083 8.944993648157212 -0.27831240412750136 0.3120277941020755 -1.0017516710383136
Ni 5.339526073613265 0.6335948845136931 9.835228252515767 0.39564315423088636 1.567242157214062 -0.26554122050476203
Ni 5.580854038932681 2.8521246537673832 4.880425415071421 -0.3024496634953372 1.8489414755359252 -1.3755018818508504
Ni 7.858378664916824 9.037567688355667 2.1655888032163904 -2.2716462618702944 0.013771856973111766 0.5790401998357253
Ni 0.8710696215170951 1.8200296325114553 9.683255640257327 -0.6981172432062558 0.15491616455632676 -0.40374032941672405
Ni 4.602989297818838 3.641263973637225 2.4072294410005903 -0.5341330549103898 0.624587292337905 -0.2741852693330052
Ni 8.799246896447556 7.685222493169271 4.19927304866409 -0.7533435106694123 0.26674938188025027 -0.01728912609775087
Ni 7.708884441754245 2.7584608580666647 8.791931280396508 -0.5253745919914693 0.6382179957474622 -0.4423958370053929
Ni 0.41802837141778443 6.239820454713797 7.717461783163185 -0.14865989923396977 -0.6534803212231713 -1.9924131457007361
Ni 7.7729363157901314 7.792634681071519 6.467356805461552 -0.2810999941749675 0.18930184112504816 0.883400192979898
Ni 0.07403072378697623 1.423993170866739 0.7491770199957656 -0.41836810663222784 0.84587031435524 0.13868093364438694
Ni 3.4485933615875686 6.456713986535245 12.051869112232204 -1.935542143545305 0.9446963207862182 -0.43938687497574
Ni 2.064971723673815 8.41585527712866 4.013920811540171 -0.1326252143686103 1.1533783662100912 0.297342681286075
Ni 7.482279671026567 4.082536783937006 10.805035240287149 1.276757122279769 0.9228285741788493 0.08960140250891666
Ni 2.1736621901820907 7.484118920819413 10.135378185085113 0.26887079909862727 -0.11197205689463298 0.007768073981193073
Ni 3.480725055468601 1.8772486935669164 3.827248912689884 -1.7966452372353703 -0.017138716562815647 -1.6108046151860453
Ni 0.4683134607542133 4.08980182061875 8.384494228910832 0.6551739068755104 -0.6647453526140293 1.8797880286031368
Ni 3.5834747451459816 2.5488047741800686 6.2371700957623055 -1.0573607757621855 1.2311154131812538 0.15419137057516025
Ni 0.5841687248305235 8.019404984280554 1.963317307248074 2.036044509237442 -0.7135752296325387 -1.1713164387457504
Ni 7.894207250881478 0.6740206753355671 9.677978832601651 0.28720816395523435 -0.810161805210037 0.9691706517784986
P 5.55554596178311 2.849834787775289 9.305335789072153 -0.29819500198404125 -0.2897404434587849 0.19076377038255532
Ni 4.119248209802227 5.125290257742481 6.060566250278062 0.4929041301675899 0.5596818499137716 0.12708937215204563
P 0.7415340174815911 4.039268432560288 10.926481823733715 0.005396745535539093 0.5929064162948563 -0.30722703027932247
Ni 4.141061712345389 8.058535023623367 8.525268568805526 0.24727970319141282 1.4893271899041385 -0.15054708895435362
P 4.292137690329817 0.04220066687197119 12.483129966284626 0.4489009851137624 -0.8771074179926507 0.49167128620175327
P 0.8322145500183121 8.813243587371119 11.464947950086687 -0.26454491802976376 -0.08888817849197594 -0.9799458880171317
P 1.6879439086381691 2.3712252066807196 7.673757529585562 -0.728759393572145 2.7769402810618047 -1.0027934820392665
Ni 5.720149621993926 3.453108719829008 7.222119627078193 -0.16127501689481902 0.5307325138692731 0.48523118700336426
