# total energy = -340857.5709686678 ev
CRYSTAL
PRIMVEC
9.35679690118424 0.00000000000000 0.00000000000000
0.00000000000000 9.35679690118424 0.00000000000000
0.00000000000000 0.00000000000000 13.69461806441184
PRIMCOORD
 96 1
Ni 5.205045872453966 3.4063794099254086 1.1659841705809604 -1.6688922633573966 1.7145283160289568 2.3556040929401885
Ni 4.715676027544944 8.174219581279607 13.494430783748472 -1.3600084142009417 -2.3387834218384236 0.4501585116699473
Ni 2.928883340530996 5.104282524528969 9.024629863248627 0.1930476813207256 -0.8690251552051486 0.4219105725678476
Ni 2.4567580726695906 3.94415196621116 2.0455240332687192 -0.2635768976895396 0.8860669411787837 -1.3158499745161725
Ni 5.615753124178341 4.480436791758675 3.5155732320337485 0.33408400257116655 0.3070066867384003 -1.8412119681021517
Ni 9.139906539148967 9.253030216037555 6.901403244177295 -0.16981236494186885 0.9212458030727618 -1.658949550322388
Ni 3.643068949261532 6.624995972528791 1.9487438738674174 -1.239911414206329 -0.4013797996043475 -0.05344423586206925
Ni 4.894999043886532 3.681347606180574 5.55523523192193 -0.20495960226696316 0.007257452893361695 0.15370337519514818
Ni 3.744440488997758 2.557455923014916 3.219509201046324 4.17574664196655 3.4907980749317686 -0.033538498077077726
Ni 5.584173933979914 8.32363827410292 1.834982999096603 1.4169418941631922 -0.8806645392162898 0.42271429941606553
Ni 1.3397997761519427 8.323404354175526 12.107275321814821 0.31847894904405794 -0.35292710341959865 -0.026916621885185902
Ni 0.8755548028046448 5.926698205266974 5.340572528629101 0.5204010500362779 -1.331516477408836 1.0723122548656954
Ni 7.305225764598559 0.7408824222043591 8.394541275455994 -1.8362965330784053 -0.41699616598536576 0.03192255974020954
Ni 4.835789231864118 1.888594639416582 7.239878829360989 1.0234283846807986 -0.8814194151044433 -0.38229835749286417
Ni 0.5100549162487733 4.834488637067797 8.581787627578333 0.2592273624715923 0.6548802868944914 -0.00970282911006071
Ni -0.09482833152711147 6.344217205277115 0.9554122589784279 2.0506581453855586 1.408532587053574 -1.3293274401773172
Ni 1.579296354616815 5.863914096753953 2.926909992023486 -1.2705648774261278 0.49949309623901716 0.5152372464471513
Ni 6.266864563685885 6.5226606826916935 12.223912476012895 -1.9649499072834609 1.6179432831133553 1.412519082505148
Ni 1.775283826586077 1.7344694776540652 1.8058412545416396 -1.6362204841559884 1.1216213855134682 -3.7760447442852585
Ni 3.9187576188930766 5.840372395260844 11.782959377676248 0.7977575180084132 -0.8969990147102552 -0.13810037855056861
Ni 1.5169707291614893 7.874268736778575 8.304443740540535 0.6478087247596908 -0.9026901515577614 -0.8076377532366027
Ni 0.20061721517227857 3.3331624726505367 0.25479962011510315 1.4244047781991405 -1.172849330450509 0.4929748355045252
Ni 6.054147138509279 1.6263891144001292 4.937046618675774 -0.10327452912063506 1.9873845821378933 -0.2005550454413643
Ni 2.5489973784402853 4.077299188884825 6.321723465058739 -0.3921577667854472 0.7972327558531948 0.3306191839510177
P 3.848862344587224 3.817788421431972 10.710711600401316 0.6957502856359759 0.7822653359100851 -0.06355972702951636
P 2.259423221918529 8.02736465086055 0.48093001392858226 -0.4746130451678858 -0.12417528382904419 0.28988751055961043
P 8.51332862162669 7.184195594163993 6.152334560193793 -0.26150073188680123 -0.3344231310781402 0.9119972878913003
P 8.230931128477435 1.425788741462623 0.424689113624675 0.4862269752577303 -0.1368557075101901 0.5259965418461844
P 4.734623541664001 6.067106302487004 0.3229311381683916 1.245101957268333 -1.9234394467445004 -1.721430956686061
P 2.5750186311637893 9.088874567788308 9.656157526434598 -0.33753905099930254 0.7634407470044142 0.8015558087085809
P 7.248186729502377 2.3755223602835915 10.867268593729039 -0.8614049196557295 1.3973382609996516 -1.009926236429306
P 2.523378467991902 6.084173100389798 7.091922603923754 -0.8163388805550263 0.38184738599837464 -0.014038994591569369
Ni 4.194184298205937 8.106233093581304 3.5017139441754046 -0.5964961905286437 0.810437684579243 3.388852549035202
Ni 7.628297254723387 3.8114819401893825 4.766590103262196 0.0002812786858446769 0.2699295793804448 0.4436847310201455
Ni 6.558787276278695 6.991557855555039 7.272787620426734 -0.029718610110355273 0.9065797164201549 -0.025542881466110848
Ni 3.00797634638205 2.6642169778783398 8.315509088786063 -1.019556046209586 0.0020414559100610007 -0.3464211839802808
Ni 1.410733654935432 8.75843927834906 2.707494971485684 -0.3053041022249968 -1.4935258013665182 -3.034520337737961
Ni 4.373245324228843 0.27546036378240607 5.606604047978038 -0.2110011804753527 1.2469318113882204 -1.1753114188377565
Ni 8.278005174666557 5.024843317185369 6.709390539614342 -0.7060431829215518 0.023190322073534258 0.8603829061491182
Ni 3.494754358495526 0.2988579706002394 1.8680555341115248 1.6138768263534657 -1.1926612229701137 -1.7451588964306202
Ni 2.2401201495098313 5.8960546947781305 13.414453560571863 -0.23995360184364478 0.7465336868364304 1.0450356785379293
Ni 7.149996500778734 2.632955918781171 2.7967288740291982 0.04841130142385211 0.005721218754493372 -0.6542979320284603
Ni 8.190940177689855 2.21458545023531 6.70407681454362 -1.1026389308736946 1.1904094508214595 0.24744888177942542
Ni 6.476653311371496 0.4026267217524167 11.032973727577355 -0.8969532490739844 -0.3072658539370579 0.4285689584246297
Ni 5.4946200289757225 2.9789983457762634 9.22932383491556 -0.13390639507387905 -0.5628065115856823 1.9957427242946018
Ni 9.4214525637625 9.000555760000765 0.2637035482314953 1.9510461527181753 0.18218271358176366 1.1908473096898264
Ni 6.603540836788052 8.63656699617587 5.107353425335821 -0.4871271184744966 -2.7175861074732035 2.5331863316354633
Ni 1.0815053923215467 5.195286733083015 11.3685739690135 0.39073980339199804 1.7572613361211091 0.9315145319886217
Ni 5.79772411409805 5.718135198000917 9.449875706300503 -0.8189387800717186 -1.1718005774710205 -0.3559052122113161
Ni 4.739124161067095 0.07090300135307336 9.547997630405348 2.2354055343707047 -0.0499418791357656 -4.3934314051096655
Ni 6.145806322860032 1.2168701759069238 1.1307754787890605 -0.5232189791010473 -0.9430492721010985 -0.7419470959070126
Ni 7.7225763422609734 4.224275757666128 9.414776489034624 -0.4163893856393022 -1.1295357552645384 -1.1805284442623218
Ni 2.1015553413176797 0.4519295570097658 7.009357290670438 0.48752461102323136 1.5275016440913305 -0.18325897736507793
Ni 9.077927115186185 3.45428621105606 11.296170137406257 -1.1540514810177156 -0.9680010569504296 1.063576417654594
Ni 1.6736690101253597 1.275247232987809 11.623280021157646 -2.9816695124855164 -0.2418603319480544 -2.051230472949261
Ni 0.9460376839681155 2.323114939749846 5.604796314779124 0.23348702028269464 -0.08196548323021367 1.0510916549240221
P 3.4037501499414806 5.059351184874792 3.8628816336759066 0.7549774467284094 -0.15427595986916656 0.0267250746996701
P 3.126686031136849 2.1871606779474315 5.506797900395945 1.0586920929790993 -0.32930149358085864 0.6928102291710456
P 6.0675367151534125 3.8606893361163537 7.432165688078849 1.295964291335839 0.5894523963079848 -0.7056474901450298
P 5.032029337354968 0.6610418082653486 12.856028681736195 2.799691201605075 2.3246984045002677 -0.3963144692662981
P 0.29118820402078727 6.66853314941569 9.955288715510035 0.33842299626615263 -0.23737812780698472 0.5440662548637017
P 8.380939299517786 4.864954368411821 13.228467569018333 -1.211732637779268 1.635129822194971 -1.0415109532141225
P 1.788242990563802 8.939848860443018 4.828325314820774 -0.4637784164462271 -2.352174755543665 2.317228064265151
P 6.89003660706528 6.412503110482485 3.9696314603828156 0.6490693366396693 -0.7293592319396729 -1.0439185342143507
Ni 2.494774739269949 1.0638116890133316 3.687276072820492 -1.1985487920991422 -0.9837683470870153 3.9971367333377095
Ni 7.0124235130787405 3.1306907402938644 0.055339840743578804 1.8229679342902991 1.2523848640829915 -1.6198911508683458
Ni 8.09598740076137 4.842731975309224 2.021352619331061 0.37439247238222617 -3.4032545833931453 2.3116865656216317
Ni 5.093138579187834 6.2870191046303034 4.947632898909997 -1.4311973756409417 0.8495778451138143 0.10198897753999209
Ni 8.253106737594553 8.27133377833723 11.27686051523959 0.5394480393654 -2.03307797040995 -0.4985330463185931
Ni 7.928519446340199 5.83142729723723 11.125699586797033 2.293997632982301 -1.1315705263063802 -0.6569489964980622
Ni 4.5096299986976645 2.6742100371766866 12.856138156262215 -0.8970018429237325 0.8181761908740812 -1.1208580249848823
Ni 8.55176634409636 1.051385862470069 11.928847750955306 1.1652303804526707 0.7837432060071922 1.4671627379919572
Ni 5.986001585260347 4.24087471571413 11.420352612782407 -0.0037185865021677894 -0.9715471224304753 0.20729262127551398
Ni 9.19290343789975 0.6157736239157217 9.633341912396126 1.2681148732237388 -0.19499863439950932 0.5242510199099875
Ni 0.2727955479695136 1.9852409966194133 3.4688743934081687 -1.7516617305461448 -0.04432453294898817 -0.5355903561822066
Ni 3.9495227677441664 7.149612872097805 8.651767113058048 0.6227353267308308 1.8557487282657459 -0.1932759952814478
Ni 7.250741135109538 0.06195883900916916 3.184971391606195 0.9744606965328445 0.7917092549318043 -2.3285095507162414
Ni 3.5444202374801934 1.6982306025019143 10.49433660323995 0.2883548759651679 1.5525439317719392 -0.6230073494452948
Ni 6.866363910412829 6.2792997470262435 1.0579608837893089 -1.9644441712916363 1.1093713645015217 -0.9593955746696058
Ni 4.674309627584279 5.577923593519899 7.095058066630566 -0.12415625766565068 -1.1199725370561358 0.38030061033654505
Ni 1.7130143419133261 3.4043957689410926 10.137482397200625 0.22125268300003184 -1.5129327451382202 -0.2652751113275689
Ni 2.407017339308156 6.99180113227953 10.47652032588978 -0.10767137263675004 0.5278258817454394 -0.01115704505808401
Ni 3.276282503104984 7.894872403983594 6.131683173323586 -1.0497667654650116 -2.8495240659668024 0.5234076980730857
Ni 0.0448134440107697 7.664835547382605 4.112302031140617 -1.1622491863371598 0.07615196187223014 2.3058151944425194
Ni 7.3329031704080245 8.38223053751701 13.708998047710923 -1.4279559858855084 0.35927695689702643 -0.45147234538536435
Ni 8.621745829576074 7.830422785587514 8.516628763962387 -2.6505710749052356 -1.183448446122594 0.9385022761603644
Ni 2.9474285123749318 0.7416085096589956 13.34996557930769 0.19122631184127067 -2.1037930775373255 1.3604455017383603
Ni 4.003024933538124 8.941430159152214 11.403933305238644 -1.8739027734669533 -2.5400632612609546 1.796504340782132
P 8.523892445547881 7.900991749284267 2.287206359535178 -0.4389410456875731 0.11657844531839277 -2.6196720713335337
P 0.5461618605618729 1.8695816277178547 8.062843754088519 0.9215576778862258 0.7244193714358943 -0.6061216294335496
P 5.059426039251559 8.846065683151512 7.535367417327019 0.8260203695088484 -0.14882496405692436 -1.534880710164221
P 0.10254862481088106 4.137659886950027 3.6778266434334133 0.3365653742321236 0.5032983289177203 -0.2263311259642038
P 5.165719254260191 0.9112930893121687 3.1214686810762142 0.10750862180664066 -0.7405970096370212 -0.3245920039203313
P 7.987691831174231 0.9313652904421439 4.952247671237661 2.842405709754466 1.0069995497008142 0.9748126805556244
P 6.427530126618388 7.570228971946664 9.946949002258522 0.8639402844830735 1.7263181095750333 0.6992798960557892
P 2.2516009395464147 2.639889305429181 13.062447111107888 -0.864547321939453 2.5773242024949417 1.4945287887097358
