# total energy = -381177.0521479105 ev
CRYSTAL
PRIMVEC
9.16904827160602 0.00000000000000 0.00000000000000

0.00000000000000 9.16904827160602 0.00000000000000

0.00000000000000 0.00000000000000 13.41982896710551

PRIMCOORD
 96 1
Ni 3.037650653499406 1.4585296658037996 10.635362385093092 -2.581173658148019 -0.5182500651315461 -0.6233408215253136
Ni 9.031521643457378 4.22579425701097 9.023640846531737 -2.332588605881621 1.521039947626387 -0.2083886825531701
Ni 4.89091701324817 2.2447938868246484 3.2750959932377715 0.6379128058022174 1.0159637008726374 1.2943139002166097
Ni 5.261355729470104 7.901968257927007 8.224946146869716 0.22386260981905318 -0.20065737534718345 0.2390765985553302
Ni 6.554017313383485 7.5246069103160576 3.68933892031782 0.3366880158529169 -0.06187771134140311 -0.4447890198279178
Ni 8.25853420422632 1.4982866587875947 13.223215293317509 0.12174070624562258 -1.874186109035327 0.8646298543509302
Ni 0.21305933915264083 0.3181146257788242 10.840081558005405 -0.6024254115288851 -0.2474447680143674 0.8807822957410766
Ni 4.321619979721681 2.462604626753166 1.0581778467427663 1.470777451926409 0.6959107224732403 -1.2698858490812324
Ni 6.426164105319362 3.4169925155209864 7.47673714348723 0.8969596768318876 -0.41950710533267754 1.263041058245257
Ni 2.7765344989347107 2.289988125389484 6.473040864228415 0.1382063080008136 1.6444711542005548 -0.8183168302170036
Ni 4.613085683819669 8.862031787528998 11.38659075604697 -0.8407630750356616 -0.8910996185066847 0.3460481169115782
Ni 8.68960783617746 0.37218725371317274 2.825665926795497 0.1669664108526415 0.6442204931878002 -1.4645875210656132
Ni 0.893477901592693 3.3603736429022284 4.689572966977308 0.2751833715802164 1.1355907032093668 1.0839608948482171
Ni 6.208014110607542 6.853891034678463 10.15842150643943 -0.833411519766597 -0.7527632126859101 0.8423633296432461
Ni 4.068049951823421 7.650580463499721 3.411280198494025 0.4381941402192195 0.8100247654115403 0.8789503847386604
Ni 6.8332515071861835 1.2305962966653856 4.308610934139253 0.7637050564093945 -0.6830240963185592 -0.21776780977522492
Ni 2.877788298178265 6.010164388604697 12.225021359881937 0.8009202320071109 0.3968286898985553 -1.4100744776193974
Ni 5.298417022283872 6.805175881605837 12.698312040448226 0.3569652780447143 0.8638726644699315 -0.3551536787572723
Ni 8.031866163739142 2.9847452454005823 11.38896553953009 -0.14236532447450967 -0.837458693252777 -1.3906343666169148
Ni 8.336461944855765 4.17657480628749 0.5170609659460735 1.0031632066738594 -1.1724670074104258 0.18438254944655985
Ni 7.2746403183593635 8.441539237197622 0.9979188619896526 0.7650764828356242 -0.7449858827333362 1.048089891983221
Ni 1.5996963318505042 4.8337296596411745 0.36512525279155855 0.3069508937998004 -1.0635931298251424 0.3198776291637975
Ni 0.8950668976452971 2.6881448743120666 12.589852286226359 1.660159511470089 0.08976389622870992 -0.2981687767317962
Ni 7.8695648415975015 1.8841293759811102 9.035960379689724 -1.0598125797367877 0.4407562445194409 0.008893960055520166
P 3.1754431098094784 3.080029994267649 12.741603701512107 -0.2729439407267364 2.1657970300439473 -0.8899603626959188
Ni 8.446435508935018 2.9565504221936707 3.1438502373406214 -0.826767532087518 -0.4258225060277441 -0.08925173247898177
P 3.87193317992988 6.905998735584115 10.160943911598528 0.6865498500836306 -0.40430314389872946 0.43335686673157625
Ni 5.767331316145557 0.5402604916950585 13.399404055858888 -1.6645278157411139 -0.13400409699400792 -0.1773590669408752
P 8.833644414309942 6.975876051896269 3.4927114324396853 0.6109817857393284 0.13431777157968477 -0.8242187975237353
P 6.476419658489146 5.257403869697037 5.94089131256875 -0.10293797171682272 1.1598135803124736 0.9580894542636724
P 8.656681784100705 1.8504056167111842 5.464460232994861 0.49205977988942345 1.2154782208646293 -1.79153414126105
Ni 0.4730229443589265 6.870862942891793 1.2775904193913648 -0.05364375346738503 0.8475150490475146 0.48748321626233465
Ni 0.5550364128651198 4.855607008640098 2.570916759299055 0.35731700495717816 -0.1555823373854159 -0.32201447300114217
Ni 0.46218146177035657 6.294459897012343 12.363486824329694 -0.1811923246440363 1.0863977864244836 -0.126202341561402
Ni 2.0838312457198227 5.871335829848323 4.053297870178673 -0.08441600165323528 0.2698287921365224 0.49083747744654815
Ni 5.304762003636453 6.731282522183234 1.6256245663430262 -0.07864130395298714 0.09489041882199788 0.4794950558505355
Ni 3.7025533525798693 0.8717683461757807 4.7031000637828875 -1.333520395212742 -1.387089329578134 -0.30540977456492563
Ni 8.909481611950387 4.281129462882096 6.723589690745642 -0.94509998398254 2.1377946312937506 -1.129356549374197
Ni 0.7817026195426573 2.418079728706739 9.901310392127344 2.2040589017386236 -1.2420680555380157 0.45755403280307005
Ni 5.179182719525277 0.841812148810154 9.38307762182165 0.5884476091925543 0.007089816967245854 -1.2107044536250697
Ni 8.34265105238899 5.148328872341128 4.534881954839483 -0.5735673496466123 0.5283460159149675 -0.1023281060469657
Ni 7.471279726000156 8.774641589159867 9.28685671313363 -1.1544525731108761 -0.17224102898801952 -0.2746372692687593
Ni 3.0160667140427977 3.9328523361532044 10.6082137502855 0.5283758407116385 0.4520683270981504 0.34890898339914106
Ni 2.9738890923348973 1.069477781741205 13.200293589728906 0.3672304074161482 -0.69007971761376 -0.9073425627281083
Ni 5.451200872396644 8.552548903723178 5.6094348047579325 0.6094851465891439 0.4536433848947542 0.15253120926391794
Ni 0.7689393044519187 7.255018555216993 5.830915914679857 0.8937802506626413 -2.12555618024603 1.0475481605471377
Ni 1.9092800751864953 8.188684395058758 12.488157455764512 1.952514766843902 -0.2591893101448053 -1.6184096812268127
Ni 2.1245693268607364 4.298321428252164 8.436858438092864 0.2723597860884922 -1.0396142504120418 0.5567356228012541
Ni 8.47644580368501 8.560856061389995 4.860997492075333 -1.0721104232675343 1.2851206637531156 0.24615535977898248
Ni 2.7765344989347107 6.98354137618927 7.814956741248427 0.06732073673384535 1.6844556650132925 0.4910362237209157
Ni 4.623382524945316 5.256899572046183 4.046400912124612 0.13985284246530108 0.1927787439300551 0.13897506784603808
Ni 3.7231837110239505 0.19329545576321042 7.169717982932043 0.02416425595102935 -0.011444751501831904 0.6029720280609744
Ni 6.683759345376267 0.8088530881598889 11.19804211653554 1.0319032549210294 0.8086844493335621 0.3404505682191427
Ni 4.671501689885112 5.315636494798532 8.839077992271703 -0.21334679788939387 -0.3837728851558616 -0.06194018914822236
Ni 3.992020204170831 2.7374835226621133 8.58962945153816 -0.007273907953593924 -0.017954784706207788 0.12438431451605676
Ni 1.4867611652035009 0.2856387739685604 6.227028882759246 0.6381290355780816 0.2654959690891234 -0.9579447011556922
P 6.3368117306359935 4.968762232443838 0.2938349861521892 -0.5119076678532861 0.8501771692607101 -0.5263048171152226
Ni 6.808595936583456 1.9480468109649747 1.7668544988222923 0.18833999143241112 -0.8334400590116872 0.060119076779083555
P 3.8645796032755895 8.257791511322333 0.36313373552308986 -0.037333703453451834 -0.5390708585316394 -0.1043523355658461
Ni 6.010604502918171 4.162793726846842 2.342458003698932 -0.13286586962450667 -0.0020005753697965546 -0.29446561684859607
P 2.050547600763371 1.158536746882257 8.32187765679303 0.8862880560506542 -0.6371551017005865 1.3443401115360654
P 6.733583953280774 4.203660174662519 10.020022976043512 0.26925440769029113 0.27838516634696575 -1.4578463456870376
P 5.773263690329255 0.170097763823865 2.6409957946715523 -0.1669101036934093 -0.52837506938069 -0.1611516039430773
Ni 7.430092361497571 7.612253842034715 6.956598128061299 0.30676885969598133 1.3030533369721364 -1.297135943046437
Ni 7.5504544571844425 7.769750582920934 11.961683544939019 -0.004234606906637868 0.4710155576246146 0.11442514642081583
Ni 8.610836543113857 6.854367825184725 9.988391593572224 -0.16169590648232152 -0.6678643578589852 0.4234421787210256
Ni 4.592070225351298 6.488247730663752 6.432929029079381 0.35784999464251277 -0.26744435106474584 -0.9698882466708136
Ni 8.52437241861266 0.5169115104604565 7.000963484669093 -1.4500793001471093 -0.5869928790238987 0.9431315474022596
Ni 1.400828845497752 9.287603990561717 1.0768772036364822 -0.3175474383687241 0.6044236729058364 2.846650601073749
Ni 4.510374005912734 4.10103101818936 6.47661037469165 -0.9824827955063725 0.4167097450931984 -0.5591056656953274
Ni 3.255809817259424 3.880524578090815 2.439255645518564 -1.7577048514164306 0.2890393036267022 2.167271557706945
Ni 1.1505871820951372 2.612381029057201 1.5830031627023726 0.11079577719834466 -0.21444054517420488 0.02615994622481946
Ni 7.547217783170772 5.970636621825837 1.886009030861571 -0.02393748465220393 0.31977427081671383 0.8608158799214788
Ni 1.602199482008386 8.344961652534728 3.6858363439064243 -0.26963493095816143 -1.0831458551460893 -1.0225644940186067
Ni 6.509758317734782 3.551456607335413 4.785980924248552 0.41961817698924503 -0.343454388042473 -0.873724617563347
Ni 2.5163260801415555 8.52032886835762 9.958693963365764 -0.03567971278979662 0.3691325095348675 -0.40765123443535595
Ni 7.177494252708232 5.758088915562609 8.00865838584678 -0.2611559469528728 -1.8945214781585695 1.4328181990738162
Ni 6.3776598403552756 2.8398101005447596 13.046610255987972 -1.0033408699023043 0.9368446859522832 -0.4533387091701418
Ni 1.6457432918976949 6.258508059030456 9.721095500522503 0.7040773174444326 -0.5286398930063025 0.9331384407452897
Ni 7.69000737074841 5.22522051052427 11.856391696869341 -0.9375453115637337 0.947867005204716 -0.4931555840567636
Ni 4.799914209889276 2.4974470099031714 11.093877144489321 2.556179707206843 0.2617413871426976 0.9612138588252671
Ni 0.8194222500169969 4.487038778250429 11.026294840940968 -0.05024938307385539 0.29064547177155753 1.3877871269761066
Ni 2.3162024341857634 5.260090400818868 6.4948485284610395 -0.8726786927973358 -0.241257665367049 -1.5663322438052831
Ni 4.104102649335479 4.9069261714007775 0.62475510464346 0.4214557444186161 -0.3688887689551776 -1.310668173204917
Ni 5.213465790735242 1.9299379407751693 5.870235544064638 0.4799686530528443 -0.33270280595292373 1.8012043173609622
Ni 0.5631024245643459 2.416548497657778 7.466806147384659 0.3111559330200835 -0.23300159600584391 0.2051226102073887
Ni 5.31902904263156 4.754710802276243 11.547292996182993 -0.9200170728719832 -0.0001833196553996843 -0.18180964651306109
Ni 0.5004659056136541 8.509637758159487 8.574613301305329 1.6796618431690749 0.2800047042282597 0.19687656814851254
P 3.0429411943092886 8.007641538401693 5.262491774541758 0.2601359903287907 -0.8054093781267162 1.9693122980172149
Ni 3.501036011298077 0.7480778859932631 2.283249791869237 -0.37175966274506944 -1.849216326463867 -0.46335546997619553
P 2.9107877026405986 4.021819610812283 4.856394629880254 1.5513295997488639 -0.6365359800593489 -0.4880187770508305
Ni 1.6559484425413673 1.4305457307054272 3.7548279301627137 -0.7882410938775456 0.6337460760190375 -0.6639123151897727
P 6.440348622880693 0.6842998205419988 7.3038088944848365 -1.6876841992529195 -0.3081785955593144 0.9156037742956361
P 0.3246108964266607 6.506888405649005 7.864301807932212 -0.3393992441364929 -1.638534477001146 -0.2796108112239507
P 0.020288352946319994 8.507528877074092 13.231038325239506 -2.549361655843745 0.04008349828444709 -0.8690089572552324
Ni 2.766558574495973 6.534478071674891 1.8733814176841534 0.2595860313625916 0.11588861834021978 -1.4672342146598407
