# total energy = -381170.9299130774 ev
CRYSTAL
PRIMVEC
9.20272690846449 0.00000000000000 0.00000000000000

0.00000000000000 9.20272690846449 0.00000000000000

0.00000000000000 0.00000000000000 13.46912105642683

PRIMCOORD
 96 1
Ni 2.9807815584618758 5.7883125855296775 10.316201327396595 -0.08664437676312176 0.2682089971449123 -0.8139464690634499
Ni 6.314045952016485 2.812721364882859 10.370199246126429 1.463727487058163 -0.7173591221550033 -0.33772082799280545
Ni 2.516467189453239 2.6108687591462383 8.067572134108202 0.1827360149820724 -0.293393723940656 -0.4507915172682559
Ni 6.508812458253826 7.2703656944406845 8.690101619755168 1.3855237848632267 -0.18938771597063514 -0.059459331707897606
Ni 5.655084712216599 1.83615562388929 12.470816385782793 0.01662321037897782 -1.9553743477798842 0.1130496062295279
Ni 4.892132661583131 6.909830473553314 0.8619025280959408 -0.16651543935815194 -0.14319707634718565 0.9264422596720367
Ni 1.5559694091424523 5.5280686793736695 5.134226950294361 1.6523677833398123 1.1077469415242212 0.24045908072515365
Ni 4.017818416091504 4.164684730259039 2.2842952805863246 0.9672906611469665 0.6935625339560377 -2.8983341454909697
Ni 4.634198639809355 7.953861403415997 10.032016527932306 -1.0936359560441358 0.14376631858709435 0.4636076951963177
Ni 8.075153340299769 5.722098967481214 3.2375054216848005 0.009078051041868236 -0.009342874667480683 0.4192062862628071
Ni 7.554812771613712 0.3977455257125478 12.180798898185202 0.4067942857516994 1.863073029841301 0.776138911297373
Ni 4.534689556840901 3.4772502542893213 11.83527608523702 -1.219192693601739 3.4334383060653773 -1.2193952965308483
Ni 2.558919367362559 2.6229427364748807 12.63775292644121 -1.3946661134841272 -0.12828724911488876 -0.4038827685318592
Ni 6.996345306530881 5.2884388808519285 1.0992942235031038 0.7253084589090669 1.8424352989862913 -1.864996472116259
Ni 7.457411113041796 8.998021171451395 2.7321570149393617 0.76837880773598 -0.2768931551824715 -0.32486839751016955
Ni 3.412297409788133 9.088318325070786 1.1743028873846333 -1.4995020735546112 -0.8913945240392842 -2.0530395011335414
Ni 7.761469200647246 8.828865853404308 7.331754322921 -0.6001957508674179 1.040334416407518 0.24545730527069337
Ni 3.3289851256751746 1.5668470320101773 2.88939572228305 0.8849569959440566 -0.5298215720192295 2.740778743539583
Ni 8.396420526689184 1.9090412187390224 6.52908882582105 -0.33866236597046834 -1.0889660613722922 -0.09247769561544719
Ni 4.740370496852457 8.650655052360738 2.7917446698196664 -0.15573094714813823 1.05367124272574 2.0675407800735104
Ni 2.1176302203632695 8.451958981855615 4.429603621539248 1.1568102747097755 0.8296461391868938 0.11312879620689549
Ni 6.74404335345004 3.937377382684747 2.716923741561235 -1.3984096396869594 -2.530102550503817 1.1748848728232992
Ni 7.142272942582928 7.883994302898425 0.12438497330157441 1.2287019186437549 -3.1778955915342237 0.2437434079033802
Ni 6.074959114365469 1.435441298568343 8.317141797654841 0.190021235789576 0.4746166447123117 0.7615111340818691
P 6.016761071205152 5.318172890569036 7.596678735837182 0.09738053223370326 -0.31693937247107995 1.4485708339223826
Ni 3.626592101918293 7.0510279081214255 12.181742177664 0.23281184859254095 1.6839095627018354 -0.3015978570180032
P 6.158648710269947 1.0302728535621342 6.259302612430234 1.172393216749697 -1.245045907219417 -1.3875521281471652
Ni 2.1931754032068875 6.654371985240975 0.5918227477258677 -1.6629278182438458 1.3988683244909328 0.971519097406017
P 8.735577813632624 7.804225068535107 9.041550988648202 -0.3865666458509149 -0.7744077875388792 -1.263240832960889
P 0.6399207984180554 4.9351646112696645 1.5317892449419885 0.131996836755992 0.7879965819669074 0.5139717494711664
P 6.087861337090131 7.149975624765911 2.8001357159540086 1.7875440462650505 -1.862230479335348 -0.4300311447924529
Ni 3.9419511378161007 0.46782336866977353 5.0631506114986005 0.880035390272723 0.9991558852866793 1.1093988753053474
Ni 8.982588198905562 7.016342831481445 1.2890489248218628 0.38059114499377034 -0.4064698125327451 0.5967221904965208
Ni 3.7790076602391607 6.682918843223787 7.976211145291257 1.1269834211563299 0.3151102896821412 0.5028861810809662
Ni 6.945288579229579 3.766289492046947 5.631735554230142 0.08757125945276531 0.643626311247227 0.08300112358357964
Ni 1.3194501322190968 8.83023705967105 2.134653424069461 0.48827254493284933 -1.0353827288291975 -1.1154052294004275
Ni 7.633017542451215 1.941628073709086 4.105145849829833 -1.5058131033743034 -0.21019385408270896 1.6633631060090515
Ni 1.4057072888512359 4.2230392197719375 11.575833736569825 -0.8994227936603995 1.1850430443032238 -0.07460827153419408
Ni 0.7233849275202837 4.040751610834627 9.20498589182678 -0.3578240265005837 0.2475661240835801 1.9667766760795546
Ni 0.3796529651728288 7.406501629366453 3.703078723695387 -1.432229930670514 -0.4312490763599541 0.08410566950166806
Ni 0.7207060138004913 1.1774520604348326 3.6690286351923556 0.8852431597259076 0.11556311668000097 0.9944530804943712
Ni 8.799904872723486 5.87254514230488 12.48396248076295 0.17892332610420153 -0.18763062407021236 1.0257953422510786
Ni 4.985945256772294 2.560861142679894 6.713643066325469 -2.2746038018367214 0.9505113848060984 -0.835621125823406
Ni 3.449991778033651 0.558797842968576 12.016987603487763 -0.645033990228031 -2.4432666265551792 1.7451141592356139
Ni 2.806592348952313 6.552893518775319 3.059752916427028 0.07033818340393047 0.20289474931813445 -0.25717253682509256
Ni 4.356009416739587 7.1402667481792355 5.322551547895992 -1.5354972607022974 0.43152829816326976 0.45218428385072446
Ni 2.4775764667468034 3.289882740256423 5.542031056205237 0.953931466231241 -1.3163217719462685 0.7161221644241086
Ni 3.453976558661168 0.48821753113776495 8.599723482141501 0.07177722984330218 -0.9491744111622298 -0.8350290007653619
Ni 4.82060907027352 3.5412368124951534 8.908220044796954 -0.625017180786472 1.3019935282490545 -1.2238427907792406
Ni 0.5785211266657916 6.365894113807318 10.351369547184254 -0.4492735379618327 0.019010479664231777 0.854628005943212
Ni 4.003959109798108 1.7530826106685153 10.363963478567063 1.7750040048165108 0.6963586086439363 -1.5055711625668264
Ni 5.608721375492742 5.560499087991151 4.2313649265472595 0.7876327708695855 -0.6308957510544361 -1.6828075878869084
Ni 4.41012144927954 4.719185820167597 6.311858463898331 -0.20750370884505556 0.963802959708682 -0.14764971280190056
Ni 2.4037890046880714 8.258425640985681 6.703312085419116 0.976809656380995 0.17802164022553857 0.2316833914150526
Ni 7.530499167877222 7.421106356516267 11.264400583849152 -0.3978154792918568 -0.4438816775223 -1.6477400547598138
Ni 8.273094787221853 5.679748019564741 7.563073139030015 0.9901523962364882 0.7044984641422511 1.823037868296286
P 2.916491310277503 3.671786692361101 10.05234166995063 0.11417600652448724 0.34085474563609686 -0.40139599755426353
Ni 0.3024144806306817 3.342973270141285 0.15692029300255222 -0.387220734495146 0.6142537716223808 -1.0093042865745907
P 5.278398706106846 4.148957270461288 0.41215239423997907 -0.5028506998573404 0.12354844887832271 0.10025965355371119
Ni 6.832647205370901 3.941408176945376 12.303772173222892 1.104615337873775 -0.8765181211480839 1.546637593589833
P 8.446253291349702 0.12050418348489107 4.880037517983256 0.5808399720486255 -1.9546778359334918 0.8188907004426026
P 1.9312197898991055 1.1004804549647362 5.989987578642484 0.24608414022141492 0.1669252732020609 0.1595670330647768
P 8.958513866061255 0.6657694169551677 1.0874898860644986 -0.8445629083977262 0.7897883837600076 0.16481465461696132
Ni 8.716988305855292 2.7902851173773477 2.3958332475229716 1.8450403407093063 0.7591678306606732 -1.5252347024340247
Ni 3.2695079035143384 4.9745614839403345 13.20059996912366 0.9733330106863043 -1.3636208141425483 0.006149050320531346
Ni 7.523597122910393 3.6181716070587595 8.103426877301894 -1.7586834132796165 -0.15950172704448015 0.46304925158968646
Ni 9.058391058094607 -0.03615659262690833 10.551924568467108 1.2719064790556869 0.6920005887855566 0.06012987541236096
Ni 6.014175105024247 6.009665768979251 12.408764240712998 -0.9542837073643371 0.7831726782157028 -0.6034967902161928
Ni 2.133100003815593 8.344149039473718 10.056920946717955 0.23196904097627144 -0.1294866687396286 0.7841486689757269
Ni 1.3925565925077679 6.805968500892445 8.190302457163062 -0.854874060515747 0.8158575700432336 0.4044748935899034
Ni 6.925456703358218 6.365249922943747 5.888376592913465 -0.9860471158188631 1.3119604096537794 -0.25193211436175966
Ni 0.4714658078669357 3.8036709675873026 7.070708859276178 -0.38262643025624427 -0.5916776860940778 -2.516378773159821
Ni 1.0127600647996289 0.5783803249484681 8.208580912780555 -0.38279740861646977 -0.21722093613281948 -0.6420057449246686
Ni 6.26165482935493 0.33211075916863647 10.193982675941943 0.870597641898591 -0.3833221707716882 0.9263268171400949
Ni 4.936268938464358 3.153314277179399 4.078396284356384 0.409952628875023 -1.526858611190693 2.0865155214038
Ni 8.662397731530973 2.610399420088494 11.372759929010407 -0.14804206314431276 -0.02473118419809289 -0.22303959969712553
Ni 7.321505246281588 2.256020823311537 0.5174877234331007 0.7177190765975834 -0.07455402125749094 0.9340247000049849
Ni 1.7672548096670746 2.014476857652329 1.43373419277988 -2.5724591610931564 -0.09070312021352767 -0.4486641865126079
Ni 6.278063290922741 8.517850504472293 4.879700698188875 0.3684375403503719 0.22398345166763362 0.025784308052955594
Ni 8.30207417335592 1.7803502896508079 9.118486703484471 0.6401761479150975 -0.42286702294384587 0.5788411964510417
Ni 5.944031922708001 0.24911688939681487 0.8196325641737449 -1.9662274884443043 2.4781189583476744 1.9396335400058595
Ni 3.8439513020137266 2.0792088367145785 0.7909890775613975 3.711440892261943 0.9731458343761626 -0.8085669499190913
Ni 9.150491946131996 7.471408460234529 6.2093722988675175 1.5157681577044864 0.001956095285106309 -1.175856235597633
Ni 0.2631795759485669 3.2976130306192735 4.644044637022705 -0.6375952745617988 1.1472185172562823 0.9456769395319327
Ni 1.693577780327812 1.9691626317634294 10.4149438232374 -1.5838301434797304 -1.3519210092071168 -0.29622399430059954
Ni 5.437081321257596 5.768011370600573 9.954488157501551 -0.3462409496486747 -1.513406342340529 0.6689665897842285
Ni 2.007491988145896 3.860405777214651 3.2331414887204386 -2.052964424921232 -0.37114311220699303 -1.4668328654563643
Ni 7.712547505922351 4.808627120211102 10.464657872724487 0.8674871212940674 0.8944515656980531 -1.0905254354396121
P 5.486757639565532 8.8177489596444 12.288080604058969 -1.1740374372213394 -1.3750336839651802 -1.2313948920948858
Ni 5.167036511248687 8.570315248946828 7.3476750399778235 -0.6883097701975308 0.08391900741215869 -1.149393927641046
P 1.180820258378646 7.843888820277828 12.314480465920767 0.4838525614882828 -0.5374574912979324 -0.7410675215155366
Ni 2.343106225339696 4.911946132001247 7.577309757114931 1.1806914522027472 -0.448830279776827 -0.1357755870721339
P 3.5893670727305196 4.868904979588089 4.256848196837462 -0.790544802310058 1.1895733280734093 0.9034596827339344
P 5.943396934571053 1.6350300335558425 2.8917120485739183 -1.420193311220954 -0.7349215565187988 -1.7300102137146398
P 8.765367039709464 5.277938569775724 5.39123149667927 -1.5146828950601074 -0.1032048522249642 -0.04088234003665863
Ni 0.6873728177013478 0.9176563270653373 12.639113089436007 1.033960137450058 -0.5296912170889523 0.1281301547117342
