# total energy = -381168.8024477656 ev
CRYSTAL
PRIMVEC
9.24054431267883 0.00000000000000 0.00000000000000
0.00000000000000 9.24054431267883 0.00000000000000
0.00000000000000 0.00000000000000 13.52447065013448
PRIMCOORD
 96 1
Ni 6.4910203236106785 0.5516706576153655 14.039482330946019 0.2844033475165876 0.019012793657076935 -1.9198494154003967
Ni 8.250244382589004 5.348935254357833 4.840570407471489 1.4404988555475255 -1.595326059934472 0.8278096001987872
Ni 6.178144735117357 7.965728024465332 12.070509005654683 -1.166962275542113 0.21150485958464862 0.3258713848533872
Ni 5.2760828033202545 2.2770087166951747 4.472218287388974 -0.8206922724277156 0.1264090582555694 0.7330911881782795
Ni 8.271109531554359 4.009000891704988 7.648980647922196 0.6812734321760396 -0.4018405412908499 -0.1139050122512877
Ni 8.702578265229857 8.100288830148896 7.386308012402245 -0.3851121727925755 0.11347486669240457 1.2872842470633379
Ni 8.045825062211874 8.736398657264044 2.049822543341587 -0.07848292399825194 0.3066739859893299 -0.21929735904587394
Ni 1.962017043563648 2.957778094275139 2.9926269588867593 -0.05746698386821715 0.34523230587850223 -0.26695764123631444
Ni 6.036126810206584 4.538576483912446 8.635050215801595 0.5599613288274033 -0.8004620614237699 -0.20170535699572362
Ni 2.2101995816112465 6.6116741101654295 8.875122328141979 1.1431973119120311 -0.21375586040235442 -0.6291013781581747
Ni 7.753768419962547 9.08760402339611 9.405972191404494 0.08085039578916399 -0.6899161954527021 0.9729337183653567
Ni 5.226719815821176 0.7886093013932374 2.270690956576657 -0.7251133121791253 -1.669392600032583 2.832824236713618
Ni 2.6495689806389935 2.5967685106708656 5.232955335095675 -2.0230223859461614 -1.7576981665482112 -0.3583685861501441
Ni 4.179045387391634 6.539450016138322 11.766600441322556 -0.8585556231323923 0.3657188558676282 1.2892434276722378
Ni 5.920019371433479 7.381429929081248 1.586636565508126 0.2522254772324624 0.8373360516319838 1.3433813471672218
Ni 4.787997254892444 7.226216506950579 9.503334262068158 0.22683634773539643 1.1300821146863118 1.239781059276052
Ni 1.367498906215134 0.46963587773506293 0.09139360311861544 -0.3732974395458345 -1.5958474796555806 0.42468890664393316
Ni 1.3815168118752055 4.258024319281306 9.206783019085108 0.2712033038865458 0.0038569118522449705 1.1008448150877492
Ni 3.385180988471117 1.3263045598521805 9.119307406737667 -1.1770194026677987 -2.418191428754106 -1.2909802078576864
Ni 0.23743301289640445 1.4976796939139412 2.0357436500893225 -1.023882698609398 -0.20664727438203123 -0.26696843986959184
Ni 8.429150560232149 2.0060759586508086 10.376339302403101 -0.3269705314548369 1.838373984432724 -1.0244375426716037
Ni 9.053164514895723 6.507339124794387 2.995278071038292 -1.381523148344266 -0.7263425566005361 0.44853691690612424
Ni 6.55016904749342 3.132304253933527 11.244745323854051 0.47461175961630514 -0.028290619414577084 0.3663037818368207
Ni 6.455970939188363 4.9827047632400845 6.0880679095574495 -1.4386538319189868 -1.3113659706028897 0.9466724706759825
P 7.509411467243406 8.190476542240063 3.981820754784399 1.0413823980560581 1.9906737944121264 1.1192783392025887
Ni 8.485952185869895 8.225174785980055 13.343093661383708 0.12294269697352374 -0.5009797080868726 0.546991913150929
P 2.1567430329998327 6.407679854824794 4.411276897917534 0.8001082776287769 1.5583371414149483 1.0682434841129602
Ni 5.922643686006622 3.3437371474128295 0.37890574569515095 -0.5714485035313964 0.08257457756912231 -0.8237909659576974
P 7.3672826558013735 2.4253379333434752 1.6149708464082437 0.9069890360434314 -1.1737852120012173 0.5216238666997856
P 5.854605558534566 4.370500224155659 4.053973696620614 0.9099432335757489 -1.660343088235805 0.8283009380129089
P 7.111966417576072 2.3069111179581885 8.597005970980842 -1.4122462884597355 1.455451620202616 1.2730331364609624
Ni 8.379186937355412 4.092720222806011 12.757321699188296 -0.7551867345257381 0.03163279641393262 -0.7699392102445644
Ni 5.447347050850755 0.2948158687688366 10.19900586539499 -0.6126812849289385 -0.18903521772722282 -0.6437178425197688
Ni 5.622048780850305 9.279816584790412 5.542274238098845 0.6647674641012165 0.33748531494323164 -1.7811795374996033
Ni 0.11625621153587914 7.069127254332768 9.582899044464654 -1.0408697200856978 -0.5064857255067664 0.12201838538704148
Ni 4.4223396775195365 2.8955522691499422 2.4283725280822805 -0.6262847346449859 0.4219105725678476 -0.06432411599936665
Ni 4.662150282457033 5.2271910835790285 2.5377047997954225 0.3627834273883881 2.034050104515232 -1.0278681656197073
Ni 3.8466630099408885 4.400282498343142 4.715901604430712 -0.7775591886836672 1.9284117031481114 -1.2094669816735428
Ni 2.6695377968099985 1.0277980177012527 11.902156453624174 1.3814943519888594 0.5479262520397402 -0.39612240786015007
Ni 2.5868903688444864 4.5651245676048555 6.743882273277434 0.6762104158308355 0.6996344511817305 1.985100156979091
Ni 1.2596894761979571 1.5731472189803921 10.192838726148102 1.516643618330904 0.811803454578518 -0.3173237523936922
Ni 2.401635937286729 0.7027563286198949 2.199051789001945 1.1883723657867726 -0.6420191146611073 0.23882514466615642
Ni 4.469032147724113 3.151090280437763 6.4799252021037255 1.7772002411368812 0.31783617325373653 0.4306484666614777
Ni 0.2567152566280272 8.843006816525907 11.292148391913116 0.1184782334442669 0.5637552486521968 -0.6092817723290862
Ni 1.696887347321869 7.487012387928961 12.567371223031694 0.33621776108471774 -0.23047831536335792 0.47667558412386934
Ni 4.741637444281645 6.158776554324008 7.52465004880176 -0.7253089731296992 -0.10857305851541302 -1.2112166173747978
Ni 1.32748734951895 9.100272809592525 8.639634449814753 0.551093079803496 -0.7376839497552844 -0.45569872476188616
Ni 3.71975337491424 0.41684926858334254 4.198725898581364 -0.8461207398031492 -0.2899224775626039 -1.2224716214633269
Ni 0.6121352350023882 5.604537949455556 7.439243394316739 -0.49804222272510357 1.4137192734608364 -0.910303188018329
Ni 3.9293751217163018 5.022143406191427 9.93847056776507 -0.6083302070490942 0.16744849269538256 -0.6491572683677852
Ni 1.1075531553097426 7.64188390992158 1.7106160239462387 1.7111763688375883 1.0555993129863885 -2.1740566989495784
Ni 6.543414209630854 6.424451442677814 3.9942770084625643 -1.834860571962827 -0.36336655358536774 -2.8337884003991003
Ni 0.797209475946849 5.433449272266215 11.666357168954995 -0.23633991635045748 0.8981585822359951 -2.9996932027564465
Ni 2.4233789379578883 7.8533907277550545 6.151592031152811 0.3110651730784901 -0.38947096398190345 0.35296129909164375
Ni 7.212337209454582 4.5597650519273065 2.3511206539169764 -0.4300545418312206 0.7002926535910197 0.14888075699552425
Ni 4.639390821915994 6.811094296091604 5.19581758766797 -1.629854689838961 0.21361239284595468 -0.006754030894381916
P 8.354052656936563 6.041125944657539 0.8716485284358668 1.9650329539155706 0.2227855747047905 0.2786484473106814
Ni 8.236124830941943 4.670586899377037 9.994191973777461 0.32290047515052134 0.04330869008996412 0.407807300397246
P 4.309632759038393 8.473412767293283 0.8435933119727529 -0.7708609507278854 0.6625894826132911 0.2725060818583694
Ni 2.8985924082153107 4.2385544925009695 11.929597173893224 -0.5522225654222489 -0.2415492284655388 1.0483336325629107
P 5.020720362373595 4.405318594971184 12.001980205281802 -0.43525254109239236 0.01617121044322376 1.2022342113705293
P 3.870244878922103 3.5718861854795216 8.393462654200663 -1.1896738582070157 -0.11553869119996878 0.533941507724874
P 4.986465664758641 1.2920498622372263 12.026974029427723 0.25687608863059636 -0.06717881183934236 0.8258357643018681
Ni 6.176546120958363 5.637859352099074 10.828502234974929 1.1568506410294075 0.8894212023629973 -0.5862701419252614
Ni 7.121835318858179 2.4739062340351934 6.297291388901403 -0.714121589054312 -0.035043364757378355 -0.7213070510591578
Ni 0.8423098003734226 0.4408709874718874 6.033144886570127 2.5340093417573906 1.3632508323976393 0.6223380912924121
Ni 6.805725539869785 7.240068082813761 6.064413040276489 1.2883450842276842 0.19958342555671435 0.42902738611828695
Ni 3.6939260536750176 7.503968786667412 2.977993632978197 -0.5463797334882268 0.3261732323645221 -0.17786403160175174
Ni 1.2628959450602149 5.221295616333726 13.761283732940864 0.5072696548606426 0.9596187464240055 0.9597933243286567
Ni 8.02874853639789 6.777708209638185 11.619589850341818 1.1445530546089773 -0.7829657044112193 -0.4693862495513077
Ni 1.7734914593337314 2.4007580855809234 7.79718142100512 -0.4038323749098981 -0.0558063083363426 -1.2708417852365985
Ni 7.255176372697886 0.8174749135889738 11.703616891567085 -3.2740643628480135 -2.27750143509949 -0.9458242637430743
Ni 5.307796351260509 1.4758165661672504 7.821079316600425 0.7551206571744931 0.9388097800984541 0.7884238993123132
Ni -0.06133411260298367 3.752298571838942 1.3697720801059563 -0.1147611896039959 -0.20646395472663154 1.3880660916691063
Ni 0.6540706730159266 9.03529330227438 3.615686365327076 0.07055801272422042 -0.12459437364433382 0.6372453474215477
Ni 8.014767592914906 0.5032843956457982 5.468917253344035 -0.5560486240365585 -1.4673684262448599 0.5481406820433915
Ni 3.274220532857312 6.523038809511897 0.6620212373072422 0.546908095187871 0.28884364267612833 -0.1330417330807386
Ni 1.185062840660225 4.567813565987902 4.947602707715421 -0.16244229773004282 -0.24152943097119695 -0.8735346130397279
Ni 8.56607694524925 1.4353245011689417 13.108999257132645 2.4148376817905253 2.3666626647471953 2.473725457265669
Ni 7.0877746726729285 1.3810917468387103 3.622123328466697 1.1248339789134951 -0.6150736964205149 -1.5348231174534084
Ni 2.0183289203549974 5.404775863391329 2.551459349943753 -0.14579980407735535 -0.212481364565305 0.19557636127985029
Ni 8.781196815892935 1.3789756622005056 7.968698859448664 1.755642055350131 -0.37189336010945634 -1.5494218412031897
Ni 2.7732629062591125 8.19904252677987 10.588037399503 -0.2426640587962724 0.8202245887626777 -0.2850322393498382
Ni 8.811080736067405 3.041183246870925 3.8224888220718616 -0.10641127497740384 0.328742278643279 0.10255204913231371
Ni 3.6529349992860403 0.8254809211459192 6.330493588523819 -1.3971004339572326 -0.5437476951820185 2.4533893168114784
Ni 6.096874148248319 8.677286895558389 7.617225517532718 -0.08256506448742554 -1.2130035340718917 1.9870670508974748
Ni 0.08840798326444986 7.433158495913866 5.345006174933533 0.4206473895847078 -0.6233307942229845 -0.6756789688073976
Ni 4.009398235108669 1.4626765122129843 0.5414404510522374 -0.5181636760653269 -0.44244031709008325 -2.263581739694605
P 0.9284252046040796 3.252736267425759 11.68319528872677 -0.3380185617388824 -0.7800480165437921 -0.10319919579800935
Ni 4.426156022303722 2.688665723452285 10.380004102261232 0.2820955253190174 1.0240187099666298 1.4198079028570774
P 3.483491138977052 8.3741416001831 8.196992050005994 -0.3362565847424531 0.47900628913957505 -0.5962442224188377
Ni 1.8096774307014576 2.73670731312052 13.96198743046637 0.6918584067807375 0.4943575747846648 -0.88746716396042
P 6.900977070221808 7.0356949651579885 8.967724594451324 1.0567393401281027 -0.4274890950968896 -0.28019188053840133
P 9.420365263161994 2.7916793109924827 5.912370972939845 0.09687016825618801 -0.673054643810673 0.9535476005292609
P 3.3298763310053756 4.295051180177752 1.14237707045183 -0.9812026432423682 -0.9003411917096107 -0.8621569673304054
Ni 6.464259707400021 5.82417644624807 13.681760532993591 -0.8740933137566751 -1.325894503236368 -2.1662629139367726
