# total energy = -381167.17279458523 ev
CRYSTAL
PRIMVEC
9.27825216415533 0.00000000000000 0.00000000000000

0.00000000000000 9.27825216415533 0.00000000000000

0.00000000000000 0.00000000000000 13.57965990234025

PRIMCOORD
 96 1
Ni 2.705723959390617 3.556307746432435 11.081762790297473 0.2383692880756604 -1.144640472116461 -0.06600227503273794
Ni 3.2323946775541486 7.370949873913196 4.279032576535831 0.41143204163402697 -0.900213664992811 0.39912159969779004
Ni 0.9316849911054393 5.036439514039961 11.438025413927871 0.42995478302856277 0.8819374923914424 1.0946155463485858
Ni 6.652544070293224 2.124933195087845 12.061806960638696 0.3431566542963961 -1.3447764277425356 0.3314717617593001
Ni 4.656096114179528 1.343296101490344 4.800790460063544 0.4197205068950643 -0.2248578838527869 0.14662718507465716
Ni 8.958996994965863 2.0514030449672402 2.0269001082538645 -1.412647380552896 0.4381833415859422 0.22064847375712968
Ni 2.5255310198963263 5.611013849247364 0.4937876638995018 0.04670923113108085 -2.0629917272502474 -0.82388044034771
Ni 3.318858711494074 4.908455300694396 3.770093526497913 0.6386913358394549 1.2913687015453565 -1.4545103393352694
Ni 6.917354671503593 6.289653063161732 11.715824640646613 -0.8496650055109819 1.832243188944638 0.822226706794371
Ni 4.336348980620378 1.8982840459211416 11.824027619915569 0.041389618690380325 0.08362795853430113 0.00763026285174815
Ni 1.061088777065322 1.6088489628912044 3.8431931657080325 -0.2633907498206625 -0.30921577857457716 -0.4818486436843765
Ni 7.837135664804018 4.052183944942933 12.104080534137688 2.9005689483587593 0.350044639665481 -0.6172416506061111
Ni 1.0042502029784042 3.55498095634193 0.7694315525900994 1.2413818281042688 0.04051801471870441 -0.44812836861379596
Ni 0.18668678833585717 6.2442267395036275 13.716271523536582 0.43391273923504625 -1.7471491873877716 -1.9060158519514143
Ni 7.780918733626637 2.833986520307618 7.298374455962612 -0.09288932923156906 -0.13066706220097496 -0.7590014802861379
Ni 6.286452066090235 0.8484210264117718 9.830532931534792 -0.27454290978274004 -0.04816498974100092 -0.14189686947852337
Ni 2.2009684733513595 7.002241402538723 11.78915530834102 0.4601343919357366 0.3493190743533662 -0.1576801004547091
Ni 1.777648208461445 0.26253186242555815 10.924483422883668 -1.2502714172844145 -0.5881056524721032 -1.2046950142061963
Ni 8.75245381870911 1.4005058056725077 13.192463146232637 -0.04771710357030492 0.7785734888807946 0.3083254055498238
Ni 3.237683281411403 7.915935862277115 6.915401599377361 0.02223618569038106 -1.6183281772565998 -0.8932922552826293
Ni 3.41953702808192 1.6930305467453675 7.333627175884786 -0.3636601735663866 0.16366254329038912 -1.7085409880972706
Ni 6.719635113261311 1.0971811788279906 3.2925381651392316 -0.049332784796856974 0.1806575351864889 0.5920957474681029
Ni 6.055275129761531 3.172624175714788 5.539972126415384 0.5478120950593791 -0.08553211753554947 -0.5664078557836955
Ni 2.539253555168045 0.535309698955619 5.297004386960716 1.1067056447439003 -0.9893196159225478 0.05599631285996162
P 5.751375251269383 8.901193482631308 6.169361448865375 0.005558210814067847 -1.4202442190635478 0.23679654427190186
Ni 3.7167194518501163 3.145513122257071 0.18509649587772825 -0.6537268900163385 0.19038581821784634 -0.1743346782922546
P 5.6250704016048045 8.248329253831772 12.254135854247531 -0.047778295825543514 -0.36639711288157545 -0.3040704869282118
Ni 1.0833936957896035 0.1774744115466145 1.7346657764805347 0.9562883964991917 1.9775951068512976 -0.7208902752367133
P 8.356949754457881 2.315972411615699 4.445953903824127 -0.2997803441932902 -0.0074698260144839095 0.16925315000428914
P 0.48841184446986413 3.029470019726043 11.371634879014563 -0.47149892501893637 -1.63242425033835 -0.24703416283951
P 3.028495803226022 1.2547722955218032 1.1130720416811841 -0.48551246568920897 0.5371430453813072 0.5510663403306186
Ni 8.507480121089639 5.820424005489892 10.253715878289466 0.8882989158330961 -1.2673134603683658 -2.1356932686800314
Ni 5.190820355409897 7.3026526581355595 10.136320006561265 0.7857460953698339 -0.16275340121255844 -0.6171601466358984
Ni 2.5362845144060775 3.86220244918653 7.709200626196072 0.49717370407722117 -0.3294472751301036 0.26488404653673736
Ni 3.7906207320659666 1.5682009392093914 9.535053067078536 0.3352636247015645 0.8937864213102283 0.8866570093542987
Ni 7.704939124877409 8.525897452066218 12.877958225268834 -1.1267378808044275 0.009373470795099984 0.7577426681783724
Ni 5.172152511619025 6.403970410749866 5.84497054998946 -1.485229622795997 0.35682875246685 0.0633488965702909
Ni 5.283435870678525 4.294392723352823 1.418300565914313 0.7403771803167314 3.8849852134424183 -0.9024541242875554
Ni 8.051639581603798 4.453524029941906 5.150032230117128 -1.061490995880475 -0.26816348861895756 -0.11287271433203143
Ni 4.935482849880681 0.5177515341495329 0.36533768228440133 1.404319320303175 -0.4345115491613098 -0.14287543134170877
Ni 8.450205469140807 0.41264934682635535 10.7074530379605 1.4173478713523588 1.5445634846696237 0.8969334515796423
Ni 0.8904635714264713 8.568818647581413 13.104494179756488 -2.791293721569999 -0.006871016088220425 -0.21162724409512587
Ni 1.2474981456549825 8.51895731928512 3.842989971980885 -0.026466935942277 -1.3324909255069632 0.3312791861325198
Ni 0.4042553118971301 6.118209515662864 5.138489156329741 0.5236473248877175 1.6243314460278866 -0.5551135138167987
Ni 8.285488654618273 8.56960729903381 3.601516031159582 -0.9053113912306925 -0.3709968164371159 0.1593618590325062
Ni 2.339019590530473 7.42590496276674 1.7576971823662604 1.1852929555305005 1.5340664417930419 -0.4204627843777275
Ni 3.925099722078338 8.972812312761395 11.145166655769291 0.8302362073624089 -0.24453119391199823 -0.6855718024410774
Ni 8.473438213103204 7.723115221292081 7.272125352151103 2.039050643053617 0.3617099918185513 -1.2285826194570713
Ni 5.057816607526128 2.6441905895988382 2.6005865147083913 -2.497515874817047 -2.4520281747978934 2.8919094729115487
Ni 6.924480369332315 6.115667274510429 0.45418808273675865 0.05500463837065366 0.638757670301016 0.7608681011812316
Ni 7.95474679198746 0.12424693328644 5.656159041858319 -0.5818419309505786 1.269357230271272 0.8380981266089889
Ni 0.4729431421000128 7.739240823930516 9.063336509943312 -0.7456451135838901 1.1546528620471403 1.6153341276252824
Ni 8.118081146905205 5.860849351114559 3.0943296429964637 0.49025717946304603 0.03237507389659586 -0.6442845136565162
Ni 4.57115371363011 6.903975431569975 13.677433686894332 0.08687706159921812 -0.03043209123761211 -0.47014446787357095
Ni 0.7381434299103894 4.047034514871395 3.642866418546648 -0.2645770568192798 1.056705915787006 -2.121598481149862
Ni 1.5173375596559335 5.930473356982699 8.106731060767345 -0.0961965392279311 -0.5664675053770374 -0.21361830638322565
P 2.4418504616707453 7.66230555518603 9.479336233704501 3.099298510555611 -0.1104695042071775 0.4690805453854308
Ni 0.8100183398061969 1.6972985428406961 6.225840026759904 -1.462248074299159 -1.447759650874997 1.059231767532653
P 7.689481556410415 0.2389743796298213 1.512163078302967 0.4891024970333125 0.9374440100991792 -1.0229930969155931
Ni 8.17311974003018 4.279408345757267 0.822215530386455 -0.7481354841059116 -0.6489299828483275 0.9613377859976411
P 4.477443364580508 6.914088726665428 2.266092526814643 -0.6191697208667595 -0.6280048026598861 1.423555799935284
P 8.845041499220594 4.384373214945204 8.159420400389411 1.1283700170912114 2.0124975751554373 -0.6514247242457233
P 3.7507984728460757 5.176207107909587 12.286455718592025 -0.58985451684241 -0.15022390128697996 0.5613114150973947
Ni 2.521736214672436 5.50258819192126 5.834447156138761 1.4752334308152335 0.5552083875234503 1.2689810778787758
Ni 8.148838553548712 3.2651561867119847 9.78661710736434 -0.05970590050106491 -1.3772851990035182 0.6774797694615623
Ni 6.463332669484457 2.125694011783099 0.9835532053917755 2.053601801394915 0.33967049552000855 -1.129584863334919
Ni 5.729589914678446 5.613778768456947 3.7287032426256084 -0.14660198826367654 -0.11426728068671288 -1.0041677366789739
Ni 0.8719432518484601 3.736148112336242 5.827072801146224 -1.8471833551942383 2.9630639815691873 2.788970472753461
Ni 6.3930127946877295 7.845402587675622 2.176153787357977 0.6295893735381866 -0.20086177804850566 -1.0879851855162617
Ni 8.886144157269085 7.681001233734046 1.5995206079471973 -0.4270612635308516 0.02362663828000447 -0.019507216794992212
Ni 2.6871025068616516 3.021138149087771 2.579754982462236 -0.2715812560512549 -1.0694899549255517 -1.8619684839232127
Ni 5.449896996648715 8.268555844022675 4.183920283551436 0.3933214480762452 0.2901294513670874 0.6883797042035176
Ni 1.5997562755576784 0.13647566992479415 7.703809033737386 0.004386301993153736 -0.46884451811522476 1.5786822807302037
Ni 7.13604308012727 3.5817672709663073 2.9475328451228795 0.7450697006963942 0.3222065344072903 0.4393004859095208
Ni 6.470040845956027 7.2032361838715495 7.681783390409777 -2.3466407130993137 0.6497151977537844 0.801636284237529
Ni 3.407614473772144 5.5560494821414395 10.188805224630949 -0.2848556045626578 0.7579776670073138 -0.9506484246045951
Ni 5.777734766284227 4.399960678945534 12.66208298276712 -2.11454363118561 -0.27113774075593305 0.42226667035568566
Ni 7.65211803407153 7.858215854213988 9.819873147374091 -2.4487217361324793 0.4094862307615657 -0.9123739545044287
Ni 7.385229104327784 6.876539639278919 5.1939211473556774 -0.21842189841945608 0.12857341289673985 0.36499689009993913
Ni 1.4786565254789243 1.9894799885754533 9.11868778017353 -0.873532813267515 0.9476250643972389 0.4694803519270108
Ni 1.8415104196008922 1.8253291474481683 12.55961025216876 0.28238451731434594 -0.09487730619587531 1.119657319808562
Ni 6.652711078836085 5.005403759825018 7.072626225102118 0.7314623943256048 -0.19846011058554852 0.6047190926590682
Ni 2.6700212442279563 3.0240979115973574 4.892289801570719 -0.9087841802706415 -2.7198929012295094 -1.4488343719964145
Ni 5.095727546755502 3.5220617168936146 8.349073446011523 -0.5301696993872677 -0.9320200108701304 -0.9401333840058842
Ni 2.909158921099686 8.894884271012126 13.28203446689501 2.172808428364774 0.11046179089769365 0.3844110329604928
Ni 5.809271546127753 1.2621577844171976 7.390308947506464 1.5700346323575347 1.9625351271943814 -0.27386902364416704
Ni 4.421727459031709 5.7661926203220775 8.053933165592417 -0.45255452270594965 0.5548309495793735 -0.19864780111632238
Ni 6.191786057045374 5.0038264569202235 9.881280332933486 -0.10682599391731924 0.5043295983957121 -0.39520298136967424
P 4.099150458496308 3.676275549720689 5.970229740610684 1.9942571408880105 1.6675884569443087 3.1091180677491943
Ni 3.7172204774786985 -0.038081659073187196 2.8538605369080394 -0.1674276667597762 0.9755798977389522 -0.5488400221032613
P 1.1280499245000728 8.215911040012037 6.051789290341934 -0.4137331789633778 -1.289294078404515 -0.9220649565399475
Ni 8.49836887725135 0.8468993930212633 8.111606782393638 -0.047132691821744635 -0.946383478680654 0.7605379715353224
P 9.131275585179036 7.490657886134778 11.601986050881344 0.22485531274962564 -0.6510765968776852 -0.8845350779152896
P 5.821342552475627 2.945390496648072 10.276638728622332 -0.8214597467213595 -0.7218747506371697 0.4132289856334496
P 1.100317228132819 6.251881297718075 2.8119404648247706 -1.7714803079339683 -1.5943654957934155 1.4945642699333614
Ni 4.618704757083498 9.005545987162089 8.363387005959922 -0.6941433461601723 -1.84727951445247 1.127093464371633
