# total energy = -340860.4164092001 ev
CRYSTAL
PRIMVEC
9.29748934096653 0.00000000000000 0.00000000000000

0.00000000000000 9.29748934096653 0.00000000000000

0.00000000000000 0.00000000000000 13.60781545513191

PRIMCOORD
 96 1
Ni 5.866418392822854 1.89467961253663 1.2730903694954498 -2.0459283440100573 0.5939274013602028 1.0493271068244316
Ni 9.087068776477551 4.2866633466694575 2.471274584600159 0.06860500276290767 1.0369708992519238 0.7602687770343358
Ni 0.2948122369665995 8.8268878286248 4.059510800730375 -0.20347221908815927 -0.8453861756299699 -0.14583348552876818
Ni 4.060315963326288 2.4820857054607646 4.634236977392303 -0.03967237888895748 -0.36538538378760943 0.27522656611332597
Ni 0.398432758115074 4.3123058228765 0.21646601143858366 -0.9562601143644176 2.820520736755917 -0.9117939136312425
Ni 7.342989899837106 7.088359553251798 -0.11883400331583654 -1.3533119760173726 -0.31536405756416014 1.4213917024044294
Ni 7.7580019413359365 6.329823867482546 8.106420713859805 0.3790279142717085 0.85543173279143 0.6145257943368448
Ni 4.211521036043887 8.982778836080742 4.756258160129376 1.1977766898198081 1.979803427356526 -0.7211815812248871
Ni 6.882373672045476 1.789980582599172 10.653817564485179 1.2939164076678749 -1.7173146205248422 2.9237482146887
Ni 1.0334996420227263 0.28574625489644445 1.8990522218767942 -0.7652752291099918 1.3375601124997547 0.14919931667720757
Ni 3.6239754807763505 5.33324455650339 7.940323852113627 0.28765167925055624 -0.0043629049543860345 0.3610669589179136
Ni 4.134909722067806 0.7840572946120109 6.887636980885508 -0.11734823360488175 2.271803870494081 0.09268801185404038
Ni 1.0888847873328622 6.965651286036223 11.433681691305537 0.914684090694844 0.355427244133633 0.44587171136913534
Ni 2.399105611135943 5.393445801405711 1.7931017498445325 -0.3390670576080548 -1.8738212694967407 -1.5074030735692425
Ni 7.098400841976818 0.9879140507090458 13.145327205364167 1.0138906203936926 -0.5253056864267469 -0.9873709768366092
Ni 9.139283477847657 8.85880611028498 13.402841633211052 0.2923714533237287 0.9177038513577744 0.30899697769555173
Ni 0.05673885979010147 8.31023563125382 8.938388901924503 0.6794320080919267 -1.3657592006417898 1.0955432003691776
Ni 0.8869051943780325 3.2411978355827475 7.28426416652799 0.8779610242421976 -1.2997862361850905 -0.37360160104981466
Ni 7.160545262197222 8.733197026326623 9.39570731016913 -1.4690046762967024 0.48897265632366754 -0.24353643409889666
Ni 3.6567584289656296 1.8063069742668905 10.808402274657913 -2.187960453514864 1.6029820338178329 1.9479754842126515
Ni 8.046196225233583 8.09710927806526 11.603847134483262 -0.3634663123880256 0.7769981739738748 -2.000612650792393
Ni 1.3538911322673592 7.058161307160255 2.8332834976141776 0.5538850407263365 2.6146147114152845 -0.5273970217381369
Ni -0.0323766478954987 3.8680345817317074 11.186508861096469 0.3134264742218151 -0.6084492491254618 -0.630911691894036
Ni 1.6025989780028187 1.7840487842597619 3.906123607212996 0.7478950859603314 -0.375131921651412 -1.826282857596145
P 5.642228027057653 7.211188687831654 4.596557041451663 0.8134975544514892 0.13497854509213525 -1.5547476242914773
P 1.9930935395313907 1.0796895701578202 12.292919416250314 0.4853108912013643 -1.0018504013997067 0.1681689158011749
P 1.9002767012518733 6.5842775617662115 6.697440096450324 1.1335268787018027 -1.6290275659519753 0.2531348764206092
P 3.377238702827654 3.1595193897963547 2.0688913231709547 0.8788087169544736 0.5142532852673273 0.15820691949245655
P 8.870083965121509 6.438762552659457 3.9453413479268926 -0.636364230368175 -0.15128808088543622 -0.1866140098802399
P 5.261049550068406 2.024258724537195 12.331307820895441 0.8163195972813166 -0.7580684269489073 -0.0021669257443317517
P 0.8193728789574901 6.567811707755091 0.5779868062506914 -0.4692690072471531 -0.33059527269161776 -0.4228878488794523
P 8.486051158837277 0.74811598921913 5.2550935782561385 -0.7018198888688236 0.8967293059886363 1.2376735260147458
Ni 3.335195455036411 8.404465687946487 12.132415924223556 -0.3454696187002889 0.3372947961989804 -1.1642129949317497
Ni 0.21511787545235406 7.76134903757761 6.295397123139023 -0.767841190064955 0.4618578023847465 0.2707327920080305
Ni 6.751195391840556 6.45756207655019 2.4204768206390277 -0.5917224232890842 0.33719683716853543 0.8851495715708368
Ni 7.2586523720364955 4.250979581737393 9.723682762648021 0.8435087561015989 -0.05149405411423389 -0.25228949770117837
Ni 5.404156509379067 8.738236265668254 12.707345715906852 1.2027461180099415 -0.4262130565979434 0.4905006629324198
Ni 2.3900684512834247 8.670308806941403 10.029450231563409 0.12966304641649282 3.0778251711731834 0.443645650252094
Ni 2.642569672759447 4.606840994654205 5.847604922697782 0.9953889620450793 0.2607746523540541 0.5093586761791872
Ni 7.57644986269383 4.095367498968258 6.986660823195416 -2.8486064392485395 -1.282185492384192 2.713049653055431
Ni 5.375306399273755 4.6846051973357525 5.484548182610327 0.3333954611445742 0.42029180601750193 0.03943738006001595
Ni 1.9079285351599211 6.819941029648705 9.184309360289813 -0.6015448086961447 -3.299330079393337 -2.04590957495698
Ni 1.0232538085273815 2.0908194522986956 9.402700881816315 0.3806286830999251 -1.4638164472275437 0.3987924984931454
Ni 1.722146098767923 4.305258325789866 9.716171320832332 1.7825856738185106 0.6926770460272909 -0.42181441330961544
Ni 8.579286384147006 2.2284780827270776 3.4705241345810056 0.2951767839830078 -1.0855336386519756 -0.16095620010281955
Ni 3.5251803567096216 6.8724253582160575 4.823725393122998 -2.3032343210892203 -2.0257696096739948 1.2396296212998523
Ni 2.9955860538708365 8.211747324342577 7.597597002698516 -1.5909526134571246 0.18298284088555583 -0.21039517146023767
Ni 5.360114301332381 6.192667301490416 12.429337761571366 1.9969064055853996 0.8223709456817192 -0.9559212429677602
Ni 6.651200891620561 1.7424146260091677 6.2902946608683825 0.2754050006727193 -0.0640538930571155 -0.9753824370161653
Ni 4.122776498191739 6.8622353096580735 2.6104282513498216 -0.045999606658565936 -0.2243585756188652 1.656040089985077
Ni 7.0972386557817915 8.552937298733386 6.1219115464393505 0.4045723383997161 0.5164245818870332 -0.651252203223601
Ni 8.076403768814686 2.6856449418918724 0.995486855955832 -1.3366995642716721 0.8398639602601601 1.1285535938569273
Ni 4.626244855366351 4.751110140159891 1.066238892011073 0.8074315507630676 -0.5771321841797351 2.014097829763022
Ni 3.7024741851331533 1.1930073729175878 13.7877112135557 0.488217780435514 -0.1802394738124638 -3.0444301406525054
Ni 2.156878115623946 0.624931690538074 5.80294443159534 -1.2409797075698432 -0.47983264169561235 0.14232650081677423
Ni 0.08162823934276783 5.146718320946577 6.484886468618675 2.4987302068401225 2.5591842983611217 -1.1321690791223276
P 6.161753148702737 2.9123921172861302 4.220681852507557 -0.21120866850046852 -0.1890619572001002 0.17302598678316009
P 1.4143527068773667 0.37208460245041164 7.891213582507672 0.6066448489268713 0.2904312988782224 -0.031060211739914245
P 5.7982120094091965 9.24824075800369 7.641509975640315 1.4770308890352886 0.5480892599801658 2.6306015737618433
P 0.9808851486015314 2.458507271936087 1.1596823810869483 -0.32273386766567 -0.5440444004868308 3.112359971725259
P 1.0696110914745591 3.456081414298185 4.931281541602307 -1.7739040868841127 -0.15218385322682823 2.0417089066120706
P 8.436830249105558 2.717033266647122 8.49065062692271 -1.2298085214443724 0.7024891470217063 0.3930802785997166
P 2.482132192908565 4.950169391643861 11.868342117491947 -1.2134689037440842 -0.8600360643326608 -0.7878590279477786
P 6.691068526854716 4.85402405210179 0.17563329678807935 0.2750553306427843 0.7057948143561715 0.5281639818111484
Ni 6.501250979993589 4.246395919384213 2.488515849240602 0.4346146503980773 -1.5673450013405137 -0.04704707408647381
Ni 4.457104925287118 4.046964768317835 12.558911295078193 0.05271635655710921 -0.7395261451703458 0.9128876609160536
Ni 8.539734863557896 7.709785160476718 1.76347808860781 0.6606565272566364 0.8490461409800603 0.989032423699432
Ni 4.070747746612837 4.7898062917094615 3.5928446964819187 -0.3791711247177922 -1.4736712285344362 -0.8231808431775243
Ni 4.968345983734061 7.503538949562711 6.702693178051839 0.5688288065203623 -0.9890007991305484 -1.3554292794706915
Ni 4.961493733928189 3.1777331718447943 7.216633297718109 -1.81644350290822 0.9846412366102721 0.25904327148524414
Ni 5.872554735932589 8.749393253140498 2.330855529521353 -2.382623816062142 -2.373108677482855 -2.4391040105370574
Ni 2.0569672928099925 8.330253126276938 0.31498964881015434 0.9107754996690574 -0.6643463174033978 0.42487531162312636
Ni 2.4438544283892054 3.3662490701674925 13.532074878599975 1.0597264477808845 -0.2569457655262672 -0.27259247092458855
Ni 6.180617755020391 2.0682451476465205 8.763542172753217 -0.04220620105440473 -0.5017852347073036 -2.848788216242042
Ni 1.6050907052049537 5.094866221669318 3.813549433410999 -0.15616237825860202 -0.04767442325782757 1.4084971058299485
Ni 3.4874604415638735 1.0350151328210397 2.286289872812427 0.6716173971435143 -0.34605583022106207 2.354831476440222
Ni 7.362347273101451 6.310987153633573 5.7357217225771535 -0.12407886746049598 -0.48221682565707275 -1.2814172467595997
Ni 8.575548793343803 5.807379334115558 12.080120334694275 -1.1285831615432822 -0.641482782541663 0.35721416083072677
Ni 4.66397406800166 7.475321068747491 8.967482606256294 0.939109313616744 0.06093900157721764 0.8787212994469898
Ni 4.756186569459763 0.33607263613687316 9.850044943260755 1.566850063981966 -1.8179835937018303 -1.1993810581924507
Ni 0.12120393340473255 2.1467996369406843 12.93115395485113 0.4144528307382217 -2.0043551485539606 -3.4939839288589183
Ni 3.3641757299955675 6.173486580527714 13.496490596806206 -1.77945766971249 1.0687011404756692 -1.3135884321755054
Ni 3.643686158643983 6.323083187551399 10.725000074307056 0.15588649888939604 -0.3078800904822891 0.27570119175689933
Ni 7.952598397831008 3.9938017230125884 4.850111668494857 0.4903618233617103 0.7400246820733191 -1.8610541996390593
Ni 8.557567448534368 0.7288804130680238 7.6185665606526 -0.35659889584423105 0.6408356358759673 -1.154485997451973
Ni 6.797273750100928 0.6577211469700456 3.697447962276907 0.4430964626168433 2.3813112678983055 3.734259947038988
Ni 4.987061830218751 3.927110830397244 10.49863409598477 0.20714503995405617 -0.1869225422595942 -2.7136615756078166
Ni 7.168122716188789 3.34836999774322 12.250748792852097 -0.22312881697682216 1.3905960571798115 1.154715596964276
P 4.445827070450591 7.754868687354148 0.9130041773224814 0.6798336144057195 2.3222003206687623 -3.8800893188026984
P 9.182963083801495 0.4739320923397553 10.694546147252609 -0.9261954337685533 -0.31240471782552 0.04430833499907208
P 5.832454663459428 5.629936745859063 7.493075554811657 -0.886035573720216 -1.347626752707137 -0.3631976321076713
P 2.4442728154194144 8.947773787886574 3.547299084373347 -0.4015232671607472 -0.8515617083130624 0.7418673917090126
P 9.254423588561226 5.657345745082545 9.46160977566977 0.609589276267176 0.08249101671638052 1.69282846245802
P 3.39119423465752 2.752577569235782 8.871180139140657 0.16999208505284275 1.0707832198156784 -0.7993816838753975
P 7.595574798719172 0.6294642166986735 1.7224092177224768 1.4008671000885164 -0.5739977523158115 -0.9472005752653107
P 5.863638443444353 5.975291995572844 9.940400736053688 -0.3025923597207886 0.012277788926088532 1.3675234916310641
