# total energy = -340895.958644088 ev
CRYSTAL
PRIMVEC
9.01108742000127 0.00000000000000 0.00000000000000

0.00000000000000 9.01108742000127 0.00000000000000

0.00000000000000 0.00000000000000 13.18863729385339

PRIMCOORD
 96 1
Ni 6.366441249133196 2.1128476410404335 11.53513779698243 -0.39948155414037007 -0.7649175886602567 -0.6941227773348819
Ni 4.4200644332683945 0.4721214967931686 5.959457297368964 0.13917689944419903 -1.3335152530064196 -0.2561726348056685
Ni 2.67168823673802 1.5567914712917081 4.604311430189398 -0.31712963410501516 0.6481277986620064 0.7716045137621292
Ni 3.4052988689345454 4.2448258202343725 4.699638820708533 -0.21315730758640708 0.029945124298864558 0.4019505845061529
Ni 5.05489552743443 4.538722429691083 2.610783199373097 0.11509003369832436 0.24437949882548235 -0.5700457096465988
Ni 7.304720705201874 5.957337889656432 2.420615918153058 0.29335490028292055 -0.1575173496245997 0.4068148545769897
Ni 5.015381910004791 4.6741680815918585 11.326190508901474 -0.21338922109155506 -0.6796721491271908 0.35127876918289824
Ni 5.8815005796706075 7.7833806468769 12.48184442181284 -1.4206375978472243 0.3612543923383714 -0.147070700369979
Ni 1.8293047707916261 6.51784553648845 0.5479651145400425 1.3624622750580728 -0.10311383517305468 -1.2612659686227052
Ni 2.8134236275135707 1.5055183850489156 0.37936947499955026 0.20316111560564365 -0.5520662423500428 0.5809970664517801
Ni 0.31684424415370405 8.97409670013461 4.730038624530797 0.9448251330545986 0.07197289079387605 0.5967129345251401
Ni 8.47267475215918 2.3986252609181 1.5737737662536004 0.5980347386603572 0.28347517927536336 -0.3198030671721202
Ni 6.890246737746076 0.6641549741750499 5.0349729147148885 -0.3795663032736818 -0.39179318435717686 -2.2069580776632893
Ni 0.8199215288501882 7.347298092283982 2.471471791057882 -0.766863399532718 0.19577690732643055 0.8110033272747259
Ni 7.52860116701245 4.017881588771327 3.743093890858811 1.4561609875648147 -1.2354880883276527 0.3664454496210076
Ni 7.725412322834741 3.8213948320887092 12.475488000892685 1.1395406889960502 0.10753484705888577 0.6539076385685771
Ni 7.733504279152145 8.806157067743234 7.135171692634231 0.014168063970265921 -1.0478451229622663 -0.7284454618761519
Ni 6.914459529087796 0.6764181627634183 0.45309188281644996 -0.5187334325258679 -0.2058661732416326 -0.04524035989503822
Ni 1.960740488882553 6.461210853353837 9.238772155976536 0.18271750303931114 0.5388209473043624 -0.047765440309737096
Ni 9.315301517460329 4.792366512566676 1.3574013423090157 -0.6466458147998412 -0.06752462521453532 0.20898157894216263
Ni 6.428050052409465 1.8307285225713033 6.881369014623686 -0.5146914012460104 1.6714913915431409 1.8879525666918002
Ni 3.4339000597490665 4.321978748953317 0.40469243228592916 0.24750004673233503 -1.031072788599934 -0.06222403893722831
Ni 6.059730873659394 5.545675381411136 4.555909276332713 -1.3960516809777441 1.0779234304048855 1.631572443861016
Ni 5.262907464662659 2.8153069447411183 9.203242340203827 0.1357393345175598 0.3864784570124828 0.018859041688032038
P 0.41414145833763255 5.543620853526538 12.34796669908715 -0.28763445285937556 -0.9675236030933788 -0.14720799727879164
P 3.959787109508184 6.143939483666229 12.696819226130664 0.25823980174734235 0.5495997830874213 -0.32259040010927026
P 2.541955614130378 8.440442093197762 1.5165876045815423 -0.12187903159569977 0.6196759710792167 -0.6568893469047203
P 6.10685885978414 7.724880668689166 5.788347564496004 0.8007831922086145 -0.1929263252515129 0.9133728280825882
P 4.664291930006252 1.0140536884440108 12.364980532854288 0.2726806597630207 -0.5322072986425866 1.1219774833013063
P 4.019098085545101 6.053026624772814 8.42409688210184 -0.7490541392654391 1.4164027338302703 -1.5322597276016063
P 4.811298806801493 1.0929908124311574 3.8574256643104676 -0.5134927529522189 -1.085716444086743 -0.003808060892180538
P 0.26354997104900313 5.618683210012033 3.6224705763149365 -0.28074903859345196 -0.4683408390059289 -0.6298223154845992
Ni 1.2744380645550364 0.8556297641497161 2.673112889626418 0.43939176007174646 1.2168979840302914 -1.014741141319446
Ni 1.8497058722421857 6.545401441186247 4.86265028950304 0.42710265829174826 -0.8993628869567415 -0.8424317209873361
Ni 5.940045613294408 5.455663631239034 9.163965714367894 0.4000507963802788 0.8755069062747503 0.279365527982364
Ni 8.469827248599827 2.2550425972638544 10.347343138199218 0.6534970333937198 0.5503708569254908 -0.7778147563378992
Ni 2.3249145675145777 5.1328954983514095 6.884270584706319 0.2900242932477908 0.6322836325408981 -0.020728233686286884
Ni 0.6732994254789489 -0.02047048682210052 8.88299550951844 -0.13966155239010142 0.7407173372649695 0.7321249676102682
Ni 1.4137494728702513 1.1371451397755656 11.504223460080294 0.25863112364849 -0.09229129063625395 -1.2124893134396344
Ni 4.19561627296339 6.956892738774493 1.673137222735503 0.549967193729169 -0.46707148537520204 -0.4082505585822518
Ni 5.578223428425014 7.726791019178352 8.022898048328447 -0.6558161684451995 0.7734287114550615 0.726192147065601
Ni 5.3517387624098385 2.885287048038399 4.884913081571835 -0.11411327160735187 0.7406147502488343 0.782509076489775
Ni 0.7365698732373224 7.531529770356722 6.915501210769635 -0.4781272289687314 -0.6707663619971287 -0.08998629665216115
Ni 4.905617856661477 4.5993490244611195 7.012714621842481 0.08142606578697589 -0.6501695116823835 -0.15253815124245343
Ni 8.241233988176775 7.190721440868382 9.016082058786814 -1.1486241393545573 0.017516925837840803 1.4398514517715137
Ni 4.586084704083371 0.4992872214146356 10.280898985524376 -0.5673375666868165 -1.319073880770109 -0.31639764103499707
Ni 7.930396534759354 7.172609155569961 4.577485423555867 -0.038283726071546974 -0.3822297090384578 0.2675183988357909
Ni 7.165508418846003 6.206566539797584 7.051898433480119 0.41586308082218704 -0.7574942996129922 -0.8325715403638049
Ni 2.5200766943768627 5.03289045245993 2.504904726836091 -0.31641769563965505 0.6904450713729786 0.6194854523349654
Ni 2.355164787289104 5.101437792890321 11.354770073106682 -0.2367510357459471 0.25013671302423374 0.48618840871031105
Ni 1.0392216550303237 3.4367295411339938 3.678561890890597 -0.5012378468442658 -0.2843753224921296 0.09464385002883055
Ni 3.773699147469535 2.551543410925164 2.6045448236954374 -1.1726063612017676 0.46176138601619826 -0.46094943163786417
Ni 1.142335526010337 3.4770541564128155 8.016317251336687 -1.0499770817036047 -1.1109520787250804 0.12573517211699636
Ni 3.45852736110259 2.538801733605777 6.883294683961135 0.3835129466262556 0.8761311701223105 0.20548950662850413
Ni 4.034786388383186 6.8008747747661085 6.181184109335599 0.465007917977954 0.4029862248595189 -0.8394217305164189
Ni 0.7110856174898281 7.405545760029748 11.252571728587526 0.6847853019840401 -0.653593449762268 0.19401570166094972
P 0.338473556791415 5.719841675066793 7.978953679316104 -0.29420439276740945 -1.7617923912222433 -0.8410502672587774
P 8.406749638107815 1.5894116070032918 8.006874533046034 0.18021941920780574 1.6821565845664705 0.3078600358776311
P 1.6918045910062534 3.1021298507355097 10.293770422499632 -0.5489984020579964 0.3124617963157006 0.8572227632535818
P 3.98874874381123 6.175496311086662 3.8452264544413124 -0.37209801992109465 -0.13454377154756184 -0.32713379650557856
P 6.910503661801226 3.9930470324119 10.419630079823063 0.33822759242589495 -0.6381166942829074 -0.5927035562554308
P 6.3193853517061545 7.612944943327483 10.263014680732448 0.18307411504778148 0.6478809727585229 -0.5252007854177665
P 2.2882844979931445 8.417130410577357 5.776979176867901 0.8038970552472479 1.3088300915549138 0.11010286489637812
P 6.905953062758587 3.9646260633416417 1.3913217779054559 -0.10954724950322424 -0.2664231088890831 1.001932676700868
Ni 5.247949059888839 2.593147600588252 0.5028943596260573 -0.11160053248782716 1.154197519677277 0.34141293213241203
Ni 1.2397273566100036 1.1136982908469635 6.736782515853896 0.46884580366680545 0.2711750217517717 0.7334156613972337
Ni 6.821978741019293 0.6386869383845394 9.318827555886832 -0.2679488015049901 -0.13891567536301236 -0.4495198496446839
Ni 2.6362566418159354 1.6739446161498008 9.086179306217867 0.3651493565174034 -1.315988814086882 -0.29781139339237744
Ni 6.275203991100106 2.2678833965425853 2.783580708881079 1.0166198463993976 -1.0649514436252498 -1.0563004528184712
Ni 4.143225811906167 6.854553821294811 10.590013519066645 0.28192300429689515 0.7938077893320458 -0.7455093593369742
Ni 8.102796655321235 6.931463450658999 0.2601527911696476 1.2057972461314392 1.0368518571755563 0.1940745799233432
Ni 7.684835397113951 3.9491360044222468 8.19446914886672 -0.1946152829181616 -0.7837023254669276 -0.3903567090209664
Ni 3.12709056231592 8.335030394978396 12.372511098438313 0.43736161701559517 -0.16079216372112953 0.10441147093855566
Ni 0.22562681051248423 4.7437787303134 9.979406029546984 -0.43571945342648183 0.2921881336683291 1.1248167525223143
Ni 8.5624251808021 2.5301330677067315 5.713423077644871 -0.5527151887879513 0.11867852238053112 0.1156641610342395
Ni 3.6091116395214495 2.6527739646776296 11.33475014064524 -0.03654951698925964 0.4926454771895644 0.10550933198842476
Ni 1.289315369543938 3.2284923267254357 12.746039586706303 -0.9738552017383614 0.8530274942253114 -0.958990111701071
Ni 3.059435319519631 8.31566556855735 7.913525076170183 0.23847830284969895 0.5835643129583241 0.6417861727146946
Ni 5.56104829619676 7.832247772833783 3.6778229817391197 -0.23096913895684737 0.5215955845650114 -0.5759682457786209
Ni 3.0365651801726696 8.422519040730817 3.6994261622239124 1.0963687815942667 -0.8191408687801958 -0.452783093776988
Ni 3.1964759338571334 4.304533284108668 9.196067712564721 0.7144645742160276 -1.3935296858868387 -0.1697632568714883
Ni 7.395588508659224 6.021821229753694 11.328076529455185 0.14628368569230937 -0.16267909633119726 -0.6892592785949936
Ni 0.754802907104399 -0.07905516922963862 0.2613224302899138 -0.7246204317031069 -0.4629366372712221 0.4600983964914786
Ni 4.706013263803111 0.42586938834554017 1.7364031649502696 0.07215903866275315 -0.8496058701382724 -0.30165107885344183
Ni 6.0890078960149 5.520552470260888 0.2545884448155309 -1.3745621436454003 0.3626769837175109 0.17440564073950607
Ni 7.971532147887358 8.809689413930787 11.366718774751314 -0.6284393190941434 0.7504965281389204 0.3358035563654346
Ni 0.035956040197889456 4.987276328986993 5.71240752811595 -0.21804008960000515 -0.1836443857289547 0.6489369248268629
Ni 7.85146842185942 8.876831024755928 2.576321197435147 0.7522541342599754 -0.05489048139029256 0.5041876735012091
P 8.463780809079806 1.624275503430948 3.6298686789169277 -0.8821586072633131 1.1900278991123248 1.120943128499521
P 1.7520346979389116 3.031699193077572 1.6187201681640444 1.0609736899244244 -0.10024088450063381 0.6522145671368703
P 4.6477655960573445 1.0606590315103945 8.05470988951701 0.4945023278926451 -0.2699612039493286 0.6240239636352672
P 8.516540724712769 1.6610948057838566 12.628594482622505 0.2568886870360866 -0.30692209744439397 -1.0839223283007977
P 6.518728623035339 7.678797968681144 1.5362254669451485 -2.3765179602747204 0.5420389400210278 -1.1609854891333875
P 1.6939131854141292 3.195574825135819 5.804859480705369 0.07156279983965096 0.2951047930944918 0.2345645696175896
P 6.815400647353697 4.162942070728528 6.071692190826122 0.7351460138247791 -0.8167811102987675 -0.08509862954255668
P 2.28087738430394 8.509773398215696 10.18715394191987 1.3581767603088415 0.14898360112197567 0.2340809451129517
