# total energy = -340891.92945203005 ev
CRYSTAL
PRIMVEC
9.06500340069593 0.00000000000000 0.00000000000000

0.00000000000000 9.06500340069593 0.00000000000000

0.00000000000000 0.00000000000000 13.26754878150330

PRIMCOORD
 96 1
Ni 6.320782179439489 1.8883671373016848 11.389514235153808 1.0731928576984355 0.33633628894045303 -0.6070716520516448
Ni 4.655622623105859 0.328975322204337 6.05501712658049 -0.4562679670017949 -0.3350214267837714 -0.2797671342961569
Ni 2.894446549791616 1.5934463137133854 4.844366873800415 0.2877763777538786 -0.6807941785467759 -0.8711306315839256
Ni 3.2468123005047405 4.2010308280205315 4.748256987283842 0.9354719739744727 -0.30923660451018353 -0.6870419592287007
Ni 4.923194331160689 4.618020988623648 2.65121437611112 0.7234048141284509 0.6754892213940947 0.1387323557076127
Ni 7.19987902302228 6.126709519692704 2.8233479144080866 0.25928624073398576 -0.609377417366686 -0.9962127434979552
Ni 5.180830795388975 4.86843264506931 11.737190659560845 -0.6575138678625967 -1.6307723165572237 -1.0947055349592307
Ni 5.552903863692342 8.055053322391341 12.550066746138816 -0.2853073473880957 -0.7787814911265426 -0.4415067495322203
Ni 1.9192969292142465 6.5938926046275474 0.5397130843696604 -0.5784570736387458 -0.34243057476364896 -0.37702708179159583
Ni 2.8256613032990847 1.627757351928229 0.23332140536337873 1.1811856182303462 -0.46256357020251954 1.4093352854605277
Ni 0.5821871582284844 9.164265279602612 4.748880659524048 0.8409368816093646 -0.8017612398511675 0.8476099227541661
Ni 8.513751564058259 2.3353987194752084 1.2196436427438644 0.5106894791754689 -1.2755564171034484 0.7957564284179843
Ni 6.933512960431803 0.7740407051205814 4.884541156273478 -1.424729765638727 -1.3763326052822618 -0.324693305384886
Ni 0.9972500990893346 7.4975465426684655 2.7916911092155168 -0.5075640461726098 1.3193284199830762 -0.8926327673217594
Ni 7.52374440275853 4.101868754828413 3.995655015420355 -0.5977154076477255 -0.5868285855318925 -0.605690455433402
Ni 7.601839407836701 3.791238280189565 12.751414977687775 -0.13047294391229788 0.42359927312418016 -0.8643987121767306
Ni 8.140907970458125 8.937957467440507 6.792865805261768 -0.09368302877745802 -0.2691356227242397 0.6076979727817341
Ni 6.797356607991394 0.8574224202349202 0.20779254253097665 0.9812674350420326 -0.473295611908043 0.7195823550585672
Ni 1.790700789685642 6.488892669186984 9.164134743552337 0.20233630571150316 0.20811563139744158 0.6974952933515407
Ni 0.05112390019029116 4.562760727340243 1.328744585763924 0.10864762050709029 1.3527918418478444 0.6924178788286334
Ni 6.577358038259285 1.9895053812549233 7.042242238308716 -0.4890922126206673 -0.20834471668911217 0.3921937622297052
Ni 3.4138077948227967 4.338229655862449 0.4088289379598337 -0.2199866718034147 0.5732660163561095 -0.08936331835618158
Ni 6.105415826491471 5.718013837284193 4.948915372067108 -0.7521687736350208 -0.0953799568639067 0.7164661780270887
Ni 5.433263947613214 2.831743920641795 9.32431426174523 -0.13009550596822111 -0.9737407876476842 -1.6259489270266514
P 0.19954792185557377 5.519182050704438 12.623356392866208 0.013516803539512207 0.3290868064668913 -0.39965638915533747
P 4.0098680343944775 6.310094540323162 12.717144731988641 -0.95090244959693 0.1417490310467494 0.38678004741330163
P 2.6338095694076857 8.590912873776817 1.5892537495986256 -0.3470608744468087 0.21776215334827015 -1.2667408756943475
P 6.284921025627621 7.821593222474543 5.898885132446494 1.02952164206273 -0.6625707135602137 0.07443446496049116
P 4.746172942981175 1.0398828105092575 12.509786403124902 -0.8317770694869675 0.14972459305305827 0.6649129885401451
P 3.740274830561071 6.150813363976263 8.27672166576656 0.5941377175987961 -0.4675070302507238 -0.9095321141802594
P 4.9081101653510455 1.106501521167351 3.7535487151734874 -0.483740975611083 -1.13722823881279 0.4999641223381648
P 0.19763611261924338 5.637244656176068 3.3724650333996964 -0.7116723561828711 -0.461384976513386 1.4915347390784184
Ni 1.36415611540262 1.1092663472322195 2.533358452719093 0.6366910175799744 0.854316131129748 -0.0074919375016709675
Ni 1.9599715998800329 6.460455753234551 4.712447503991875 -1.0008209316939278 -0.20786469172890007 0.5488950437109127
Ni 5.864712788785068 5.634090034961071 9.252656315646282 0.6402699931804844 -0.06397238908690273 0.31628219850305533
Ni 8.776618535301067 2.35107211051179 10.514943547814259 -0.28583519486710773 0.31293127975295143 -0.9138389690857295
Ni 2.1976378614168266 4.949020526107608 6.672834281031812 1.2855394964580893 1.1199997907496453 1.942177646583952
Ni 0.8167359650645949 9.028344617252978 8.881681925766069 -0.3121329522213721 -1.243572150887368 0.9294026278519413
Ni 1.6320269685726652 1.2236213662758784 11.557494188851027 0.3595024426442712 -1.0026595275645636 -1.4011314094934968
Ni 4.174134962661631 6.907079410250962 1.6962425468051958 0.11953958482924575 0.4728564674880953 0.05981080151004538
Ni 5.377160641005112 7.635978210985209 7.849201597107866 0.9632553147353281 0.5501692824376461 0.8091557325430259
Ni 5.326877066638471 2.816016139584265 4.989288178116632 -0.32286936480226974 0.8368071757117072 0.056243395873761204
Ni 0.6866459129606124 7.0733678342966915 6.7833656816028105 0.34164613118914067 2.0296794862513625 0.3118758419052435
Ni 5.19130087442151 4.554366534107233 7.091213200169807 -0.45360224724417364 -0.009044112480139263 0.3487791426894961
Ni 8.176587824200165 7.302096002390991 9.176500314814916 0.3011841665193522 -0.026527613976883347 0.2805842308808135
Ni 4.653573932316809 0.21118557333779722 10.22982380600083 -0.11124469181030518 0.580031360104401 0.579771164464479
Ni 8.177022944367751 7.236655742186777 4.841262110104621 -0.1320361746343597 -0.12481343163367535 -0.19434737396875562
Ni 7.386817525021356 6.134568877719723 7.333173553860463 -0.2517775910617664 -0.804717494266014 -1.4607930870201875
Ni 2.1704791109566757 5.351760501222287 2.5723651627424675 1.1075142566881249 -1.7351634757808052 -0.49798951511029715
Ni 2.2415124783150673 5.373398664556193 11.550396291117282 0.09419570674781842 -0.5829850434160863 -0.21629276789159524
Ni 0.627500391180806 3.3886342801272566 3.6812933853444587 1.6345281840552301 -0.2939208000887196 -1.5009943418294216
Ni 3.7600184081652794 2.718386051982187 2.781806629408525 -1.209849304713626 -0.9750715906439659 -0.8615085351131291
Ni 1.1936071397159456 3.3038039774549963 8.124224738032604 -0.9788441703125206 0.09228460576803461 0.3969474748646067
Ni 3.4165001008597344 2.8668708091708623 6.959293830361265 1.218844823344017 -0.6072652561196896 0.6775815851467492
Ni 4.0180627975506775 6.601851677692972 6.021158432039866 0.26667584832983754 0.8422561146414204 0.5198055825441241
Ni 0.6012952790879476 7.210838612243349 11.270119074168948 0.04286311791211328 0.45020684840937947 0.0708644882210457
P 0.40710205479472733 5.395027762886606 7.9793424132314 -1.8448343953460875 -1.0002336917318901 1.0841658117701716
P 8.847253042505839 1.5544305386865198 8.026946372565993 -1.8621800857133866 1.3480777242016269 0.22161957942114735
P 1.957922909090983 3.3982341188246195 10.351766232966769 -0.9445312559632636 0.7445619078220402 1.2748192818271078
P 3.9100532809509794 6.091727671219499 3.878502536299259 0.9170541335889175 0.6525788924548245 -0.7043753083008256
P 6.79111988558933 3.902719693126459 10.586363084321382 1.1273438898195423 0.7252457239919317 0.0030601269825624717
P 6.295146349565889 7.6949369936930925 10.176023916779886 -0.6308242743865523 0.7304838324624193 -0.30252988191396935
P 2.309853539636521 8.327157532191857 5.820075805093203 0.7011390607517151 0.6875808624513062 1.0881785324739905
P 6.760842773928147 4.048321779204877 1.6190658265807012 1.7474890872256934 -0.3662554450973886 0.625371221691781
Ni 5.269278034454293 2.929183643170554 0.6262376361944579 -0.2468379876683039 -0.9880924283836661 -0.6189056685720954
Ni 1.742366191069646 1.116754040116093 7.01914370291235 -0.4944082255169421 -0.1787657174804147 -1.1629045605329715
Ni 6.858019611355656 0.6235979071777703 9.02315399625382 0.11917860194540121 -0.22209369084408848 -0.02271903886407055
Ni 2.7191293822684797 1.7934112257295622 9.248569812072372 0.9920339295299172 -1.5979303303265384 -0.3929563514273426
Ni 6.634086830108291 2.0679267264587833 2.765965535807352 -0.6762664658797514 0.31174754385749537 -0.8702867955263914
Ni 3.978068002146744 6.979091797986421 10.458476734566153 0.0480217792949173 -0.31069364867168425 0.03129238235537836
Ni 7.951268097418621 7.4561919967408254 -0.212849001478464 0.5062090748066121 0.3273443698544879 1.8111837971711773
Ni 7.659946080216397 3.713460550233593 8.568381807599012 0.506808656063824 -0.042742018953216714 -1.0623142631127187
Ni 2.97150814447177 8.24928915220097 12.460351313085054 0.731090869918799 0.7869344592509802 0.1901526191611177
Ni -0.09080595297377247 4.890941048738387 10.333244617833198 0.7152937549855424 -0.23758587294241662 -0.00946937294301595
Ni -0.5235800976560656 2.351625075724764 5.550943103437159 0.8338324093540995 0.20035501361541624 1.3708543557765098
Ni 3.9763093914694174 2.7887486090822176 11.215099035478062 -0.8801685734164776 -0.9079354591171008 1.7704860623414993
Ni 1.1876151724081483 3.2003813526219322 12.603269251629676 -0.7750989000686329 1.7410569584471047 0.1902302664765885
Ni 3.1691433505906645 8.406947692922913 8.24445478583902 -0.7730816125282879 0.10764797559798235 -0.2911077561199567
Ni 5.515129994143795 7.8108511933372675 3.7954743563210833 -0.12935220004429338 0.7810360914886743 -0.4538683564213667
Ni 3.0522863905833866 8.42906630144186 3.696206222588115 1.1624384195298303 0.36901758122355804 0.3928275391589622
Ni 3.8128764435234705 4.425752264571646 9.595794799305539 -1.5503446101277751 0.7870717561597929 -0.8883199988790186
Ni 7.125872334518718 6.177672969321199 11.389434463123084 0.538340408123518 -0.8888429612620241 -0.3684365119091074
Ni 0.7615164962969019 -0.08976710357366122 0.4393680282219171 -0.4523161814428985 -0.2999304966179092 -0.23523511332205294
Ni 4.842207589968771 0.45388835081439693 1.6296664416635118 -0.4993874238990883 -0.7617895845542364 0.07295222398800985
Ni 6.017557812653093 5.702512681313947 0.42402188381137335 0.315585686656663 0.5877716661714523 0.8578184878560515
Ni 7.986866366129239 8.952425213012738 11.057931817945352 0.17948999724094894 0.3162369470874167 0.3416672142350632
Ni 0.14058551314629317 5.015666431776176 5.7533129608795965 -2.111097838728855 -1.4082214835710587 -1.3030651640466784
Ni 7.971655290270716 8.67066677449391 2.4384560246675697 0.45967904956587285 0.19634409268381023 0.002761879015853308
P 8.515727734819379 1.3529970961047408 3.55612744313699 -0.026228594679225795 2.0137859549495576 -1.1458949133488523
P 1.855624344690849 3.223315811455104 1.5191876181127635 0.016205406115268866 -0.45725707038794156 0.6436674488978076
P 4.629207202932001 1.0245176295913818 8.134811755610176 0.6798917213371646 0.9741611630145545 -0.07199731627390826
P 8.735436224439763 1.4246650137075285 12.480942468515707 -0.8769035295119607 0.2002557690333906 0.5039958692053771
P 6.466493045559804 7.578451698828961 1.5061059115743645 -1.7246407218726103 1.4283326524986368 -1.4596278630674926
P 1.588777836915329 3.0554954018193325 5.634820674242476 -0.11398445933897144 0.47363319775311974 1.2327382934966578
P 6.9753207565340105 3.888777717756729 6.105845507656962 0.37697308862520884 1.3075743647709417 0.11853582615507972
P 2.2062042897161733 8.534573877077941 10.451710615960193 0.891987677538593 -0.3836325029232554 -1.0599467913218066
