# total energy = -340863.2866169897 ev
CRYSTAL
PRIMVEC
9.27903237652022 0.00000000000000 0.00000000000000

0.00000000000000 9.27903237652022 0.00000000000000

0.00000000000000 0.00000000000000 13.58080182200348

PRIMCOORD
 96 1
Ni 7.496808637522788 7.643769952489536 13.485967515811739 -0.039336335705777416 -1.883167229488015 -0.44048987823193175
Ni 7.074844639662392 1.062282185883534 7.893949367937857 -1.1863990441104857 -1.211842680994571 -0.15487939778112034
Ni 2.5069069013291916 6.239555423095161 3.256839226859195 1.0253153172908664 -0.15021515953623163 -1.2093803354970074
Ni 7.742684437749389 4.156588953525083 1.986260394018653 0.11011289219870715 1.1122916234721103 -0.8123197320933042
Ni 0.09737973330281911 1.3516580899467396 7.580246624662104 0.3102424200668786 -0.36238439217775653 0.4014854719442763
Ni 4.831258119449909 2.742000465920527 8.77693281098123 0.21553660645186104 -0.21153879814637763 2.0919207515797713
Ni 4.3630752612631225 0.31094779855965077 9.296438925211238 2.486518752375595 -2.256921811175926 -1.7563982167898655
Ni 2.6728438375301247 5.813221000979851 0.15254729246453855 1.0207732064461388 0.6014023695810095 1.0956097919410552
Ni 2.0126870782606847 3.223201806548173 7.961772599374053 -0.23874672601973723 -0.017519239830685956 1.4981195913847876
Ni 6.314659911246497 2.459769416796354 2.70283738182224 -2.025404255914776 0.10560163459191489 -0.118672351732944
Ni 4.401351269865083 5.0790546793809 12.054292617967269 -1.7262054952565693 2.0213460266850025 1.0541751789453522
Ni 5.585151663906499 3.664800236942325 10.965247846869243 0.8643799431236533 -0.7865765616909293 -2.1206883106307672
Ni 6.569063142237996 3.1234522083733687 7.166263522558933 -1.2310429080721057 -0.13198218146797272 0.39044592630066305
Ni 8.63158790345653 0.2421734663036491 3.5823708806236216 1.4185328927993957 -0.25011768686084024 -0.8390813164578647
Ni 8.584172047952043 0.10801536022635037 9.538584554417724 1.4523053612641506 3.314757983912633 1.7158465206197484
Ni 0.6400769331810422 3.0732155270228203 6.0921440750575755 -0.952292130855605 1.9375866847791596 -1.2598703738267591
Ni 4.544461786390666 2.212594552035382 12.684427995847429 1.9170003759873762 1.6033982954196448 -0.5212052911051281
Ni 1.4492920687369997 4.177271916718723 3.1692702145005827 -0.03749748272482574 -0.34043668426207174 1.1124713435830842
Ni 0.20370723753772793 3.001943279247874 13.336048973222821 -1.801095045476608 1.314827189678613 -0.9950773443419315
Ni 8.275226664581798 6.7426274430621564 2.053444300123291 1.2158327759905707 -1.8325460648970373 1.2745814547846885
Ni 8.19448980377073 1.69574316897168 1.652878678853679 1.2377007797082555 0.3241682861193514 -1.003028737978524
Ni 1.381425225848579 4.851931803611161 11.947710868244918 -1.7363443834627836 -0.4593759165031573 1.2864679218096295
Ni 4.2250960496483 6.595248571637931 5.510749598506962 1.3164498128837006 0.32192936948650364 0.21264437250573057
Ni 2.9299936621085774 4.547384681592996 9.960730421312931 -0.1406938503093577 -0.30514623649089384 1.1940398484851953
P 1.358144133586199 7.468860191969066 7.140486370584086 2.1533965994970656 -1.895593885287142 3.379988413776353
P 6.445262292112579 2.751492916053813 0.3874265114077027 0.5997362947324962 -1.9339750561685014 1.5654012473505814
P 9.03881679788422 3.821949929471487 8.170128632138345 0.05126625437414397 0.1390131201728251 -0.044776789995058366
P 2.6073617059655114 1.1222432931770772 8.855144847079426 -3.2062731142356524 1.55917583526616 -2.9493882838543075
P 5.528401101819327 5.026618867354312 6.479861948082273 -0.061925019639570776 0.02086347371257052 0.1603977564961883
P 1.3650198965859692 8.005976981768931 3.5757029679493506 -1.8392263051306905 0.05607653127859375 -0.2973097711656106
P 0.023602146783017044 1.5153680583744682 11.366058434593908 -0.6526110312443405 -1.354276653923487 1.3176854850630144
P 1.1495700435607794 2.8039380071127895 1.6116064706935196 -0.39989730152154995 -1.3157196195858953 0.23870121749378245
Ni 3.108178921062138 3.2864291332424167 0.5282618091916609 -0.9001470734209335 0.9429657112483566 1.1255124930377582
Ni 8.40910454388097 2.9442926510190306 3.9171110461302505 1.1217201158748618 -0.1805552052806697 -0.47836942688652456
Ni 5.341855434683859 8.2376187463118 1.045000915963464 -0.3256029616833489 -0.5699806607366183 -0.2955688772151039
Ni -0.18062935608465286 5.9462173722021285 6.516707129889948 1.4593620110006158 -1.5067263592171922 1.3635670780864775
Ni 1.393330224402837 1.9291665077331113 3.860899595824841 0.4531898422971034 -0.04427311088576247 1.242654267058789
Ni 3.107761364604662 7.3233464060549 8.934646668679603 -3.2128962759791246 0.6360955500878207 -1.2307585440624675
Ni 3.9149443920675697 4.204311017098387 2.7792028904751542 -0.8007867917530402 -1.0522962167550847 -0.5228659666370027
Ni 0.34115197688698157 8.15289190157374 1.250442404654575 1.415692595137123 0.771390083758478 0.6123120745149777
Ni 2.035597009227531 8.95662312898818 10.428847398369758 -1.289595668805334 -1.48628737463655 0.28731203652295034
Ni 7.08331639623296 9.015489310459897 11.451155512724263 -0.48489000161386164 -1.2319978157862073 -1.3641432623049217
Ni 4.690086920693491 7.425610622006948 10.238743222313357 2.8806213015922393 -0.8151834267943444 2.9724575069689454
Ni 6.610150697653628 2.0827066566632038 4.992751327040059 0.6159152184852038 -0.19951117755788222 0.5950216628656462
Ni 0.6657436646704679 5.837773320679435 8.878747921765681 0.12017207620692205 -0.6340358393453145 -0.09376941784367722
Ni 6.943713353950175 7.946433430932865 3.661778056093438 -1.2273101805025508 -1.4681618686804327 -0.6073285052574573
Ni 8.410292260026678 4.70492409348247 10.99860225669242 1.643279447885299 -2.0229393393140516 -0.37432125282465856
Ni 6.972116472090927 5.187721427680913 8.493460227323494 0.021176119856982884 0.7764417872497725 -0.21719291110836142
Ni 3.063565333338932 9.00121815864661 4.39299550119937 -1.4604578151679557 1.4723483959579549 0.6712844392841278
Ni 4.4862915323480745 1.4358838669358283 5.169097481774248 -0.6001646405191664 -0.06595933760994448 1.0620437830601515
Ni 1.740208292176672 0.3835283899013552 2.2408055942056944 1.1618707199518183 0.7659730265079647 -0.9694876687982852
Ni 1.1229113835090387 7.498191213348652 12.836818472664604 0.14252807530461906 -0.6116106775725789 -1.3409706808432003
Ni 7.650487971938705 4.284621042419591 5.679260538292424 0.29290855677412136 0.37281072971740314 -0.7915282492692497
Ni 2.36193129929355 1.4705410529063303 6.420786060478579 -0.5728386990107037 0.24317262300157477 -0.5233107674839053
Ni 8.862561577667437 0.249710824312709 13.151811929345577 0.9639937355632496 1.2279652975880464 -1.4205362963826698
Ni 0.37935653693955124 6.050634323668274 4.243552045068736 -2.5585047557955933 0.3535385117513524 -2.1012782815352717
P 5.346095952485338 7.22661249340631 12.36256341568288 -0.17422360663568706 0.9936992330474823 1.4078972674624206
P 3.8974998111774646 1.7729261603780078 2.9639011022621005 -1.5500977842242918 1.8091963344275035 -0.47791742695077044
P 5.532520992199756 1.31428214748645 10.712427618803199 0.0452321323649221 1.0611392689680113 0.2998006559082643
P 2.6514927840045224 8.523459339035043 0.3917106406614056 -0.828244887963993 -0.8226339695351188 -0.23714287186772706
P 1.8429179016833617 6.426045416036297 10.79277197654424 1.326030257483284 2.5291746393729087 -1.800451498355338
P 2.794594021497717 3.3848982249476287 11.942142520908666 0.8024384684238504 -1.2093178576901882 -0.10573790305946307
P 5.395785170924973 -0.005353073784841379 6.854800737701729 -0.292583826444851 0.764076323705884 -0.5010969503910274
P 4.1840734474593875 7.5541159415532615 3.517305377613245 2.789049405620513 -1.2945823233866478 -1.237347767244211
Ni 3.889334262675713 0.8396447943703254 0.8079513313446638 0.6286951438586915 0.7381814582169932 1.9933086609318122
Ni 2.0280345978310224 5.981338509792047 5.598101481507687 1.2851407183577737 -0.8233415371251045 1.7334994578148206
Ni 2.9674067206984205 5.409017071110766 7.830581927854549 1.1006761507203688 -0.4582641714962173 -1.9580310686764406
Ni 5.5571197070612826 7.51793699427107 8.045389671838466 0.5182081561500171 -0.8346289371134659 -0.47090345752678253
Ni 6.208247967816855 6.270556670304651 2.0774009059435428 -3.370522897488079 -1.955218281817994 -0.09449652581768887
Ni 8.563145760560033 7.871059850842266 7.902886004031081 -0.010801461490878171 -0.6143653574995807 -1.167634619018789
Ni 6.565240180893995 0.656656708252553 13.419584390202216 -1.5369643321661273 0.6571819384444746 2.1204008612973353
Ni 3.148162271623555 8.735568740400424 6.76311740238212 1.1999006781413464 -1.425781861052325 1.0020149520020292
Ni 7.370882888980437 2.9321371185902874 9.381944280766682 1.1256821858464032 -0.2951125064039756 0.1301099041459243
Ni 6.815941077962542 6.040956292887222 11.32892838649191 -1.4437631281210943 2.5758021094234604 -1.2016950510376079
Ni 5.189976232551283 0.26814826166836825 3.2259567512642753 1.8544989150190447 -1.7719621326663935 -0.6237200592416032
Ni 5.593419281764523 4.737196568129164 4.150659651828924 0.6851000050109813 -0.26122408118664686 1.3540979622537777
Ni 4.349769128818224 9.313828759810253 12.150349161251508 0.3222996083417288 -2.673900493659795 -0.1637396763852277
Ni 9.286362823940726 7.416507891233972 10.61904622055652 -1.494135152815743 -0.04652154060030698 0.37873146607721225
Ni 1.8181707223036216 1.3877071307754947 13.206393053660353 0.8135628604717859 -1.0349883216042564 -0.41559722875531
Ni 0.7058550658788443 5.213990368372343 1.388867937727278 -0.4571830226168965 0.6516995751736648 -1.840147017172747
Ni 6.50275517679082 4.547264054171948 13.081517691584363 0.6148235280829217 1.2379270367864488 0.6960408202932012
Ni 7.172562129744147 9.091883584113216 5.531732274446746 -0.12689473964273632 0.8854429344415394 1.7612892263335795
Ni 7.160963339258705 6.668998321060569 5.855743094802722 -2.185607379901655 0.6650968224161771 -0.1679046063961947
Ni 4.004264357837865 3.084201901370631 6.814465711812793 0.28973170170803647 1.531483511557214 -2.5738411290423477
Ni 7.209325656066806 2.168101591733225 11.704192870148198 1.5441274255734696 0.6534936909596101 0.7532712626705801
Ni 1.099036433173804 2.793257840833794 10.181567680542797 -0.4103017846843256 0.7073176787586012 -0.8292309060263462
Ni 0.28794322146244367 8.218875100887324 5.6652454877730545 -0.9127652764055764 1.8591567255060302 -2.8235875486066986
Ni 3.12412029870533 1.5598795767414018 10.81273581472778 0.3857559770241614 2.4951568876665675 1.2941102688462358
P 7.527206747627035 8.901282979824037 1.7153506923115107 -1.1590000832722427 -0.1753986007803947 -0.2171882831226711
P 4.923074144932671 5.2439987591162796 9.452292336915747 0.4161685278777478 0.1468930371415341 -0.019422627500985907
P 7.265426685886793 7.794814041707162 9.582668309391552 -1.5759779944251635 -1.5253298332509924 0.300019971007922
P 2.4939255350178846 3.7806675143757005 4.987318453576678 0.7257995396128726 -0.10685504738304177 1.1060464138933468
P 8.985137595517593 1.2155346848095876 5.38894374034504 -0.2532549469382413 0.7436869614162547 1.0316155484772815
P 8.68560115098914 5.49292736099865 13.138760042388117 -0.16786115475276897 0.040984927052793926 -0.10724739772545402
P 7.548260872116209 5.552842073130251 3.915969725146483 0.33891330563900984 0.3912131434839908 -1.3424287534459654
P 4.632501245691367 4.937966991915978 0.8349718736595504 0.15900370436213906 0.785136486810293 -0.05389649290813944
