# total energy = -340863.7893644498 ev
CRYSTAL
PRIMVEC
9.25853956985804 0.00000000000000 0.00000000000000
0.00000000000000 9.25853956985804 0.00000000000000
0.00000000000000 0.00000000000000 13.55080852800636
PRIMCOORD
 96 1
Ni 2.514239720417981 9.196794272045905 8.358165951085198 2.064056935289968 -1.126293594178157 3.1189473951347897
Ni 9.257372895809782 3.028209022115083 2.0595195162166084 -0.2182259803585661 0.484318702491424 1.073161490239868
Ni 0.28617127067940057 0.3426428063335952 7.991995344245908 -0.16004063026708568 -0.31800123807669106 -0.023966795228242598
Ni 7.805346891910546 4.643861194099144 6.269335750608819 2.8057667183751933 3.018100501619041 -0.821434807020695
Ni 2.331402082929206 7.801699027358664 11.135932406342492 0.8217222563541268 1.0238557020262045 0.24641632674985306
Ni 7.256806203825806 6.378041188400973 2.3123915238317934 0.4788677066791818 -1.658426330829066 1.5556742498708047
Ni 0.9764981580889769 0.5789466575640242 4.986209578877536 -0.25155287664547 0.3088681654271713 1.9611341330817964
Ni 2.9130698252439875 3.63067144408349 10.72500416798871 0.06263901498745986 0.7000581689827104 0.10726745233011203
Ni 2.5682262640779494 0.9369919701628779 2.0774477520497694 -0.8242357668046 1.1147832795457122 1.5353234541285945
Ni 1.766260833571558 1.919248939803304 9.287548327656218 -2.0509281112174937 -1.57981022368706 2.248129923915909
Ni 1.1217183497038967 1.4392769950465898 0.005244036756818019 1.8891884959814302 -0.750841570183165 0.7552132168882993
Ni 6.4347219670472295 6.013782469962605 4.850823807889545 -0.5134212762843351 0.6392065849129765 -0.5426991993128459
Ni 0.8718405537538865 4.306341137655286 7.369363194038222 0.16278656844333902 0.3481458799808714 -1.0898307233654327
Ni 5.181291634817744 6.807859624839037 1.1592802443409214 0.24302761278327825 2.483753273815316 -1.579456439892067
Ni 4.244290406115395 6.153410503736568 3.139722574929029 -2.257235742871919 -1.8144961493738623 1.4560817975874472
Ni 7.4762891405439 5.663939297481804 12.288035430884888 -0.7589140627786544 0.8284315500535022 -0.24216732166551197
Ni 2.0080198162587615 6.727625121776564 8.187927334109625 -0.6227360980617791 0.12671810485555596 -0.16792131856674306
Ni 0.3551455380362913 7.3569187911341976 12.49793763095758 -0.9703420463787803 1.058584106646325 -0.5577311539453039
Ni 7.208837710822497 8.611830489679168 2.405959249587582 -0.6046941529584037 0.6637120262535086 1.4602107321541562
Ni 4.81122781213057 5.047913115187235 13.062112288794374 1.362406482119473 -1.4089892149750185 0.4858940173983439
Ni 5.936769938636313 7.534099461005713 11.291942499857829 0.40166236384177273 0.06651135345867255 -0.04724196370609929
Ni 8.181095457833397 0.002534062253427069 6.2107958572366275 0.6538194497301449 2.107198760784764 -0.7017936636165785
Ni 6.024281653723607 8.632958476753778 5.7845419584952 0.9944749348712421 -0.25614975198753304 -1.4262945390226855
Ni 8.049679748570906 6.0801384223568755 9.694180603695095 0.7027789103479831 2.4076046543771956 2.978945428686134
P 4.174943945471739 1.055936426756877 0.6601505297091933 0.9500231323157703 0.2467888795979234 -1.033764476499484
P 5.4108015697837795 2.021870591308549 4.534886332808361 -0.035857633128557595 0.5882925716719287 -0.36362314968086407
P 1.7839631610416073 4.153343772884068 14.024138423835005 -1.3331172462370526 -2.7215458634519 -0.7487762030137041
P 7.928892842622022 8.351165569390583 11.168440990135819 1.4011260101768581 -0.43681911424856384 0.49435217546802607
P 8.245701546267501 2.200838159298119 9.252587156756817 -1.7910561731833672 3.404165782353505 -2.530283556166371
P 4.429600073643137 7.934059107647276 9.031884870390291 -0.36093480421542357 0.9115411741904882 0.30553678706109316
P 4.862594189120022 7.860416684688714 3.975739061904745 1.0535761119087725 1.5642092839250092 1.9139075959946652
P 1.5807289610964939 7.619981673145975 2.04436976807893 1.0734365982781255 -1.1846550648361855 -0.32165194745540093
Ni 5.829454207618873 2.4031002125986953 9.037494619456243 1.5207877224062647 0.4142450856027898 0.08253575391138689
Ni 4.817949511787084 9.29298123861826 2.3348582957140227 0.0876764175720619 -0.655415076352039 1.9841442208237245
Ni 0.27959585594654013 4.879833589616482 11.818419162527363 1.3303096015849283 0.27142210476557127 -0.5686866245155432
Ni 2.645294346641073 5.733276499585989 12.47435890848479 -2.301550248518578 -0.6563293606361922 -0.5335311596603328
Ni 0.47135317036243124 7.709595076693365 9.705129752474427 -0.6293623451290452 0.5833398556523438 0.046180869431436594
Ni 2.6124543071346578 8.725969764287312 0.44453025565872806 -0.23805407082808677 -2.364635092794205 -1.481498952108971
Ni 8.236054148137903 0.7995554326818861 12.73103895338472 0.6578421977362929 -0.34215623805633977 0.44217317947162554
Ni 9.324830614401195 5.63328427329073 0.4722901345569757 1.0350574842792948 -0.8967043662879717 1.5578756283974977
Ni 3.2396648051111407 5.092030055770282 7.1518319574407805 0.7020510310430232 -0.4590501577326223 -1.2906819598909771
Ni 4.271853078122893 2.7678774092474825 6.637159006743823 2.1693986313522764 0.5744101572628817 1.2773559322060324
Ni 7.204967641323292 3.03587509279772 11.514365948712161 2.4716315508511175 -0.13467232670562612 -1.3835676895781204
Ni 7.56424526552584 7.603881073004543 7.578845056418895 -0.9427885622405441 0.6737357290380976 0.3743963290369681
Ni 5.953490860922353 6.4297779069692975 8.944468518259555 -0.20721034597435284 -0.8707866179809455 1.365735546492706
Ni 6.051029574257589 4.672877456803712 10.540794414950215 -0.011181470538116226 0.41374346337602286 0.2984451703216344
Ni 6.609773172840235 3.6301529658730702 2.9410537607974523 1.2195079108493125 -0.22056542712502014 1.2155484119809326
Ni 2.48131635405632 1.637400481203279 6.473708750908961 -4.2601819268934955 -0.19773737348691106 3.548551222581837
Ni 4.382724088297498 4.371271274970902 8.919413058741014 0.8614470857475744 -0.4256582125357379 -0.009936799497737726
Ni 3.998772456402647 0.09121142746021964 12.089339766988843 0.5506775895326324 -0.11934366676835576 1.103843235594441
Ni 0.5524172385615764 6.142781700422961 5.444701712059714 -1.8458520379773244 0.22348568609560868 2.8774349334444573
Ni 4.21145036660898 6.032327324524586 10.820631918776966 -0.8379376897717247 0.0027824478411435953 -2.5011889527932603
Ni 4.3076095575629205 4.062897100784218 4.693132363606132 0.40580235415207533 0.5943331214390538 -0.47643647152986984
Ni 4.147807166279942 1.0712407925037346 9.955751934997968 -0.2503079484947754 -0.32892277008520127 -0.07064183068727835
Ni 8.848126934078019 3.0887691288000174 -0.12799097551187852 -1.3064448791521888 1.4232914905303036 -0.3476496570707432
Ni 6.408224027078987 2.4204414570293453 13.455356716757052 -1.239129284624666 -0.4528980220882975 2.1253664328327266
P 2.2937661199764072 4.9074332957818685 5.232780224528225 0.28581359760055297 -0.7665546100430476 -0.31178919572870817
P 1.2030175848056253 1.8476156199101172 3.4125411799822243 -0.00619918683217642 1.8114182817794866 -0.577377981641954
P 5.630719657857045 4.792710733187003 6.76862841553525 -1.0795313983219537 1.0144668046121368 0.37038617943631047
P 8.908696299302425 6.110293485416474 7.719326727532156 1.6018186096373512 -1.0325354891883893 -0.2421290122284088
P 5.2001512797217675 4.830892949968637 1.8313918811937113 -0.026289015603516017 -2.0553432095660535 -0.7586605520069515
P 5.018109876627565 2.8406402709562273 11.214811459226297 -0.533169662555856 -0.4061314553567199 0.29308622000256623
P 8.377765353293016 5.112806218344964 3.845123290452616 -0.37747059708691766 -0.3710364114257997 0.6398491035929819
P 7.712622619100638 1.2818910825657466 1.474978849103733 0.01886212701182558 1.3399373544826794 -0.38768199040228074
Ni 0.8534030982497773 2.583512112745863 11.630238421909421 0.060661065325482634 -0.020767314454338427 -1.451718635522745
Ni 0.03572592625976994 8.983292351826583 1.4641917247651584 0.8760746058527621 -0.1285047644423335 -0.7779638803212537
Ni 0.2042683788041118 3.39028272523811 4.849495207475344 0.5753187851200802 0.16322725552518338 -0.6756105774633074
Ni 4.1437611845307725 0.033556650461531126 6.515594383479308 -1.3595237612550393 0.35824414475713784 0.5522264220769909
Ni 2.4014614511121897 3.799500911351457 3.0278331254125295 0.7329112109569894 -1.858405963382935 -0.511975287866428
Ni 0.1996844759116319 4.004197960533112 9.689545778835521 2.8731283356493034 -0.2990537504399108 1.0499889087781464
Ni 8.740635290810616 2.3638347466988625 7.050864806939143 0.6393549375653826 -0.1698049087427011 0.304874727997062
Ni 3.1937609664100393 1.7993323365647675 4.513069510397051 1.1282725722813989 -0.3197770990301912 -2.512085802211422
Ni 7.645044539496093 4.3150904574561215 8.660606327324416 -3.323970760760153 -2.7079367573088975 -2.9829674053613338
Ni 6.29589016766784 0.7809735439620172 11.562240930466803 -1.0908136561039925 0.30084246690921734 -0.6681289243742816
Ni 7.11259519301331 4.639278217060611 0.7755517432473409 -0.28694899675657676 -0.6756982520811072 -0.38634681653062497
Ni 2.7252510935193928 8.389301493474859 3.7642249501100156 3.152566625851132 1.0154906178909608 -0.44964994746464493
Ni 4.479586928251294 2.7290656117817678 2.3587758807314803 0.00010438678834820733 -0.44294965262633396 -0.36478991629545565
Ni 2.6359987730114027 5.814381305358809 1.1921934263091634 0.9063714570640905 2.07165968733789 2.263154165238883
Ni 6.653658649936488 8.910677626749386 9.488425303451814 -0.45382001968193453 0.5981869479675054 -1.4711322641626663
Ni 1.302250610864198 5.592398562983335 3.4568516240402314 -1.0377427444209417 1.8078953562278928 -2.643830670857608
Ni 6.639039416110542 2.9567053217745016 6.433693343311915 -1.9305048382317138 -4.059950583340137 -0.07593161833130793
Ni 6.143892725159574 -0.08457860978263412 0.40988202339347374 0.13379918007205344 -0.18568121365332538 -1.7021703086842364
Ni 2.929188942464362 7.048600168184344 5.843542001279139 0.26424538451147395 -0.48144446626742243 -1.237022265583992
Ni 0.6791083151316165 7.912597813151684 3.919015693976918 -3.879652488375596 -1.085740355346143 -0.1020159741231856
Ni 5.060356592237312 6.980105493172092 7.040823920881993 -0.9751664643506173 -0.41314285367754655 -1.2987454536254022
Ni 8.33292624663117 1.3181290060583062 3.7586689005729985 -0.9509854962290396 -0.2617889525511814 -0.4639715062936396
Ni -0.20634599506157997 0.813786733703964 10.245088700322771 1.327653909129636 -3.500283645824701 3.144756899998726
Ni 3.5560290988619734 2.711826211285307 13.112006558007815 -0.5939340862284223 1.2106985400877988 -0.6428138426482607
P 1.9072498726478728 5.831592930236855 10.23904472575559 -0.30424172239875347 -0.7779348268555312 0.5516492094172822
P 7.730797132083748 8.071529901724315 4.5413774948320285 0.4857878308377827 -0.6101081248851234 -1.4433214125979852
P 2.60576964163603 3.2318413392574836 8.191382621040495 2.2742145368181026 2.173598014145605 -2.151150997995998
P 4.339088591766983 7.147462852664045 12.636643514200154 -0.9655130004212533 1.0098879269922028 1.3510308932926798
P 2.06694116145719 0.8553955359441051 11.345075406178498 0.2595729187364691 -0.5970104111609008 -0.08805822639151287
P 6.319332789610395 0.8440704904622199 7.605160603159543 -0.14069153631651252 -0.6997686627667496 -1.8649774459528656
P 7.802800793555806 7.180460287341481 0.3947350528176363 -0.599970008009857 0.9850366722764776 -0.03000503100252252
P 1.8285152529798283 8.634615755319226 6.582061438347241 -0.9906483620363004 0.17802935353502242 -1.3803057309973972
