# total energy = -340856.62017611234 ev
CRYSTAL
PRIMVEC
9.39040599220418 0.00000000000000 0.00000000000000

0.00000000000000 9.39040599220418 0.00000000000000

0.00000000000000 0.00000000000000 13.74380836637721

PRIMCOORD
 96 1
Ni 1.4048141577298132 7.712575371136816 10.342476946197287 -2.188937215605837 -0.9602278407629141 0.1913903482229607
Ni 5.873407974686724 2.010382672670757 -0.11385679707784332 2.53755052214143 -2.0014852832053336 1.6620898957235828
Ni 7.179068833364599 2.273426731108385 1.9725393356900476 0.6330721898804645 1.5056187279753102 -0.09151018949585529
Ni 1.3819579090422083 7.439849803908342 4.243470096830822 -0.22969310045790117 -0.21561836753238994 1.4617037717599148
Ni 9.023804740690512 6.18124427069209 2.856389721207229 1.5704007574477017 -3.3339978059788513 -0.37221371956335253
Ni 0.9950074408129024 0.3321245816382704 0.09207387181874849 0.6373183667513281 -1.162927443351107 0.16330413150970585
Ni 8.545091223087635 0.6686466904993862 4.028269218934886 -1.295928295891581 -1.2763506308699697 0.7200279272364181
Ni 7.341447737352298 8.739669829930634 7.898868822590712 2.415853524649549 0.10624338194097187 0.19797262942616872
Ni 1.0092151253915163 4.861084624843442 4.68555257889324 -1.020909732024003 0.4794837429966259 -0.7996236246828744
Ni 6.768576616795183 4.8278331964938905 2.236529947072503 2.9007890347893657 -0.45115558547589396 -4.637020803933685
Ni 0.8217074944161289 0.746403949027616 10.759286089016559 -0.3993787100139186 0.0044007001708569376 -1.4057845919947918
Ni 1.0326066272324461 2.958625890614197 8.108173464434493 -0.16943646965968884 -0.39511504964155825 -2.7162054250755934
Ni 6.417835554868015 2.3034948117565817 11.290621564875641 2.193594768982506 1.0439866684481245 -0.8205102383238966
Ni 5.100549373316166 5.082435279758898 10.764081769462228 -0.3558622747885226 -0.4214601152939903 0.058159639059867575
Ni 7.939344290428914 5.225554460633091 7.645529748959429 0.8602720916028668 0.43458791092519994 0.1396576957353595
Ni 1.3309586129771378 5.532583181705369 0.2289099319053994 -2.8958242345849228 0.8278389107748259 3.2169887008809437
Ni 6.525139726500414 3.7435981159810616 6.437640860581666 1.3220671590704778 -1.1369575016499065 -0.6174779349866334
Ni 1.5734658530582364 2.8829110454341818 3.627266007829244 1.4311665224030061 -0.5880349471351679 -1.3624717881397697
Ni 7.045631161281252 8.929844336266447 11.016570072291913 -1.586190416181791 1.282757819947894 -2.702747242688158
Ni 1.4312293703667205 5.5624071117924005 8.564495558456601 -1.233469001015095 -0.09688225244104605 -0.3631541804642455
Ni 4.3582283729037385 3.0083199202176503 5.235319544039106 -1.1527936973512147 1.4012825903593802 -1.5411421176929005
Ni 4.7890414284871134 0.04599890476426956 1.3063106747868234 0.06449715124212119 0.44077424224156997 2.1858153821474033
Ni 2.3574896473990337 4.459165849133428 6.426549851820397 0.872950972622116 -0.17175817581433 0.7091063952279079
Ni 6.190681628921769 7.452404776995986 0.8893907251744071 -1.348932101782122 -1.220858768450252 2.0827933353572066
P 7.321540076211082 0.2759521107983431 2.0294245383604554 0.1538581556054576 -2.0053077422752175 -0.4118927833205293
P 1.7056733819295544 0.7747770613569497 8.210193654498891 -1.3941866027445473 0.13374518690566645 -0.09970095283676378
P 4.8260584097223385 8.330445318198041 13.309449029840879 -2.4595548221922416 -0.3740029502532914 -1.194158890561563
P 4.986315081909135 8.26770801438461 3.6208476651924415 -1.033116301392524 0.8666016333653206 -0.938585837013106
P 8.923646668175314 2.685900323385723 11.323661709085721 -0.8844062656469092 1.7936905254824205 -0.3692299543446802
P 8.698502289155588 7.808564103299798 5.028694924124431 0.17986075031680637 0.5528056916192287 0.2045204578470155
P 6.2684435826530995 4.239608761801922 4.020476120830595 -0.4096356118552365 -2.2811017508562395 3.8555134292355473
P 6.171468857839256 5.021012632813284 0.016231317114430932 -0.10737749554541508 0.1400256205977395 -0.3410974577745222
Ni 7.49909387661586 4.138577381510245 9.958379283371142 0.7033149853571112 0.39058553720232086 0.056013282140826105
Ni 5.3434416200514105 7.975863580135609 7.954009287789404 -4.319143235919052 2.1272587647594334 2.2544370970808596
Ni 4.457231425456499 3.5085844200465153 7.59937778057412 0.8032488801402876 -0.002861894928827329 -1.4890435972254485
Ni 9.46562335233875 2.424001894504335 5.276770675081351 0.28525541110423774 -0.4992964068471788 4.063065731930351
Ni 2.4197386500901312 7.539801287487169 0.688197516205053 -0.008316233175179226 2.072996660981759 0.0177174718844211
Ni 3.6626246433297815 1.5264105275966144 -0.18675076423577305 -0.5334745953907845 0.27569347844741554 0.7070636537662662
Ni 5.528179081198186 6.185253974138929 3.277279934560451 -1.779047578758265 2.029407977757531 1.7255331517798929
Ni 3.745147533003845 0.6340411655759839 7.980094897168738 2.135238954751432 -1.1867623409871755 -0.9072926833267794
Ni 6.267617226907614 1.23952422782052 8.93883565020169 -2.4164502776932837 0.35884989666193684 -0.07202842662215982
Ni 6.801386696053396 9.17804216250395 13.327769712334515 -0.12983248211482157 1.5075210872043456 0.6240442753502414
Ni 0.6013343807859561 6.5270084173339535 6.294774281634218 0.3240926956864096 -1.2258893888956244 -0.9029755440086642
Ni 0.2500768465178604 8.168226051115717 2.154011752601539 -0.08962197133420695 1.1094423269487732 -0.689784040750212
Ni 4.761583880762151 0.9523092638274714 11.481454338685984 -1.4183652568732799 -2.6330364084555815 -0.2585725024964128
Ni 7.115918351678426 5.916575671982089 11.716569451007475 0.7561835512213687 0.4817596835149961 0.1857246652967511
Ni 2.7939745083264147 8.319205001978212 12.034395261127004 1.8842825740393807 -0.323817587648152 0.4782490992585764
Ni 8.693675620369461 3.483774966869584 3.6754650847658663 -2.5889137071047545 1.9598730069811856 -2.8555466180117985
Ni 7.484379110102516 7.7158150612753635 3.179066615169001 -1.0948088933063145 1.230306029906081 -1.304038069482909
Ni 3.077874658931327 3.8779372670594814 1.4103347775340214 -0.4863197920818528 -0.0500740338382557 -0.5925503185070182
Ni 5.063654467361523 5.290132284061463 5.741970459123698 -1.031674426739675 1.5279438738350717 -0.3904356418880179
Ni 4.871151140288434 3.5263510685744315 12.657952038182154 -0.9731190949032854 3.402974590258881 0.8298551698739064
Ni 6.496452035563425 8.442782747552936 5.15603071025987 2.0494576973195544 1.8628863677517917 0.6990886059805895
Ni 2.176358102232555 8.883953421173462 6.285854334786086 0.09027940241254774 -1.2356238425745687 -0.3867425093071469
Ni 2.8170373459503906 7.738060933560053 8.566199917181663 0.928552364036504 -0.25889748993599926 -1.1049508668363228
Ni 3.2173879238252234 4.955045029267507 3.729890940052838 0.6460176942975391 -1.0274421338258821 0.5445066848352299
P 2.185109960809731 0.9450316990234888 12.157072466747275 2.6128856445393196 1.2046873008967123 1.0333276460723817
P 6.407459156018465 6.887008419773027 6.686555174812129 2.3278300081507135 -3.161306319716975 -0.6640755802405144
P 0.28745066318863566 7.648232307863411 13.842626903396141 1.175038624792344 -1.522028022571269 1.3351792709724037
P 1.397311223177062 0.6581012643382603 4.336927175482637 0.275336609328629 0.028266965265493257 0.5336671710175648
P 2.227047514893069 6.4129337628323 2.589443948994047 -0.7521911422325239 0.13637876787377157 -0.9413235476592432
P 2.5709523611075924 4.574113811411559 12.869454974117048 4.183694178948401 -1.7599057157224918 -2.3634115047997493
P 3.6085359036253424 2.5002707736500733 2.948830757908347 0.6866946031916109 -0.006254465550144067 0.7830533790290192
P 8.41314662558988 2.907034998958609 7.432101779753805 -0.42889728829832585 0.30497628657193276 -0.07768279669445977
Ni 4.046053709234579 6.149429574490937 1.4339328683113226 1.3283028555675447 -1.032370681475751 -0.2941041197441193
Ni 7.916713411490079 5.741876555061711 4.946424636377112 -0.9474448300656327 -0.7346112243672316 0.8173135857634698
Ni 3.627645380239671 5.289202633847792 8.868288345552813 0.6588786094206072 -0.24621192404853082 -0.40336212014169887
Ni 6.284970697562789 1.9366022511676715 4.565569480811374 1.0387200207325467 0.13026288478402084 -1.9502902483887574
Ni 3.16626655247957 2.541860882704059 9.027194677328238 -0.4237674232709282 -0.04033855171804666 -0.7007883622805157
Ni 0.2558106285427788 7.869620524403662 7.9060712641451065 0.12173864936309357 0.3999782912711305 2.932299189582505
Ni 1.6144549761155063 2.7290304590562937 13.350336736511201 -1.7684870296335995 0.45682023996083904 0.40523182636058597
Ni 4.068384095175058 0.5786772087097635 5.00766698752371 0.7592308226881247 -0.7584083267868292 -1.368742965860462
Ni 2.4145927074932505 1.8784944176101948 5.9862121072296945 -1.1925519510857592 0.7077815057688971 0.8648465983474267
Ni 8.194237476286082 4.200901507450933 12.864617036843484 0.31754563859651114 -1.4780539309831642 0.4861264451241241
Ni 3.3884811247653057 2.9454417603112404 11.127825726852718 -0.16128530130746416 0.02288976011397993 1.6437057367894399
Ni 5.3499491715471015 7.361496254586496 11.43998912203444 -1.2101416391430642 0.9346790457595323 -0.6051294407236094
Ni 7.213634918581966 1.2382846942022934 6.606167663507646 2.8897592593377652 0.20051236512888693 0.09742166988428383
Ni 7.931954040750547 6.275148332678962 0.49424149329302725 2.53175268451273 -0.7405383884849439 -0.31058283412543286
Ni -0.02208060113559323 0.41979341390921476 6.775353672948775 0.6733858018978467 0.5973852780018163 -0.28135247650540574
Ni 0.824460761513584 5.03070353201033 11.636085218519145 -0.4445455363585441 0.49410843488833617 -1.1713976856056472
Ni 2.4901291349554913 8.846100693786553 2.8463701577932303 1.527292356294002 1.0992396753841585 -0.6105665525787807
Ni 8.63553961559339 8.243048807706858 12.28493129850798 1.042565876841198 -0.6258239929584835 -1.114632355790145
Ni 8.402807788365125 1.56750294512207 9.548442039808071 0.1628199927844357 0.4610232222985931 -1.3248380369473958
Ni 4.513433006555642 7.789266818561495 5.879271344317184 -2.393067894213601 -0.9250903736298326 -0.9662118262604908
Ni 0.47860552793159306 1.1139369353192765 2.202609921801605 0.19559075945755347 1.540317050688444 -0.2327347154977024
Ni 8.562538597804794 1.2821378911501626 12.75969708934493 -0.6920718083431242 0.3136920691783759 0.8175285299877534
Ni 1.319032797104805 3.0827107181236504 10.205286867796946 -1.3633845297620262 0.45796155265413385 1.8288526752058503
Ni 6.773487799237096 6.761411736865584 9.140718114986027 1.4170059146319078 -1.2114737276909264 1.8190038074362285
P 5.512036972942641 3.4142296185621057 9.431372784769657 -0.15370054698167077 -0.38110176608160173 0.775123325548665
P 2.945056753657094 6.268274555341523 10.653513492635165 0.9867616253873843 -0.4292729264701897 0.6491683241113788
P 5.29852730720309 1.5827060127577446 6.546300067828536 -2.9062580283237365 0.11700936220822429 1.0162236394022433
P 2.872975995675971 6.555686717864744 6.453556660047822 -0.793500285393956 -0.1177650094273262 0.6165777917698672
P 4.414786789438432 8.658602453217366 9.804695895523425 0.6596288573230704 1.0960875029084218 0.5931519566467591
P 9.075132700972537 5.967894241857914 9.739838237990334 -1.1436613960326434 -0.18903521772722282 -0.051365498956169604
P 8.91188048920836 8.641079955250616 9.949047097690887 -2.1261171949558224 -0.099483437509319 -1.2364789914860124
P 0.11381735737180884 3.2206370043699692 1.4915326808934504 -0.015842366348895295 -0.05938219861305903 0.32541424271131053
