# total energy = -340869.3584219176 ev
CRYSTAL
PRIMVEC
9.26789066767528 0.00000000000000 0.00000000000000

0.00000000000000 9.26789066767528 0.00000000000000

0.00000000000000 0.00000000000000 13.56449480488570

PRIMCOORD
 96 1
Ni 7.0554319235443215 3.0869119169059993 1.9406045316148235 -1.327539495038959 0.26727183004262356 -1.1407092553828548
Ni 5.817834889426104 5.3631243747713135 10.864386658372695 1.0014508519684429 -1.1289189476161463 0.24421674799537293
Ni 4.984883225145499 2.9912580184132027 0.6277336903501569 -0.36029202842510205 -0.5920294130065417 0.6193931497314753
Ni 7.489197005528468 6.978184055708118 7.590284668257902 -2.076088669643521 -0.593075851993185 0.43388908508596247
Ni 2.4763803582284014 8.177439826570382 3.0513602887092772 -0.5124648259083368 -0.4332015721006346 -1.2816525026988572
Ni 8.067550448173996 6.886765583202261 3.0735383508246987 -0.4891109816737448 -0.9656436124618466 1.8070060116444042
Ni 5.35115026016491 1.4651886226549502 7.158404675214114 1.275587270341384 -1.6775514816942916 -1.5167361780447104
Ni 5.013938062058096 3.1828438521156635 3.19681241677106 -0.729917161325672 -0.0352451963555393 0.5757227054267181
Ni 6.2462338627747185 0.7418343982180204 -0.10899224658996126 -1.1107582175467194 -0.15787576140528295 -0.9127570488754603
Ni 3.7526337638816893 6.55408538358038 1.0731207070993423 -1.4390148148028314 0.32842731850602147 -0.4215750436052998
Ni 7.3498079314724984 2.3349523482487404 8.216366820509869 1.2135246966826843 -0.17554489655027186 0.3861686390815478
Ni 1.2919439443751466 0.6757089258455511 4.718952226930925 -0.36596645310206 0.09051028747643122 1.1992522459240702
Ni 2.801544298604313 4.151310612197225 0.009086239907212294 1.0879949557082749 0.8467812562052837 -1.848616488096339
Ni 5.973164735249113 0.9489856541197499 2.2002834108561156 1.5596607453223783 0.09405121075015416 0.45494821974910676
Ni 9.441292794651403 5.5969069142036165 6.993460319721845 -0.49700092594478273 -0.9251968173007098 -1.2819993445153146
Ni 1.3048541159283358 7.254357926572071 7.983777058592924 2.386444989580445 0.5242571905575746 -0.17052558895880957
Ni 8.012990376434136 6.213583084323974 0.9053570592980426 -0.4861611550168014 -0.019605690046069463 -0.4059509639147977
Ni 1.7916500677095737 3.829260683050224 5.936108001625085 -0.41080829200709895 0.6493436733469784 1.4030581942025642
Ni 3.608981460167093 2.182236047564281 5.675913827668532 -0.6767542041494473 -0.3688797700941131 0.4316439978055276
Ni 5.316358598994291 1.7517332630580407 9.494006702591268 -1.2053599014837046 -0.6717094426366883 1.6912654888462746
Ni 6.819990431701379 7.755556180287018 12.286963373800615 1.0935369685724263 -0.8224125975529321 -0.3067146094192782
Ni 0.41663338627986035 1.0769937585652989 7.376331707472551 -0.5425698728238333 1.3822926795204387 0.24674697061639442
Ni 4.389059808790164 5.708251351418273 3.1500559088845987 0.5646361085952535 0.01667823198662934 -0.8137140413376696
Ni 4.370829868054253 4.638968477800751 5.49725577451133 -0.17816793599541575 -0.8605040051080148 -1.4368746285313772
P 8.158144078419815 9.018361876734506 13.23935405091293 0.2540941550100849 1.7872146879500899 0.7535602546659087
P 0.7137072771507024 5.187831492677257 -0.13062813710749197 -0.07787537232124007 -0.4365198378405902 1.135903092243463
P 5.668269671532803 3.006003232297714 5.530474674653537 1.5120184608540668 -0.306368281823453 -0.18989216641087941
P 7.109472993412697 3.536460216517627 13.169659513884943 -0.9091335931902602 -0.22127993669354148 0.4155578908769424
P 6.45962704297011 5.331993530372777 2.3963715857937085 -0.19053314242898797 0.23721203454276565 -1.143044845494567
P 9.03996532963507 2.55875336954552 3.801042736655396 0.41033700879763524 -0.38686078005256597 -1.2414175664382103
P 7.841256364315977 6.4438345574520675 10.35797058227121 0.43047440297745865 1.054592726098745 -0.6127123952771899
P 7.501087709119813 0.4159466355891989 6.913063222672594 -0.6792319762659786 0.4478859135856867 -0.6313354096950159
Ni 8.46683897726664 8.564726437384934 1.7918697167158988 0.08949444461740716 1.416150251499832 -1.2635874176670303
Ni 5.531132694883455 5.448518718411719 8.362578915597755 0.9061727107897233 0.7558878743578207 1.055626309569582
Ni 0.21858041854307403 0.30963929689511627 11.562402470012485 -1.0383937477413794 0.9995546633869946 -0.7215770168910928
Ni 3.584588372207298 6.097159843081216 9.69636182512704 -0.6331963741631547 -0.053266829743940515 0.11340081892135953
Ni 3.6990931601036747 1.081155041427741 12.580295817251484 0.7994775860233134 0.5411981892872872 -0.1310064478182647
Ni 5.308026765378845 6.709415229403389 5.052068944198288 1.1152849017724793 0.5545609837474385 0.6545923233404276
Ni 0.4061198912260643 5.227840976234413 3.867753012922342 1.409214186501631 0.31001847698153057 2.2362306013751616
Ni 1.8209829413390382 0.4137455115806688 9.204974560361274 -0.8341648529928538 -0.8839871758316196 1.1923151524846045
Ni 7.402940748065774 1.9446536730014627 11.614422212949234 -0.6347974001016874 -1.5958580211785418 -1.4593113602683383
Ni 6.6817505760751255 4.9272091421767295 6.371487550145171 0.9095817364712723 -0.744955286605717 -0.9107397613351154
Ni 3.088320636271459 3.6639029796388796 10.675053848865913 1.240604583618612 1.9150365673927856 -1.048122030772737
Ni 8.799037246579285 8.24975717662748 9.099198271796407 1.3102182301516918 -0.5629363522953273 1.3518608453931427
Ni 1.1704511669948467 2.9906648734172196 1.0804543889012364 -0.016191007937565664 -0.1817577102292031 0.6055459594357376
Ni 1.9311132848900416 2.897049910848114 3.867806766687603 0.11928041763058812 -0.24838964842613998 -1.2522529664908175
Ni 1.1679581044336063 6.697496722140358 1.6531182735306102 -0.9901133154684367 1.1253749390186296 -0.9793064546609198
Ni 9.155804693772406 2.9633153283680733 12.508186994732037 1.9533290352150814 1.1379386346162532 0.273313151140697
Ni 3.058663386472316 5.8856017052171445 6.703749767902696 -0.4156368237439939 0.5462234104160205 2.048384518860033
Ni 4.237603941222168 8.680454586835527 5.739435949582071 -0.2657001146801295 0.6591274922066197 0.4814282683175064
Ni 0.16502776650732862 7.405878669374002 12.857635588748167 1.2029893443689992 -0.18591389848942175 0.01692762899327407
Ni 2.0262111099491045 7.618094827467992 5.517290173539706 -0.6784380196097735 0.04571858508303739 -0.1240503282154057
Ni -0.23844706875227464 8.228227866851414 6.602273780558705 1.5770943674177935 -0.3495265623784819 -1.5455009088822287
Ni 0.7318593676058901 2.959580368471493 9.47916695622302 0.03762500944162552 -0.6021161078185824 0.7176609696661382
Ni 4.138381904862912 9.107658002301612 8.299721301437527 -0.11479769926888617 -1.0650414322358948 0.8005109123838343
Ni 8.952865694131212 4.285231630821478 2.0294113125602435 -0.09656909207600142 0.2956015302252522 -0.6564100932754566
P -0.04747291582692119 3.3711395846685317 7.486922665184496 1.2207687798396072 1.5291515209899276 0.7158537412540704
P 4.471775732058084 8.077420751622775 3.372173881255277 2.6651579715804745 0.12909071885279058 0.4845881541027267
P 1.9418918416139175 7.620532282685859 9.95376173007908 -0.35256560631512185 -1.1579145635175476 -0.21762511354977357
P 0.5668010170597061 8.028597504140935 3.8926975403705897 -1.5067746959566244 0.5529118781797896 -0.3026540661966594
P 5.048182917685544 -0.04004933548657332 11.01628182395334 -0.2519552542902112 1.1050462547636066 0.4619804440055399
P 8.142954005788317 6.122331433848237 5.088312883820009 -1.1732897604220376 -0.07096424702370359 2.4781145874723
P 6.1103109797890225 3.6819475625635456 9.520213516734088 0.006209728355137692 -0.17243154773227076 0.28166692242203106
P 5.025124405966711 7.235701662870297 7.570696981554624 -0.3889438878338398 1.634788122584836 -1.162619682302701
Ni 3.5541711553820523 0.9453063015665438 3.751911795206891 0.05915902685865941 -0.06093643047405634 -1.3724669516792685
Ni 1.9020399121963196 6.021367034063282 11.766507370286407 1.3789903546200832 0.3169859094382992 0.14561442753942666
Ni 4.127742366497469 0.16051245022540916 1.4253978613150633 -2.4960434040365787 -0.44994793832103797 -1.288618135383413
Ni 4.611952576811844 7.637974452723979 12.630701093652297 -2.039663594047268 0.8175275015464888 -0.418770227166653
Ni 2.3015972101152675 8.71559842784751 11.652280619106897 0.8706349228944296 -0.15453127041308226 -0.09674264153938823
Ni 1.133546426776039 0.7382718210858984 2.234845228340791 0.174821388120686 0.6860438569814895 1.2489928076823071
Ni 2.810812189166545 2.2098172898774835 8.151732551728863 0.09346294234685194 0.22427501476612344 -0.1471275217498434
Ni 5.793599355605867 5.75001246629169 13.503169189712144 0.6177296459861232 -1.6750048040130376 0.41157910873485243
Ni 8.084992618212118 4.758774499098724 8.929167697963585 -2.2108180748393282 -1.1475954409797269 -0.5450594720149065
Ni 5.878465429484226 7.467556481065657 10.136706182621316 -0.9718158027108295 0.057410676708984996 -1.535968286801445
Ni 8.303548013450673 2.6091706942040624 5.830100942585219 -1.3981180765884695 -1.3039843334268382 -0.8069774939447844
Ni 4.679469159557705 3.5338466713790773 7.610983575039591 -0.5505721743030195 0.6658136459775437 0.39541124072573836
Ni 5.858984323522415 1.137272118782056 4.427085036977945 -1.052664912948413 0.14207684669981338 2.113400518720102
Ni 1.2765129065890302 1.1450478789637688 13.547891395620196 1.3305525708336696 -2.333531429410865 -2.1551099826437463
Ni 5.828752464508414 7.682525202656628 1.3262101161508872 1.131839720807367 0.47056921411581537 1.271056986571198
Ni 2.109455302979073 4.7650952004621665 2.248301278648096 1.7323200927947393 -0.1664051390325328 0.1110613721549055
Ni 8.40310369387017 1.6473490116556209 0.8785413447452805 -0.30385065760792185 -0.9184384155309538 -0.09064475617176647
Ni 6.718460690592127 -0.1578775889385666 8.900424262173878 -0.7366639931312022 1.7148592170058143 -0.8809630442933151
Ni 5.309296466385869 3.0795995512523984 11.819287080249262 -0.26432277471662863 0.3027178295550593 -0.26544146170210414
Ni 7.1846170500912745 8.311129147930579 5.206243084068187 -1.1160693453469874 -0.9286312969035555 0.13346056578571208
Ni 7.400660846987465 4.071291645082914 3.976581217849352 -0.43482188131287697 0.7596558260406853 1.8499609179393752
Ni 8.085696977894848 5.415284062855555 12.232556222255031 0.17266860344374135 -0.813121144948677 -0.25731446171959554
Ni 7.874713449245634 0.6221609077550868 3.777535659033351 2.7349541664380057 1.001424883826514 -1.191026001359536
Ni 0.7145080228952793 5.540289370758941 9.738886614182787 1.4938510459164207 0.871093350588087 -0.08864443791228604
P 4.165434877414067 5.43552513584347 12.131025554356725 -2.1174824020989598 -0.5340091277380159 0.31707049873230553
P 2.645519360989136 5.2988700895033585 4.2738599291016195 -1.2322353857183101 -0.19967624238083675 1.5658933564956516
P 2.4420428236953318 0.33948931881795325 6.990177632884702 0.10242683640835909 -0.363457056416645 -1.312040113851779
P 2.020288927879838 2.393525416602047 11.719736960564102 -1.7107418524033309 -2.503706062788159 1.7952427004608889
P 2.6203570381126764 4.317391211072423 8.568447495445671 -0.03579232710826094 0.8686927115663943 -0.6581011078246344
P 2.4150547263781124 8.225317749214874 0.10642318732611054 0.16263795868061665 -0.1573635976555548 1.743154464406082
P 8.489452630238485 0.9939997985805109 9.794094511472945 0.027529829989152585 0.8924347923783406 -0.35230515356488357
P 3.121147504642885 2.4993461910416124 1.9457046517912198 0.8921108333800184 -0.4076574050829431 -0.2759189641946603
