# total energy = -381162.50952735025 ev
CRYSTAL
PRIMVEC
9.33808892920984 0.00000000000000 0.00000000000000
0.00000000000000 9.33808892920984 0.00000000000000
0.00000000000000 0.00000000000000 13.66723705639772
PRIMCOORD
 96 1
Ni 6.848470498725573 3.9924906540435043 6.892838561437816 -0.05099088922557024 -0.5259620890638231 0.9059356550782528
Ni 8.653747234730817 9.023946438772695 9.179654405370322 2.0850451075058607 -1.3515705678462335 -0.6588811805237685
Ni 0.7026856014687937 4.518514550796683 0.5381036488051553 0.25029946385434315 1.2860143792119787 0.9648956785522286
Ni 7.321183244841199 4.095331029235544 9.28654564361133 -2.0463530902523015 0.20564634392134257 -0.3482073293464261
Ni 8.902719366154603 5.440800258253046 10.496287615265603 2.216932929487814 -2.098058231936077 0.0810591693658604
Ni 1.7531328465044416 4.0369586343090536 6.33696452908681 -0.5775296767284699 0.43649926901529984 -0.2776711709990767
Ni 5.856111770707958 6.3987201136920495 6.097104505000934 0.5676540694859707 -0.09367428702670964 -0.21132693924588766
Ni 3.4258460697314987 8.011510819203016 6.78437572280229 0.3215475606670527 0.03676548965480765 1.261661404288911
Ni 5.115498586575041 5.949548690182356 1.4119900404874028 -0.908327552349197 0.47020797412165477 0.02866317226264741
Ni 3.494593081641404 3.105278809224142 7.764767689645964 -2.14587637986062 -1.4141211368849451 1.3241698072357775
Ni 1.7047522069085137 7.527069433185345 3.1946349837644696 1.35162327546104 -0.2745043432353208 -1.4519515774691576
Ni 4.341025491387341 9.212996052480388 8.659902903061571 -1.931844897199376 -0.4715431479933105 -2.0030174035791437
Ni 4.122588911300881 4.99999576257156 11.567894970188217 -0.2671695001368044 1.5406741769175467 -1.9823724736352826
Ni 8.339940750727505 4.19143864219082 12.597953431496062 0.18755580496821891 -0.8456204031279629 -0.12617020277188593
Ni 5.601350024045903 6.577124305832603 3.924027520042056 -0.7176352586345254 0.07848960886647127 -1.489596384405125
Ni 8.773526903539342 5.821346065011057 6.4475331068130295 0.21405359414843136 -0.44763265992430007 1.6570021967880304
Ni 8.820413448880233 2.8481825402885916 10.59950244783031 -0.9214823445636 1.7704888905549767 1.4464136783700638
Ni 7.663041348482837 7.00060664624475 11.379738077797908 -0.994308841607023 0.8414295049750671 -0.20916309882534945
Ni 1.2754989274362851 2.597632271807923 9.430284047608287 1.2293423804412311 0.20559697874064592 -0.2222793244923333
Ni 0.4129825930348718 0.6966700044744496 10.752493964310498 0.7505929445074686 0.20517171827776923 0.9132293605261884
Ni 4.756346341931346 8.812354677992126 4.293344274664552 1.2142849718874764 -1.0983973819885213 0.020218898150036146
Ni 6.40331445352629 4.745542172849607 11.426944919594723 0.1838953253974962 -0.21366278646791592 -0.398871431360197
Ni 3.4600234758154778 0.7521037027630633 5.652441510905814 0.863335561019539 1.431953794190992 0.7931259327736727
Ni 4.568753470122314 0.02819355859255465 12.525695298086818 0.3837605438606875 -0.6690329242457898 0.49709734231333097
P 2.9898973803788835 1.4648753742622684 9.632600284491804 0.8482501274413263 -0.04637293083758465 -0.32671136425617925
Ni 1.5299992076037086 1.8054915120544064 5.12954680780803 -1.1664094883624363 2.1044211980396272 -1.8459890777758208
P 6.553125416861066 8.28831045612687 12.602259224377297 -0.7347094405079928 1.079673837437089 0.9433716884375236
Ni 3.2464893925033596 6.823817943517456 9.291111035369378 2.4506269235749927 0.7132898371816361 0.5203270022652329
P 0.2686148018329792 1.8582330392572248 2.466758953155746 -0.3287250522520984 0.48347898019894797 -0.04856968137858732
P 4.772996154785918 3.005613384324058 6.279644536801212 1.947752312458252 0.11893074760065324 -1.8387028285270526
P 6.4624992622039565 8.93163942807867 5.731642513556434 0.7124747974795085 -0.5112083277934164 -0.09846913731219172
Ni 8.661880710331676 0.6124497789358134 5.7643351634744695 -1.48751533350638 1.8197316867411886 -0.8313955177778327
Ni -0.029612948134840125 4.177142027787932 8.183094471069323 0.44768305354626126 0.10505553228045778 -0.2852494975669668
Ni 0.0071875271756390155 9.178594532258154 3.4713281664726536 0.8440258049473336 1.714564825693847 -0.5225476640656356
Ni 2.2169557318025968 -0.07597562667755826 0.9017026914754054 -0.06096188439535308 -0.47592173667698046 0.21991545224584705
Ni 0.7510690424914498 7.54796807657768 10.594213354167477 0.39067089782727554 0.08565115961191701 0.7002157776064973
Ni 7.45138422107861 7.898510603076723 3.2019607146586995 0.5277922002940265 -1.3676916417778122 1.0531804191322505
Ni 6.972433631448203 0.7712962772779273 3.6374527714546185 0.577370011222154 -1.223942806692215 -1.0988856344788496
Ni 9.345186041694818 6.544926574636548 12.841695299218307 0.5217933023981143 0.2256292148011727 -1.1079495444533307
Ni 7.632141611670846 5.770705607854386 0.5272135693037519 -0.2587668778954059 0.28489314266881255 0.6231775564745718
Ni -0.042895446062122096 6.936360593278144 4.559636693739857 -0.24557094803042223 0.13166619288945064 0.27696668873288427
Ni 2.391643364483744 4.603425794928274 9.728517400429565 -0.5146150394821202 0.5411171995377068 0.5519777964012946
Ni 5.494027366088752 6.404350981415722 12.879115823644627 0.22576985414409506 0.2258765549252884 0.4956369557177206
Ni 6.591196806097236 9.000274382919446 9.016290139524537 -0.5598996223515326 1.5908605679639505 1.1083346957068911
Ni 3.0573650740829135 4.666616643827259 -0.24504920019540272 0.7175331858390224 -0.9250834316512972 2.9080822260166688
Ni 7.255424421441369 4.928531366735306 4.9537582144227015 0.7622109883623711 0.5174489093864895 -1.607473236819967
Ni 4.116369743964288 5.3373342310917105 7.351033380439026 0.038078552039276355 0.36685502635460043 0.5307335423105376
Ni 6.49926331896697 1.8408922078096976 5.534178347766153 -0.47003005378289375 0.7317367310329139 1.6020255834418344
Ni 1.2993297308041307 6.376215318975551 8.512174333594754 -2.551427537233838 -0.8404542855459911 -0.6089439293736932
Ni 4.519803207091653 3.9000062196566927 2.2857494341579723 0.289236764349489 -2.0548868387549257 -2.8283384330281223
Ni 4.491760925542421 3.4522355095110955 9.810397500841248 1.3459323957238498 -0.031053783982011036 -0.10166578987261846
Ni 5.3056594328849185 7.390238413691207 10.652203821250026 -0.42533271087551916 0.4550302379399518 -0.2430867481559878
Ni 5.0648674675074625 0.9770629380816701 10.34274982057342 1.7109241436174663 2.060222649145542 1.962302185247969
Ni 6.459949963881299 7.989659690723094 1.2807665434942013 -0.4291168605082996 -4.441596909071299 -1.99948650760775
Ni 8.455434236641892 8.145503059612583 6.9805820479916125 -0.41979301200421254 -1.2405667884021407 0.14415404094381626
Ni 2.9449998480150117 0.36642288081227065 3.216816680598318 -1.0370940550933492 0.30391442096632176 -0.28056726159994905
P 5.358979921611564 5.5172325174873 9.41028933124025 0.13552953249959884 0.025157473102234092 -0.378365083876729
Ni 1.872781782065651 6.703935555728898 0.458527254972957 -0.19900441312479275 0.3166059003910612 2.056624904491955
P 5.830469378055879 1.9410245371644814 1.4066869396909296 0.44637101960305703 0.7182451243043825 0.6687773565915579
Ni 3.1719621034442778 7.535370994389896 12.515062016035499 -0.12064361652670189 -1.2163786211917116 -0.22202838482379184
P 8.932162361067933 2.67491429714973 6.427195682575244 0.6082528168439395 1.0250294106193316 -0.45173382657686717
P 1.4636520845909564 7.00194199298519 6.516880557851678 -0.38212172270568384 -0.4776639161790677 -0.9625906845681356
P 2.4756488139732182 4.427486858308533 4.274592457954924 0.24479473198603005 -0.046880209491306356 -0.07023328239495001
Ni 1.4606265437245058 1.4844013185577876 7.454712316031706 -0.17172500858354942 0.051306620693776145 -0.3664292516710915
Ni 8.321040458401283 1.5151889983006508 12.735063659854111 0.33377161353707036 -0.4677343157701815 -0.6962416234500977
Ni 8.003069186662055 3.2924888193803215 1.2890540975651115 0.14452607957125432 -0.7959266354472615 -0.34262700704517124
Ni 7.692446991039792 2.9549168986328223 3.6179772528402063 0.3797290541037912 0.03612142831290553 0.2639067702251326
Ni 1.3371676678129514 9.01641060087385 5.77772878466197 0.928182639401911 -2.3053487963290618 -0.1658407818886305
Ni 7.838541394915162 6.653425831819542 8.911489699431671 -0.46298214579717684 0.04759780438362125 -0.6474785951137816
Ni 3.7693009866082074 2.7429609523775866 11.911789711061253 0.5540647608373103 -1.162925643578894 0.23511709968694988
Ni 6.861767937595404 5.062495592877592 2.62394513925695 0.942624525858854 -0.7393099153944815 0.30214987286673123
Ni 5.628169015923823 7.459471006234 7.984687158280548 -1.0602769209677159 -2.1229231134985564 0.013538400806067007
Ni -0.22625536208485175 8.441389750644541 0.7678514562111569 1.508341783333428 -1.308161090512347 0.0650838769835266
Ni 2.285497305752435 2.985116278762764 1.9599500423312577 -0.5713045217543645 -0.38292776354674696 1.1961453248639724
Ni 4.742880817457822 -0.055003212381380964 1.2327818388758582 -1.5048975335385695 0.7165404829084497 0.5638300677541903
Ni 5.069704597658147 4.18051307795086 4.242461027191436 0.0915397571822101 0.4765046057636439 3.6742015482945107
Ni 5.835082394068307 3.828018890831175 13.8896035178293 -0.04523341791650275 0.6857286397339158 -0.5798881496583175
Ni 4.915654141874702 1.824942751637174 3.623430696871093 -0.4675196286562142 0.536149056899154 -0.5613378974599558
Ni 1.438579315373611 3.385010606123509 11.966896576231576 -0.7028688989586283 -0.6411886483400118 -0.7348302823565731
Ni 2.782451731156043 5.289906076583368 2.292214193237737 -1.1364844186682297 1.4545098251146371 0.28454038731508413
Ni 2.0889398684131786 1.0311865024703977 12.491540303416665 3.1683341730980334 2.9637867186678246 -0.5459706709752662
Ni 6.01013421222412 1.7527966752970583 12.583589582851696 0.5549335365955087 1.0634005541983622 -0.06716544210290369
Ni 1.8426290923811786 8.814063548296325 8.767887631535485 -0.4601575318641882 0.1772143138328948 -0.7826785121881037
Ni 0.2168873911057676 4.600773777625582 3.4155517603142913 0.4276261348953861 0.38680704399649507 -0.5333514395493589
Ni 7.44486623489101 0.4384615691278055 1.1123466362129355 0.31439500878267146 4.63334386930273 0.6017744082084474
Ni 0.8285350281884079 2.303902679356676 0.2471894902157437 -0.6828670019154046 -1.2286733793986644 1.440587815716906
Ni 8.331966022641245 1.8789729351349618 8.349096747084156 0.5597083322763329 -0.15373525687434814 -0.5498476374321691
Ni 3.842661014530541 1.9072953593570137 0.5129122858563163 -0.6213852404608395 1.1216303843745328 -0.5074254637122164
P 1.7307774612134454 5.4201444051771555 12.011998612746607 -0.41813773578897667 1.8365199619431207 -1.1402870802437717
Ni 5.905211443164123 1.9282313551057242 8.183012295885296 -0.6059259684829758 0.41690926269851425 -0.28026541408881406
P 4.130292834803417 7.607031490097126 2.4054749420497523 -1.1133416620031793 -0.319492735020553 1.1800021394452065
Ni 3.338852431731949 6.571764242692657 5.084881793862598 -0.4724173230681477 -1.5100117148366834 -1.1079490302326984
P 7.363811621555234 1.4691148667109368 10.25899743329839 -1.8649247383380592 -1.2858580561397726 0.6197137662956875
P 9.108213354756801 6.604512921145256 2.2798048066407426 0.11203479181176834 -0.09856838189421735 -0.09842902810287564
P 1.0020703406753577 8.803969073985728 12.48785082441563 -2.2398273175874848 -3.9633673501967484 0.7400419084644997
Ni 3.1649491985346963 8.91832331303065 10.735614434464212 -1.0772762837391898 0.03153920825886181 -0.5933753855114748
