# total energy = -381170.1164631791 ev
CRYSTAL
PRIMVEC
9.19869754153662 0.00000000000000 0.00000000000000
0.00000000000000 9.19869754153662 0.00000000000000
0.00000000000000 0.00000000000000 13.46322367063399
PRIMCOORD
 96 1
Ni 4.032147849064709 4.182721327904924 4.4406288882711396 -0.4131400254640692 -0.6534252996155199 0.9029102379883677
Ni 8.728837199250657 5.192995873329992 12.741082746475383 -2.096110621291403 0.44148592359661387 0.5517551388675271
Ni 5.345133130739625 1.9175512753101605 11.090222867742847 0.20444846695849953 -0.022845794249921943 -0.5339728751834417
Ni 3.2319531563950203 6.18974833347831 3.775936528511441 0.16885128658018017 1.6301233701193152 -0.0268752271242892
Ni 0.9177752033043807 5.388100246608806 2.511187376614907 -0.2715591445640678 -2.6681291383936565 -0.2188373886903199
Ni 3.082823873057154 3.7199072622388685 11.126492411986177 1.1147652818235834 -0.23102750299860858 -0.41418415045786733
Ni 4.8564523277958696 6.700000081982594 11.341540481243577 0.2891053809779473 -0.6850979481284524 0.025184726795743722
Ni 1.279713592936137 0.8334102693539176 2.4531610731222107 -0.09450115380337917 0.6259258086436704 0.8222719582100098
Ni 4.550338073483168 7.313314036909125 5.991928504707184 0.3247197877474472 0.6464547818349576 -1.6094596711223765
Ni 9.061609278823235 8.63352949479324 1.3012201476143959 0.12106733432768182 0.23131983742804677 -0.22064898797776192
Ni 6.360577344141246 6.64736513507541 13.058653978483454 0.27855203094213316 2.478349072080609 -0.16333627029922193
Ni 7.487978904415874 3.122010324267326 11.998828809411945 1.1657805965291859 -0.7586309843205966 0.2896039178809206
Ni 7.74758454433453 0.8447973369485354 11.229795624282064 1.1024173017811918 0.39485331133973933 0.7724684044243212
Ni 7.760674290830322 7.67812517975988 8.968890087833083 -0.9807118196488789 0.20347633285321728 0.19998168943639752
Ni 5.781822895598898 5.66133835617382 4.534966130145769 -0.1528058030815433 1.7478582976396542 -0.11664657955216685
Ni 6.69440727392255 4.726189572963182 0.4035643354102237 0.5034783061390103 -2.0250311888460737 1.1155294136831173
Ni 0.62563101083508 6.429466389472931 9.5413057139508 -1.7727262645259276 0.7209627803458615 0.9267258523507265
Ni 4.16770905363849 5.1140526516666815 13.037799611455618 -0.8406558600338361 1.7713473819005299 1.5307288927793765
Ni 6.768263615886512 2.4085317526207097 0.7068315928568344 0.5327287183636955 -1.4614795715642508 -1.83607438976527
Ni 1.8334015908804289 4.717910745242723 13.498632277687243 0.4271314546471547 0.6237293152129839 -0.26907777290311075
Ni 5.656131893407397 4.293409254527459 11.716598973072767 -0.22032862852386567 0.27307301010543295 -1.7127321433604823
Ni 0.46342301943838177 2.2846988873175786 10.839833402816552 0.7038970831128265 0.7343029490981934 -0.28002373039165324
Ni 1.5335700469378089 8.764518946725834 4.81575453059184 0.6481316553167483 1.3538300533043717 -0.7617772432590623
Ni 7.895876746202885 0.5243340344567848 3.176512606760347 2.143515335827612 1.1909637806630327 -0.3641144874949858
P 8.688473314764686 -0.11886648854060235 5.20757488894572 -0.705219915689308 2.165373569353284 1.4591002726987967
Ni 2.5150710666855485 9.07126791116377 0.798258366852849 -0.5620457221602578 -0.877577929871166 -0.3198079522681266
P 4.272629396949107 0.9215899031440189 5.451636569884342 0.1960946956771655 1.2996538243722844 0.6076393516296567
Ni 2.6758459010168605 1.8938370332397791 9.26847326694409 0.4833787071756579 0.626522818797721 0.6421777517261587
P 8.264514547199985 4.25574058839937 10.341815921943615 0.7129481375715011 0.4568631773836326 -0.4425207926190314
P 7.290124120594373 6.0719590124111145 6.135312281607053 0.9041759920746686 -0.08122680529197623 -0.6165469385319317
P 3.205267735042741 1.5789840163332596 11.647734764224245 -0.9188963290039788 -0.7201893925149467 -0.027197386350398322
Ni 7.557925799956283 2.24256885291791 5.273490915256014 1.9974856751276373 -2.7467601579339984 -1.6568934391243075
Ni 1.154316949063586 1.722327318964272 5.796200459740095 -0.723706918749902 0.2888860658782896 0.7762003606629277
Ni 5.964187072885673 6.387235169401123 7.65304861059461 0.7059771055703067 -2.5346711437111056 0.6992189609108668
Ni 7.651504149289871 5.471900380534786 3.157960673708545 0.32566055439416175 -0.6366591359007745 -1.5606207952428026
Ni 1.2709656316448523 7.4107006469941235 2.809842407151475 0.23378501113908767 3.5709005368113145 -0.5375335959515065
Ni 4.315706897187895 0.06884857106282975 7.482415532187725 1.2218728115370634 0.6569824208391588 -0.7186559865895559
Ni 3.0018201431611966 4.2366624898524465 1.9677844423086648 1.0733939179656482 -1.826011349102313 0.9405694431020383
Ni 6.567658421522324 8.357071841114717 6.8303106700421115 1.2071727863227275 -1.6789288216577922 -0.988794339546697
Ni 5.220187223042966 7.7236311361300025 9.174136944939209 -0.43450280741056135 0.946639560555518 1.0195966696395342
Ni 5.998461419648373 8.713521367967807 11.359204739989798 0.19646056365701647 -1.2953847646832852 -0.9428284143395439
Ni 2.095463283022822 6.334876183417955 7.9446077659049985 0.8295286397724229 -0.9506641083338788 -1.6323214062118983
Ni 3.4467611396485274 0.3671733683603265 3.5834924185401333 0.7597566132846076 -1.7859862148596275 0.04984237744342384
Ni 5.2459527746485275 2.327813182346235 3.6353261588979264 -0.650408624276383 0.21410038822596678 1.6356628118803058
Ni 4.731248856570129 0.3717855952703688 13.001946768207551 -1.129886710846054 0.7390170667444111 0.49103519527965117
Ni 2.5622143912048285 8.778225005951928 8.537406785740233 -2.3013188492340624 -1.3169735465976546 0.1220348404472737
Ni 7.676257844174043 2.2727405806102494 9.339747534529014 -0.1997430910630302 -0.47504473338866576 1.5198094176533956
Ni 6.761171420139318 3.7952445944950446 7.97450997176155 -2.22354323571548 2.4155480775939884 -0.7504245372504044
Ni 7.100732138442674 9.324259687603528 0.2050168896694445 0.07123626973816764 -0.5084611040655824 -0.849327419665905
Ni 6.977304015828099 6.0539019692830465 10.607202943220392 0.6696358479371113 -0.6299261880523152 -0.4882638031821011
Ni 0.17522690792199316 3.533100114075447 1.0461559046352837 -2.282191384375992 -0.043252125820415835 1.093320481686246
Ni 6.073633175350141 3.704830597090166 5.678263039643677 -1.7635667095138468 0.5088904782935171 1.0677680871384385
Ni 6.232402693633608 1.2504433375955812 6.849967366659721 -1.3036187225573033 3.3575794499535334 -0.30931425182565436
Ni 0.7669717570274881 7.2393565092730245 13.186594982075425 1.0169193799176874 -0.6982717665062491 0.028818724003905203
Ni 0.2631774941451618 7.768254017543276 7.263220690112122 0.3019786373961896 -0.01563796364757307 -0.829372573810533
Ni 4.630661099766553 7.9217986756653875 1.2216937285316676 1.2916610359747949 0.3266080059090956 0.590780628201105
P 1.7692222786519383 7.0553917586269606 11.1142949391447 -0.2945221811181443 2.007620192458478 2.3987137796454685
Ni 3.454975576486716 2.5640173359083955 6.820105635072025 0.17491446205512456 -0.4814310965309837 -0.9343262904058038
P 1.7516711638845655 4.644587927731859 4.390572336264005 0.017038186429209366 -1.4162790637682123 0.6675118596155729
Ni 1.1067228883684146 4.824992782458126 11.37366417253845 0.5490426250323706 0.05281200159470904 -2.7060601091114753
P 6.2478381079835295 0.5161674308454255 9.111586722032152 -0.1881942098831662 0.16639742572304891 0.1542638756843085
P 8.48203614620631 6.0482631677356675 1.223334776159812 -0.5493588707212087 1.0028315343660537 -0.27327355615201326
P 8.7975698667254 1.5826267005302614 13.356567594004167 0.08053003633526777 -0.5706987698495655 -0.7563437309483168
Ni 4.162245027342988 5.215974219602999 6.881915362832972 -0.04411318826913047 -1.0880646326039454 -1.057489588030566
Ni 5.124971505560221 4.741404218573892 9.221459644059097 -0.9319822156536594 1.1364103708971847 1.3753157339819733
Ni 3.203621168196116 6.059421187763353 10.009772379210434 -0.049324557266740864 -0.8714347930879057 -1.0630711958834014
Ni 0.8786742999806533 4.029241060665082 8.791862074947018 1.573294276945413 -0.9431683141774659 3.018394378710376
Ni 2.4964529030119835 2.5108304671531805 3.851936166985254 -0.0954203231835389 -0.01775012489456943 0.4176911351698613
Ni 3.59828208432786 8.675613535705573 10.640995278235811 -0.9279067600327052 0.6793237646488365 1.0086972491182111
Ni 5.3846967285459515 5.632206081295271 2.042815457939184 -1.1997908920363594 0.11485632042096348 0.686658864857669
Ni 7.0383005787329465 7.675669127536144 2.181446267857762 -0.5388577140795687 -0.42777474465810844 -0.6617906408610796
Ni 8.569948097900117 3.0536915981786055 7.3636428703612875 2.414908130017144 -1.80468250571755 -2.7294522627831705
Ni 5.776230087538855 0.7193464207609281 2.155771783357125 -0.39905320835369984 -1.1017372449950316 -1.0734918769960933
Ni 1.7040587057944594 2.284312542023957 0.02720238814993455 0.7462788905131471 -1.352495136543032 -0.8241072116465354
Ni 0.3915471570391042 9.15669621454144 9.53388788431327 0.5081456297076926 -0.00399729408485118 1.1060464138933468
Ni 0.9387546726177705 6.624947909347901 5.086864061562949 -0.09996423380047946 -2.502046929918181 0.3747951071372836
Ni 8.20995707252216 0.5329596530717563 7.738687564144278 0.8245728384290444 0.5773890373855475 -0.8469851446859736
Ni 8.459112992118106 5.342253938432399 8.03544398352362 -1.320215964794352 1.7473219655202101 -1.420606744609289
Ni 8.427598254595559 7.810301263665741 11.386764037601457 0.26048643168967395 -0.44140339118513655 0.2716162230542483
Ni 6.133654676323467 0.10323790154386935 4.46949440092314 -1.174918297164396 -0.7040117543138198 1.4660183399748687
Ni 7.937344474384916 7.330828356886629 4.409622838718527 -0.7795841895334961 0.10934927455980521 0.7231590166662321
Ni 2.9557990597329127 6.395688772373458 1.3746625481923336 -0.9070306879146444 0.5986888273045883 0.3661999092691048
Ni 3.2889298885067118 7.362214312644635 12.84446690730898 -0.7716952737037226 0.440784526654215 -1.4940827023112526
Ni 5.0595411704761935 2.5762424048422727 8.570660996953821 -0.8588495002237272 -2.110296940094114 0.8882755187943283
Ni 1.2923801993484392 0.287751814428724 11.833176825683536 0.4230673118801101 -0.7581039081725331 0.686878694177959
Ni 0.14957266055578444 2.6866267744483916 3.444390635311236 0.17104546601802156 0.6009791660006617 0.35996164166887684
Ni 1.4702186174813638 4.06498719902253 6.617403137685323 0.3980049695948436 0.9718512839344553 -1.9802592839470214
Ni 4.033196500575968 2.8814367894082573 13.271669135600607 0.733874089090891 -0.32247855712175433 -0.8159971809448914
P 0.875945046442142 1.652205648171985 8.198994984750527 -0.1881222189946502 0.0126372291480363 -0.45588281574823425
Ni 3.5561244538357895 1.680813597294904 1.7436489798234405 -0.1511834369867719 0.7840077725224884 -0.093637006030871
P 4.993439330477063 7.739360908798875 3.4061958036880253 0.07294605334042276 -0.9779980202621413 -0.2622890321160515
Ni 8.295744125101049 4.408337780682363 5.183718067064597 1.384299168427506 0.6167140602374154 0.17161470825793024
P 5.138410802559766 3.328272717573826 1.657753382614439 -0.8499619679261103 1.0619360538376936 0.8556045109238684
P 2.5226231973061006 7.597195039443661 6.302027634762667 -0.4550847453269711 0.3373297632019739 0.9300914263888498
P 3.0514471159966146 4.22866882175347 8.351749474760208 0.07471034432969713 -0.6723244505128679 1.3083315546519403
Ni 7.196600963445588 3.228393260475223 2.6872458467879325 0.4814521795769064 0.2346108494744927 1.530756146472886
