# total energy = -340891.68561231584 ev
CRYSTAL
PRIMVEC
9.08870927995982 0.00000000000000 0.00000000000000

0.00000000000000 9.08870927995982 0.00000000000000

0.00000000000000 0.00000000000000 13.30224473203386

PRIMCOORD
 96 1
Ni 6.431234139630678 1.7670813443505138 11.478294246882939 -0.8455988058614081 -0.21516173961094556 0.9658809252836335
Ni 4.72103902517889 0.3929376112717043 6.0653045361504825 0.46395016613740103 -0.6604624089679593 -0.08611781483569039
Ni 2.5781850054548565 1.3373035598448266 4.950483484963738 0.5031661742152302 -0.5013538035968398 -0.16930148674372134
Ni 3.502406739305573 4.371505452811862 4.632280510408961 -0.624625344664692 -0.11031112425244227 1.0539648627067593
Ni 4.618309346868408 4.719757517203859 2.4220464373254127 1.4967129408452482 0.2906074194447705 -0.3676284141855153
Ni 6.932921790082799 6.250932329640113 2.6269804665637055 1.0289230892467829 0.31417029436637506 0.025723887128665378
Ni 4.764583030202824 4.525822643649133 11.427240241576962 0.8778190993476948 1.3544152363838804 0.1512240604167202
Ni 5.836223624727347 8.039253987023592 12.461981586258723 -0.40779213088859445 0.3612153115703199 0.7077010302399489
Ni 1.718956629969022 6.59790288605708 0.3375273877215241 1.212748480638292 0.32295729653038574 -0.7648350562487796
Ni 2.822071423908673 1.701170026372312 0.5187144379728549 -0.3645952837861463 0.03033336087621873 -0.1424342300392321
Ni 0.3542996913890605 -0.3375737401376422 4.801857643729052 1.6901977097033922 1.9668733495584192 -0.22719167419228614
Ni 8.64912454121186 2.4660848681212735 1.4770942670190315 1.1418945339402078 0.8478269238609786 -0.5851188019296374
Ni 6.950853813024192 0.8265926390550393 4.825455567887712 0.06486301922197216 -0.7079208595602389 0.7280500262099462
Ni 0.6620997295734771 7.54751847297331 2.33778956014437 0.37316605617429277 -0.3636460324989995 0.3298835913365738
Ni 7.740071862753534 3.904845687010594 3.8732542432488137 0.39077914127036567 0.5260605623149004 -0.17719117390444322
Ni 7.7595944097774145 3.8128952176248427 12.625519272419888 -0.21381268178221888 -0.47449348887088605 0.4472343960446169
Ni 8.144346729685195 8.68430693391644 7.055975639554733 -0.6341762215779208 0.5751334085821515 -0.24295767877729124
Ni 7.0997723106900565 0.847974735949071 0.6288968576984125 -0.6257406892160577 -0.574954716912442 -1.0404069215166662
Ni 2.069553581294056 6.545270171990372 9.127960450517731 -0.8725308543655619 0.28533614374350214 -0.0700191095016149
Ni 9.145331700111187 5.0968571440976245 1.316701274186665 -1.2587174911692385 -0.2152013345996294 0.5348138830274982
Ni 6.800535654165742 2.2118191439406085 7.009910426642334 -1.1978918752414338 -1.3704116118121366 1.1582002130787667
Ni 3.2856501173444395 4.348565551187898 0.39061999046579676 0.1498490344460645 -0.006310001378427842 -0.10834243056184566
Ni 5.7937884422066315 5.369927407287791 4.614415743914483 0.22841320530421308 0.6681055273355138 0.9010479879686482
Ni 5.107590909477142 2.8629069936378597 9.46333654080883 0.33217341581201504 -0.4848375511093715 -0.5161206774933692
P 0.07135091034030279 5.667219080076951 12.48335822992733 0.14045987992168066 -0.07926042559422478 0.020613562485293533
P 3.879406390399868 6.178731625004311 12.671399075667814 -0.3375742751126122 1.0312255121277143 -0.7575722040387792
P 2.390157792777934 8.675699926452934 1.2990291883238938 0.2265077607513841 -0.185384508348513 0.9045529157981131
P 6.428289397900818 7.785233657987082 5.933466449388706 -0.7055747279255655 0.4663086390672485 -1.156081624073867
P 4.790213189703449 1.2624853070047053 12.847627326265409 0.21812827843843724 -1.0555756588373046 -0.42061730767772076
P 4.043757516020363 6.472615031902431 8.034156130121499 0.04118675865095487 -2.204654369230777 0.3983579820588881
P 4.7062244294391675 1.181532175560711 3.9071351328184694 -0.1369662649461254 -1.2592569086124765 -0.09401084443052196
P 0.21367736733744175 5.664501556073161 3.579088177499463 -1.738770219295457 -0.47629891751074094 -0.7838139113441275
Ni 1.791320931367594 1.1725707084445351 2.7561182978688743 -2.348546671872775 -0.08069150161379651 -1.195434671950193
Ni 1.7553387322672491 6.328777122591479 4.740507948819419 1.4687113134259995 0.9225912613570627 0.8664023728703208
Ni 6.106976267111605 5.605661253730237 9.314789771342816 -1.7028264542109965 1.090894902963889 0.4364370483187967
Ni 8.287621139035496 2.3442234572757505 10.299821330786026 1.430088458847479 1.0598426616437746 -0.6559262116605027
Ni 2.3939477844487707 5.138001729934265 6.9702427560251445 0.17266526100963167 -0.3444522331793681 0.37902894271297305
Ni 0.6929504435482715 -0.22553177054193282 8.98529316693149 -0.1724850266780255 -0.31608653755248145 1.320950014746899
Ni 1.2597496055828303 1.378766250497965 11.319678096668435 0.5437741775445796 -0.9217908769429545 0.3263131003764961
Ni 4.192566949177713 7.2181891008083685 1.283784696646448 -0.05509411276066641 0.34954661698313994 0.9545868404270527
Ni 5.749971775911415 7.890353666775813 7.969041891926349 -0.4222928956079308 0.38593826823829663 1.000905006767302
Ni 5.368773141239358 2.850900808992354 4.924743352083696 0.4255790225583703 0.7905949388217028 0.5683701217163889
Ni 0.6993825229378431 7.065380635672197 6.996900848518507 0.691223601410216 0.4794456906698388 -0.2945196100149831
Ni 4.8980779886231 4.505882016009285 7.148226945209801 0.8508040042114314 0.9189552072663723 -0.09930757405308703
Ni 8.341208167551695 6.961669376785095 9.245990970501726 -0.7732711028312746 0.6444264385510192 0.1787027254529632
Ni 4.752849506828602 0.17571019418215475 10.347856066947994 -0.31826014816503256 -0.11363376086777204 0.3534019861734881
Ni 8.216638321411425 6.967049892538418 5.088587327739604 -1.06873893569214 -1.4900067324696662 -0.7515177703145831
Ni 7.07892281214593 5.931636892258395 7.176334686795486 0.4171710010003331 0.8788048602997316 -1.5499733428312852
Ni 2.238985295269462 5.430576362730227 2.505903411308574 -0.4219686794992927 -0.21724896115727746 -0.3599495574840188
Ni 2.3185842090660826 5.265089148479385 11.375094682314945 0.3148845468245803 0.5184914917183909 0.571791488693112
Ni 1.204172149786263 3.4586900488098267 3.8353697773458157 -0.14219717432776158 0.035312045037732734 -0.16217258900842393
Ni 3.4810300956369673 2.714597439477862 2.8782069264404666 0.5054919941349294 0.29572288629446486 -0.4153745712215427
Ni 1.134543549809566 3.033056715627645 8.173630550221016 -0.04223139786538534 1.680257310661229 0.2795956417152991
Ni 3.7986168557186435 2.4681025615287693 6.930974988605836 0.001635221610577829 -0.13376524151032446 0.9587152607731296
Ni 4.043203104768753 6.959224514052589 5.783749054197982 0.9746363028787602 -0.20273174137770889 0.4283581279654042
Ni 0.9347373702132069 7.342686237276296 11.185777781824854 -0.40304638867349296 -0.5409007126515265 0.5804129118135359
P 9.46788998403926 5.383724067614723 8.239250120638944 0.43049780001622634 -0.8991268596865354 -0.6175542967505234
P 8.687242586937257 1.5292298287011 8.1083963410665 0.11271073483287039 0.11450536483944795 -0.4000855062729561
P 1.825612630585983 3.347453338835307 10.504862606791024 0.11490542849134404 -0.5047628292783888 -1.8064084872697213
P 3.8974929213949894 6.291168044572477 3.6455066454422522 -0.08966259476415527 0.2837716274698597 0.10302821743778386
P 6.635793714056408 3.892103316932624 10.6017691492178 1.4448003111363568 -0.04327166620444161 0.17536903309403992
P 6.485511910034128 7.672824504546044 10.392391650128495 -0.47275953689891487 0.5470489916411094 -1.0413343184269421
P 2.3168028220936994 8.205577362506368 5.77582097329997 -0.819439630967537 1.8848988674671407 0.7634839415375239
P 6.786166405169115 4.338040826116365 1.65977459216609 1.132541889080714 -1.8356293318080517 0.7762034459867213
Ni 5.287720033995893 3.0496981418849654 0.762538144334276 0.09020226931770917 -0.5809744407439608 -0.5221355162288814
Ni 1.613427629273365 0.8598245947990406 7.157538327624124 -0.5146718608619846 0.41921322824134255 -1.6598535501938962
Ni 7.057900628129993 0.6173314754414817 9.103523638514424 -1.1651311358706449 -0.7064098222323512 0.7116648999837034
Ni 2.657656677324878 1.4718073649688495 9.351291844600409 1.2428435002514597 0.6928120289432584 -0.22031782989058832
Ni 6.731134271915115 2.0193929960869825 2.727931484514517 -1.1708536401767191 0.8198818607112782 0.33759355838632177
Ni 4.094672464077987 6.817395209440089 10.358444412982827 0.6946092300529972 0.8678997833514537 0.7500015907803728
Ni 8.26598092280465 7.431573811714633 0.12288298174193106 -1.9623317529343236 -1.300315112105367 1.0902302727966964
Ni 7.660091223177116 4.168572757304788 8.515657757789617 1.0022754047522673 -2.0397960058600737 -0.0671189051356844
Ni 3.258983845012938 8.587384940684291 12.558901761749064 0.34595555719777193 -0.35899464976991724 -0.46666422263445434
Ni 0.12031814805006005 4.937268502015543 10.448793451835243 -0.16778427876824653 -1.0935559947358198 -0.5125401592309624
Ni 8.926493763779257 2.2605891566641376 5.868976605504794 0.5802946410681167 0.11770330295145535 -0.2115128300044486
Ni 3.640173390975952 2.630608679213581 11.569227689726805 -0.6217469946756324 -0.9961947457758262 0.012198341838404798
Ni 1.2692291291144442 3.4411761064844 12.686497239129672 -1.6137343872383305 -0.15406281541709596 -0.5612535652762657
Ni 3.2090413888228912 8.485691375204686 8.024632071915576 0.5166786068793683 -0.15521569807461658 0.17506744269322108
Ni 5.280921679631898 7.981667926528571 3.7220081271970953 1.8431323250533163 0.49043561402243924 0.2890794128360183
Ni 2.969990163579831 8.405738001755395 3.5208913557567683 -0.15105436760807536 -0.8417632341654019 0.07275810569933276
Ni 3.540942865646938 4.558587439748335 9.293426760737775 -0.7185685690820721 -0.1380623262237816 -0.46218973180286854
Ni 7.130055889220581 5.955294801896738 11.57047829609109 0.2380252744726804 0.08128002712741486 -0.3715359767700375
Ni 0.6870255141232866 -0.08367429093140101 0.04282690588045867 1.0583822750481644 1.1034899660200803 0.12744264172640635
Ni 4.875856095013515 0.7510654669095814 1.776315472737973 -0.41038431709580286 -1.0620062449539966 -0.29729125922284927
Ni 5.786535652390498 5.521817912810641 0.20283635519122012 0.09105536134662383 0.7007150858404191 0.3039555586169023
Ni 8.199088024249827 8.80248741759964 11.414802343251923 -0.892765693355198 0.5602222957982738 -0.7550658926771576
Ni 0.2059256073948592 4.7734808763557 5.8435963855028445 -0.8069574393401264 -0.3731120630079058 0.4870651548883096
Ni 8.02562092345943 -0.11874489251475574 2.855287019976397 -0.7315500689434046 -0.48360984934985746 -0.6946022880744619
P 8.860355228074987 1.755502329030019 3.6531157126528635 -0.9473407003876008 -0.6376297273441599 0.6190013136096952
P 1.557023100953905 3.490954965911677 1.476296278365076 1.7637824250690786 -0.8944515656980531 1.5964072088137924
P 4.873838401606019 1.0457650398797427 8.329971796562113 0.1781190850353513 -0.44918689178529736 -1.0478854892818987
P 8.619140890079747 1.5949593724984468 12.518728758909095 -0.9946615969607514 1.1835949990027874 0.3399101223346404
P 6.367449579568485 8.042616809369418 1.5220697437172022 0.1170299310335146 -0.03480399505306264 -0.2891951124782761
P 2.031071987206948 3.122798628716002 5.962504874780371 -1.2207957764228008 1.0375902780034774 0.35169683055692336
P 6.94232860394207 4.033550895765327 6.070506004335663 0.49514536079328264 1.1321690791223276 -0.7002510017198069
P 2.3734073020120996 8.710155222434091 10.47441361375592 1.4369288788080803 -0.23888659403171114 -0.7146450656579499
