# total energy = -340896.3401963982 ev
CRYSTAL
PRIMVEC
9.02045135793218 0.00000000000000 0.00000000000000
0.00000000000000 9.02045135793218 0.00000000000000
0.00000000000000 0.00000000000000 13.20234236353621
PRIMCOORD
 96 1
Ni 6.517249171254946 2.155509057428252 11.46441298139426 -0.14948470912811032 -0.5104025440626694 0.07845309920158101
Ni 4.6897147111159 0.40958262230846926 5.877432152198197 -0.03165027991542936 -0.5091038798559039 0.28894777235416047
Ni 2.774618727945793 1.605333677526077 4.926797434668052 -0.24456281848088204 -0.6826397163959469 -0.8458983393796979
Ni 3.279349073024595 4.258952068607892 4.891402084897622 0.5935772171096358 -0.08813175994192564 -0.0016969280864486905
Ni 4.975509677036686 4.455399462094079 2.9342202830550392 0.9346723608913129 0.9206295096450016 -0.9312795331596799
Ni 7.1968409693014115 6.24980180375233 2.725042326320295 -0.6868853790461784 -1.1369209919850163 -1.12160467334292
Ni 5.255387226751809 4.723360995334078 11.473258436167542 -1.3552894114587175 -0.8633242481656294 0.18194077277428666
Ni 5.743014795723998 7.863244867206594 12.260302754920538 -0.6180926857524968 0.3479515045818782 0.02692150698119234
Ni 1.7714633334097722 6.4122150336044195 0.4572457861638126 0.7965079618720283 0.7479346809490152 -0.35402650713136447
Ni 2.825674483622706 1.5869229359471755 0.3448978664103104 -0.02012505288464921 -0.2255914195847018 -0.1869737072125038
Ni 0.5201634356066521 9.121390385678128 4.705447280634647 0.679038886418566 -0.07294811022295179 -0.047788837348504795
Ni 8.233958363859266 2.3584150942120847 1.1907654516553052 0.9425147397538672 0.0352235990889845 0.5046705266748985
Ni 7.107556540027544 0.4350969694696265 4.7424924709904674 -0.9908386236702355 0.4766624714977468 -0.6611288389073646
Ni 0.7180126072610719 7.270474915165483 2.618183351324638 1.1461530521062455 -0.5715310359428737 0.1267193904071366
Ni 7.466931329103204 3.9711635828983067 3.813721523886066 0.5807764658005417 -0.3952657162868096 0.21840081537353356
Ni 7.4631607803624 4.09483397341606 12.701207993132277 0.4045795374885677 -0.17622212512295457 -0.08440905967469979
Ni 7.926739825547548 8.74979288477522 6.900389241939511 -0.27549576061431263 0.35598131686489015 -0.33326613465556154
Ni 6.921130868194545 0.5567630156567421 0.2365162391958786 -0.3117305745766309 0.373248331475454 0.13682176894846113
Ni 2.022538581379951 6.349676243125967 9.291095748549512 0.33053228066416623 0.1468344159894568 -1.2663647233018511
Ni -0.005118204199837587 4.906746775000448 1.4523368970293102 -0.46223524032882324 -0.8099622876047212 0.20897000897793688
Ni 6.482078430727688 1.7337398050986677 6.83568464104798 0.10592122271486273 0.8370216057153584 0.856635523291544
Ni 3.2971103420931183 4.13114129083648 0.33119670257680084 0.5135254059623673 0.4727757348488309 -0.2776349184445025
Ni 5.901026045227972 5.5949801656155485 4.815713280174327 -0.1972851164408409 0.08549715053255598 0.5898902551763519
Ni 5.453566546932337 2.8815291195151884 9.34286231580723 0.44480727466036296 -0.34467437649250315 -0.06872533039085583
P 0.21113810085287002 5.441190487429029 12.505430819194993 -0.09364754755383227 1.2956755564508267 -1.1882476672834505
P 3.9016790447394256 6.074011244276766 12.640041213332 0.46741678452976276 0.7241440062873207 0.4277837435191729
P 2.3940729391221267 8.48096538818805 1.4484689274119498 -0.23674589353962452 -0.38491085541504677 -1.4784552801866409
P 6.327296502872536 7.579876402748192 5.667408979154808 -0.19035342231801408 0.6096363274550275 0.8100661601724373
P 4.812176361128228 1.0944153026956205 12.493363259134115 0.11720759426195944 -0.41545864629491674 0.16679646093368047
P 4.088709086825137 6.189473023899469 8.162044618102541 -1.0751306981510966 -0.37568907970646265 0.2777781288905861
P 4.52933108285874 1.0325710869852107 3.694318708988586 0.5246474840174578 0.45289879341924577 0.0378828910887025
P 0.14548094027945122 5.330220892669773 3.6518738763450966 0.9209334140386656 1.1733818059152112 0.0690441471828553
Ni 1.6466563659988578 1.2134852629315318 2.4618932039731645 -1.6199813965893068 0.250991090604729 0.08961297247314244
Ni 1.769758468070031 6.500065211084537 4.883876322183619 0.4935944713663951 0.18163841104251943 -0.45169911668418977
Ni 6.002046081946305 5.59116451461708 9.195259765327211 -0.37852372094178033 0.5935990714865067 -0.29852513162995037
Ni 8.633537305417612 2.278376627759566 10.142778818897847 0.3189759432851345 1.1255060652798552 0.12216108161249283
Ni 2.318490575726922 5.374935270918971 6.9999479655094925 0.514074850707934 -0.2976499281138487 0.15751529274207066
Ni 0.6094424526096 0.15138843398842836 9.19749142503648 0.0647437200352885 -0.3715004955464118 0.33206568658955715
Ni 1.626152879664295 1.2223343258854278 11.291290671482164 -0.730449122569742 -1.2481741684357537 1.6721969022505976
Ni 3.980120891270599 6.758059145380544 1.7011615423419995 0.16146373586685742 0.5925611171402956 -0.39547886073888017
Ni 5.608312392981357 7.771579038728009 7.848356611951339 0.20669946777620532 0.9587877658822777 0.46222238481301686
Ni 5.268313533798633 2.71801539457607 4.851952944208249 -0.38584313742132903 0.5369743810139269 0.5435993425296122
Ni 0.8400457858255815 7.5931725483078685 7.335432990745093 0.8078740376171247 -0.8198553783487171 -1.2748750747657076
Ni 5.030886228997918 4.483660536747042 7.151036018461871 -0.138700988249045 -0.4493185322671552 -0.5396035911066578
Ni 8.032576783384513 7.42992943691474 8.910551763816153 -0.1460908529552129 -1.2143045122715022 0.8357288550458639
Ni 4.577328905465959 0.26103292441748344 10.357304099301368 -0.10524965056913488 0.9882860324517109 -0.4085580625203415
Ni 8.164735418794843 7.10223447362306 4.7090644816993885 0.8843245045663803 -0.21297938724764612 0.593223690424959
Ni 7.204093412333962 5.9436747400761085 7.0303928914786 0.24156028420913234 -0.005634058357325781 -0.46649607248770625
Ni 2.286458952333155 5.146492335845149 2.528948534534202 -0.8449580869536157 -0.565103278039659 0.659204111080826
Ni 2.3751660727089092 5.263577796743795 11.385621141343606 -0.26670901556061805 -1.0104443137163048 0.47641564559426336
Ni 1.0478878136882848 3.0181618988858974 3.876841231443245 -0.4177474423290935 1.3639961952040962 -0.6450571301564826
Ni 3.595813574157662 2.7897099433605415 2.5690435395533386 -0.930553710737249 -1.333132415745704 0.10747622590680844
Ni 1.248710126167989 3.4469671034112395 8.16966238942218 -0.8043171735038018 -0.07116787839407743 0.06740455469690328
Ni 3.5309835889898213 2.4891214369255965 7.10746813960252 0.6182369246398449 0.6828335775743078 -0.05106262300377012
Ni 4.173789985684615 7.010252929340819 5.965042385667535 -0.6082566734986814 -0.6598332600243927 -0.3919546496357056
Ni 0.687150034385985 7.229666392430085 11.078824760163634 -0.18702410083446497 -0.22039367743384625 1.0143701311332725
P 0.23814533274274266 5.600987786336542 8.05600379806093 -0.08539687750926583 0.15713476947420035 -0.006164734049815189
P 8.584646458108624 1.689214856331663 7.963177939515196 -0.29527731411661406 -0.16138506011012207 -0.6244757064607052
P 1.8082126529553104 3.2503844031520566 10.391656684874581 0.524462107479529 0.11485169243527317 -0.39900821404837733
P 3.806964303642678 6.089941361684086 3.85058179498546 0.27421663679157293 0.752099353849666 0.1073895797302731
P 7.028356975567597 4.091469344994242 10.41454878677509 0.7128293526054498 -0.4462118683173734 -0.1709858164246797
P 6.251542750898204 7.898135973736331 10.092372535731313 0.3860598814178255 -1.4000988544639243 0.21144006778498425
P 2.4582714926826554 8.436088641811258 5.769939039459767 -0.8798518135070073 0.7639565102985681 1.0322403265454738
P 6.753043774328184 4.1679717944458154 1.6009560523971003 0.15302331840898806 0.0982459655577921 0.5184912346080748
Ni 5.325367889745006 2.7248889786442336 0.6689178977474377 -0.3851062592553045 0.4913095319869603 -1.258481978119665
Ni 1.4985585927296765 1.08394255846578 7.069564202260755 -0.5237581394339689 0.1388827652425479 -0.6614643678699124
Ni 6.989550993072529 0.7216785187640926 9.171166139282505 -1.1502447056771157 0.4540771299980631 -0.475673111001284
Ni 2.681726118058716 1.5398000971386603 9.293868635350766 1.1313635525018968 0.22117632123614167 -1.4458907159870584
Ni 6.284954503376523 2.2190220566722707 2.69878288986251 0.4870355872019548 -1.4756496924170457 0.5316048891718974
Ni 4.122743250459235 6.877156166971055 10.445415869875943 0.5228281714205318 -0.280215277577169 -0.04916206354694759
Ni 8.033154092282627 7.15423737671094 0.24697635479357277 0.05976812119756803 -0.5457667824945762 -0.23388811237585527
Ni 7.676918420340459 3.811510611215322 8.261907330889185 0.25838584040690343 -0.1730144168189343 -0.43251997265257763
Ni 3.3250557009424258 8.350268065926072 12.43067923938598 -0.8968822866267327 -0.22904543957157328 0.5617860407409679
Ni 0.2893219624701987 4.86910443075314 10.229465358130206 -1.3744618706221103 -0.6035356138739284 -0.16223300993271414
Ni 8.535006913322395 2.456539565988315 5.732721558479665 0.5025488523462055 -0.581476834301676 0.3211845209006791
Ni 3.6769164538910766 2.6424781334385306 11.412039337748372 0.7375818769597814 0.7974836955217361 -0.24678476583286532
Ni 0.8761663798992679 3.276706080725419 12.485970097057649 0.5747143187668619 0.7222506459193497 0.14985751908649675
Ni 3.0722124444717744 8.382480098350499 8.02922929382061 0.9588060207147229 -0.1105072994236484 0.18026261374091535
Ni 5.343688426808577 7.929689513198848 3.5909840244068807 0.26696124078074024 -0.2570236699520541 0.2817993342348373
Ni 2.8979192799506928 8.45226231140997 3.539600826339319 0.2927154669267088 -0.7069039882599503 0.7628488790566863
Ni 3.537433211835933 4.09143326318811 9.167125879040864 -0.7839890034694111 1.260771288374474 0.21994167749809218
Ni 7.19961024792205 6.190519396277299 11.278074807941131 1.1343442323967754 0.10187713455247614 -0.20386611209246824
Ni 0.5989128795351014 8.792315293301893 0.19913999826879533 0.5111551059579778 0.9354650319959373 -0.19849790580201945
Ni 4.677149222130398 0.38485485852099166 1.6099196750854659 -0.5092977410342648 0.05425439046819043 -0.5885478822158444
Ni 5.960849679794986 5.845153368432425 0.37944348964633084 -0.6310145360204875 -0.5050189111532528 0.5070122874341978
Ni 8.004117258797825 8.809057251347186 11.181803136909783 -0.05632258585112881 -0.01923570830116042 0.4339891009989365
Ni 0.1475123459646881 4.892981565961054 5.82724957622968 -0.4533865316889417 -0.5812780880273086 0.21718236958540013
Ni 7.936517995009345 8.493224181821429 2.3065023956395336 -0.48775601030774707 2.4980025846454783 0.7168958093653396
P 8.427780805949345 1.555739234997513 3.426654850649177 -0.028898685312221197 0.018655410317658192 -0.5553791087733597
P 1.6534758273578236 3.28288509002554 1.4240974714600265 0.003486158776387544 -0.9565077115988496 0.8001640705673767
P 4.841402624095225 1.1440458270303162 8.206549721876174 -0.31736257605142765 -1.0809465335019255 -0.05324471825675346
P 8.64021243955205 1.534342723961181 12.270574343081192 -0.8084995870162658 -0.3704427437058588 1.0893398997719432
P 6.1086948804212415 7.798405861587222 1.4014417053896844 0.6497612205003712 -0.8017962068541611 0.17569864851931674
P 1.7454573716400652 3.225857795433765 5.982483428706636 -0.4987873284212442 0.1794786843870393 0.6557896860826383
P 6.803170423497196 3.830642988916865 6.023978407803698 0.3183105417869937 0.7180474064712795 -0.11571918264189103
P 2.389508590646417 8.359026924364638 10.261375205428276 0.3955346536774801 0.5196356326251631 0.03695960794348473
