# total energy = -340894.0901163186 ev
CRYSTAL
PRIMVEC
9.06707810762133 0.00000000000000 0.00000000000000

0.00000000000000 9.06707810762133 0.00000000000000

0.00000000000000 0.00000000000000 13.27058532480712

PRIMCOORD
 96 1
Ni 6.430997250960405 2.0037063363801138 11.363707940072235 0.27075233239205626 0.27363453903585777 0.8681260404296468
Ni 4.6492983161300065 0.4205800336468939 6.164292782362313 -1.042819644723217 -0.5305486799932411 -0.6766156216890541
Ni 2.621518888015587 1.3570242088192053 4.642475340035821 0.6829834728886108 0.3465319985265322 0.2739271305756121
Ni 3.5025396430240106 4.316300814422232 5.039782904923978 -0.4374657466936272 -0.22343837779744097 -0.34445171895873583
Ni 5.168606133828943 4.318921199925514 2.68145408612561 -0.31835219365820655 1.0388660593921075 0.08469008125022834
Ni 7.029596664597762 6.013548986008437 2.4725486120923064 0.8704845133594943 -0.3632233431392841 0.5389621008679171
Ni 4.888605702248106 4.532187938412378 11.492220168206394 -0.07675385712228718 0.4285352769732168 0.1097583370727658
Ni 5.667114074903208 7.963922770380569 12.538606289335451 -1.0524013748743812 0.4118611587516456 0.33855540807895884
Ni 1.8791790889680737 6.6111238198469335 0.15466621423871985 0.18937794577862221 0.079024912544651 1.3299787006080708
Ni 2.737486813922095 1.5702909473060698 0.45513829422547614 0.24988474491442772 -0.5417278365385122 0.5280889055988389
Ni 0.4643350313049892 -0.04105391516180536 4.85216420959675 0.3282278009007057 -0.07611596642797214 0.23216418770621305
Ni 8.822194227023127 2.2706139075224043 1.3379407300345745 -0.7346294791996767 0.6902712647992757 0.03246017741123442
Ni 6.748907135099108 0.6989375107184059 5.0772199627250245 0.8493071079509308 -0.7342890651411225 -2.421641849196552
Ni 0.754447068122021 7.1921875048913915 2.3401085258265826 -0.5471304956113222 0.11001647583015892 0.2777102517671282
Ni 7.274679779316521 4.010368540144554 3.8595902888947866 1.6742530134486777 -0.6467496873675571 0.22475195440254195
Ni 7.617342786029484 3.9167962965671355 12.676593613839612 0.7300089497085299 -0.19463790862598093 -0.6318367748114666
Ni 8.028507566020293 8.822157958711662 6.846798934571901 0.551786763436411 0.4908593318234192 1.2467562050423044
Ni 7.009005330764011 0.7798085916210902 0.5208256465337087 -0.5353121628201556 -0.057943923504635696 -0.6324515255773301
Ni 1.9252761128389644 6.646576094303106 9.228643219815815 0.27457479146194 -0.13121624983622565 -0.17150800747673686
Ni 0.18646445631488295 4.76578306547488 1.1146095351164185 -0.12312730218050408 0.348384992574871 0.9428690377694923
Ni 6.466730604830425 1.766339304925345 7.024306024662935 0.5713382032057773 1.3933702774908392 1.7936002797614594
Ni 3.2884115321398735 4.356794384171917 0.539887364331461 -0.10095565117947129 0.508240246304028 -0.8051882632548456
Ni 5.69939287210627 5.614280212177858 4.767364363854715 0.574956516684655 0.10803492662375587 0.2553833061351537
Ni 5.715840551355247 2.80996903438313 9.216474294611817 -0.8220783541419647 0.7915986974958689 -0.10494317507230959
P 0.2544548464010868 5.651137883703265 12.338140451379846 -0.33126684483734564 -0.6998283123600916 0.12861095100289466
P 3.9963236365300747 6.2808464414989675 12.62860701094144 -0.2679539437113127 -0.4303026532862847 0.2113408232029586
P 2.2390423423928922 8.636908490830828 1.2982786113252047 0.24211744226418305 -0.7516093015871249 -0.2526178275748746
P 6.4061443905296205 7.7138799640690925 5.834678207406353 -1.0277228982910944 -0.1889061483485263 -0.25538253480420536
P 4.881197899631561 1.0235552190623969 12.782121706291175 0.03917178510345512 -0.14037426218640983 0.2722402297914924
P 4.1175323334431475 6.1507157399657215 8.18772545334776 -0.6072184620421541 2.20368789155245 -1.1131976802261474
P 4.672020413262275 0.9561233609727405 3.9537319449621906 0.14405171103799708 -0.5200698919491042 -0.7779613092180925
P 0.015686951416016486 5.447890266258363 3.606003161845479 0.45210972185904713 0.6027401145558264 -1.342787679447281
Ni 1.3199489274250136 1.020118796551172 2.6530423976324093 0.11514788351945329 -0.22033814160556248 -0.31500153201841874
Ni 1.8836128900445621 6.347054244076711 4.848726880377738 -0.6995195228704211 0.8671677902814356 -0.3474647947534467
Ni 6.0288814146798915 5.714018068704175 9.001623537621757 0.522316521891436 -0.2794601445786994 1.5660494224575416
Ni 9.027409400364958 2.443758826452091 10.05424599490707 -0.08692796944181158 0.13889587786867047 0.8039538766271122
Ni 2.3238104533623956 5.275697390504609 7.144086656812109 0.7400143976606739 -0.02781753643290048 -1.1787878074221312
Ni 0.7747020133669428 9.092012330160413 8.891610868457658 -0.4327542001505708 -0.3377336835086119 0.22179338599485027
Ni 1.4887688502126044 1.1725182413233846 11.49722338177287 -0.18991067835364067 -0.7723488481273215 -0.6535350857205067
Ni 4.325068678718682 6.683714845242361 1.610159795390785 -0.48663938020480063 0.5198341217892144 0.22051271951021378
Ni 5.829133689291276 8.050241351665164 8.052763812727493 -0.7872267936804184 0.2285132212171871 0.004657296266353269
Ni 5.411549418171319 2.795316636551627 5.011583386052842 -0.7522127394990787 0.48385358992954736 -0.01209601193258562
Ni 0.8075103279173815 7.340751575726274 6.953415076367388 0.2463253096979435 0.6286126114472141 -0.41825574942407967
Ni 5.0756685857021475 4.514271392549106 7.038147825733214 0.3178685691535687 0.865399128416787 0.1313887708583479
Ni 8.28558642475581 7.12828274009162 9.337409165773336 -0.4598883373632015 1.0739438769318472 -0.3189692584169152
Ni 4.546205640793259 0.5164435278010568 10.651090928977352 0.44291777094713397 -1.17188362410313 -1.3582821755384542
Ni 8.074903803460762 7.244713086969297 4.473593761118741 -0.2551295382531348 -1.0955565701056165 1.0242398248385005
Ni 7.453772701326323 6.315473611869332 7.15178369921258 -0.11771050204030696 -0.7360530990200808 -0.660305828785437
Ni 2.2919306075854387 5.285761846935901 2.4836294879523795 -0.6284130938418984 -0.6045743395510879 0.7019978092075846
Ni 2.316239443344262 5.369505378106544 11.34489012666908 -0.20528150438275614 -0.7716435945301807 0.20193161407391677
Ni 0.9597955275084823 3.2362214319430116 3.785832330578002 -0.5378750384513252 0.89492927666542 0.364116801487831
Ni 3.7148906066464056 2.575213321353777 2.67866777309738 -0.5504778148170004 -0.7230026935940258 0.8709578534514871
Ni 1.3074454270477596 3.4285069522478846 8.216894242842773 -0.8344098791241241 0.14363724920839777 0.24062363132747594
Ni 3.606493690758031 2.8758232209240973 7.301356029106166 -0.5903193722939705 -0.7469558619755136 -0.7255645407839311
Ni 4.108066304151014 6.96669834544112 5.982790737763509 0.0231862083084762 0.11539830896736254 0.133418399693867
Ni 0.7520234382084314 7.494447612633328 11.25575168416815 0.28121672225848987 0.037017714874929795 0.37611819682408126
P 0.3710493073881381 5.554927120466833 8.036838397163601 -0.7780533547112665 -0.3182969149402389 0.7783816845849627
P 8.641895383657143 1.7417493897526748 8.02546556139624 0.007153837435961874 -0.4618526601784239 -0.3237533100691199
P 2.151817053321695 3.318468895265759 10.329690219860227 -1.9270194507862748 -0.24896711819616482 1.1622509861093724
P 3.737195618196836 6.155031669029952 3.809467482451379 1.5921060103352773 0.04554169318554092 -0.4730860670003981
P 6.80109723529597 4.16791808514467 10.608081245119843 0.5971019424334426 0.23711176151947552 -0.9964611120633354
P 6.264181152381207 7.992284589945507 10.315981704834579 -0.021372295028189 -0.6346158802185006 -0.8905496595404857
P 2.3775600909522145 8.510431821677592 5.739090352419319 0.28136147536647027 -0.3221430281592065 0.4246200010792106
P 6.924645238298479 3.719777761616195 1.4990980653175843 0.18767536126521872 0.1774660248323847 0.46668453434942847
Ni 4.988261955073629 2.855803112995906 0.6808233025576534 1.6113710292124763 -0.5055981806954906 -0.6180343217107356
Ni 1.527965827827447 1.4520925202445176 6.810836183631872 -0.2607360858066349 -3.5171228288692267 1.8128632417561295
Ni 7.168232285169343 0.6968602431792986 9.319175272184753 -0.17123649898290508 0.07650317456406178 -0.2866551196652418
Ni 2.702460692125626 1.5629919496239164 9.13635940800316 0.5225636049052355 -0.9521823447506181 0.5845104789216773
Ni 6.390032193161687 1.8513159586857673 2.9122302586795628 0.9345677169926486 0.36075739809729485 -1.3141250214052658
Ni 4.1841662886805935 6.900055323125809 10.419293803455684 0.38533431610571056 0.6626347340289298 0.04413941352137559
Ni 8.118634320008619 7.017138499609839 0.38589392727040056 0.882214657312229 0.04644697860862969 -0.2028402419311152
Ni 7.819593024909122 3.9171861809153747 8.258431433254838 -0.25667759946654506 -0.023066137790844144 -0.55330834228726
Ni 3.053447276319602 8.457634227263705 12.442288534580202 0.8540240538106261 0.07631625536423632 0.1841922878126247
Ni -0.14131222195763257 5.033044252653945 10.250146559157129 0.1702967607774551 -0.7153845149271357 0.43759275918979473
Ni 8.543236509396884 2.4320622960049145 5.894833735508523 0.058211832454041684 0.6639205427198889 -0.5789237288625191
Ni 3.6711782242542808 2.4680404609773166 11.63434842717197 -0.2358141257539745 0.965966028798272 0.057820253442577844
Ni 1.3079531834082574 3.2298926115925233 12.703811168177857 -0.6870476156556555 0.9138469395055293 -0.6158406564935265
Ni 3.183224361816073 8.330595399282776 7.833931701846461 -0.12531171142633257 0.3031001525951425 0.8626501049167401
Ni 5.530019857568852 7.814207180656702 3.6567896783886793 -0.12135838320553938 0.58795909959191 0.11954112749114251
Ni 3.0090185947760606 8.250360827246286 3.290893191351805 0.09583889877819624 -0.11382170850886203 0.7076079563055103
Ni 3.5612943075958774 4.517181924544101 9.326925810344635 0.8318002094154191 -0.9648319151938287 0.06240992969578929
Ni 7.046325423260585 6.334686749867447 11.518788519769432 0.596938677382701 -1.4000471752903825 -1.0084013151443472
Ni 0.3705614985989458 0.004247925980234509 0.2490236667593355 0.16845893623776795 0.17553564057889123 -0.013404960551996269
Ni 4.831474044614258 0.28031505918278765 1.6716953327441628 -0.617587463981304 -0.1964461654793133 -0.21800203727321812
Ni 5.942454028460905 5.467647428928439 0.32945862121666386 -0.26581761409460025 -0.15197585098108018 -0.010563377338143097
Ni 7.9099464558441 8.760864512337308 11.47116006644697 0.053641182364223744 0.8827520178729377 0.7409775329048917
Ni -0.05584413257687159 5.0841553705847495 5.714817784971959 0.019892625158868967 -1.324184719634113 0.6789154734668242
Ni 7.924462847507613 8.745341675030668 2.752889965800905 -0.19793431998906558 0.7653207376359464 -1.0930518014058916
P 8.532401351346978 1.568205519396883 3.7793965187086944 -1.291555363634866 0.14016163195497153 -0.524302184862897
P 1.8393111475911452 3.130825718828292 1.8028089055180863 -0.4111345649982661 0.4324161000848617 -1.6563370524002052
P 4.748365208894238 1.1765349568180357 8.187817937541993 -0.7297346130012207 -0.8071497578565905 0.8756678573326468
P 8.470110526407362 1.7985818338169437 12.218201145368017 0.7231993829858642 -0.7327101506897769 0.9721389903782032
P 6.382606256389409 7.72614772042183 1.3502021394328054 -0.5274237612110142 0.6249837564453753 1.0206310244413197
P 1.7681708546542827 3.1623066131791444 5.849474771775926 0.8265914115209698 2.5939427848882293 -0.5138228825981279
P 6.8743592244534835 4.087592842329521 6.108795012159924 1.3481718265773297 -0.12311933176070407 -0.309427380364751
P 2.4569786259807613 8.52495728041897 10.304104739537866 0.1328023633764229 0.6763217445977191 -0.8255922808324944
