# total energy = -381166.6035663129 ev
CRYSTAL
PRIMVEC
9.33010842657297 0.00000000000000 0.00000000000000
0.00000000000000 9.33010842657297 0.00000000000000
0.00000000000000 0.00000000000000 13.65555678410238
PRIMCOORD
 96 1
Ni 0.6944726364314923 5.013291258612253 6.727915167328784 -1.5396135968635163 0.5189218943875902 -0.779668007496554
Ni 1.9551615718025477 0.9610291732936513 2.8295541559244968 -1.0754299745590705 -0.8778404395039334 -1.3557452680492137
Ni 7.3010245504817135 3.627200998972455 9.864569846917258 -1.9225647574490308 -1.6608521666617395 0.537090851987133
Ni 3.0943025177453047 0.96374423488825 13.200076197500655 -0.40142325124777317 -0.11042502412248725 0.7840296268993594
Ni 0.4365165936514676 7.692002750212503 8.223840398094959 2.551896506450457 -0.11628636799927071 1.3209677553587122
Ni 5.551461251182869 9.295288607311626 3.5677327529530274 -1.5321586832473675 -0.51770190593756 -3.9473537483773113
Ni 8.7571559351753 8.455280272311928 0.9465675050062698 0.77560515028109 -2.1220612797188934 -1.4389207124271284
Ni 2.120155211798712 4.129646005818952 5.0662526869132165 0.46498272116697337 1.5048689942934792 -0.7153428630559228
Ni 2.8326209626122787 1.9607689670546227 9.42984463411171 -0.8080583857137891 -1.6353851327388869 1.8031840667951526
Ni 4.714653143423538 4.138742861677144 3.2454204202724406 0.05937859906863322 0.001557574295106995 0.34817441922596165
Ni 6.433492395193126 8.740408390287655 10.906747639520264 0.7979156408528323 0.15552680155713217 1.5441333391107408
Ni 3.2603131395758718 2.1675894837813234 4.126108028648258 1.3271841685820691 1.050873625375945 0.7853051511776733
Ni 5.131671676180186 2.20367834373977 10.773893424523804 -0.016213119424752724 0.19992666782874602 0.34658110659691277
Ni 0.3804930237170087 8.533998398338145 12.239735586219654 1.4510180099112944 1.34080998689562 0.8419486107033306
Ni 6.39639588350885 2.070360422347257 7.702935771437763 1.8084684551225436 2.1296401205074162 0.8763108902332843
Ni 3.958214590907759 3.2704736278113287 12.910018050155214 1.9299769907527022 -0.16210368344370146 1.7728298799833273
Ni 2.216040737598338 2.9376406647043862 11.65863683109609 -0.45479832443480384 -1.452050307830551 -0.8327088372726176
Ni 7.148682537709864 7.596509088972922 2.350858940449309 -0.20951122619338758 -1.533115133623366 0.7869971941681156
Ni 6.536963299262199 4.601796150130528 7.648628008469788 -1.0437187594987185 0.7739933257092799 1.8655045221009292
Ni 7.854831805019845 0.5226624191122562 12.86069443118667 -0.23001860211812 0.33671012734010397 -0.4169835675798754
Ni 6.541684334199886 0.07810420488214727 1.2349742231343765 -0.38977563970651585 0.17175303360800742 1.120621226383728
Ni 0.4679320022259465 3.254257899112317 9.631305003463508 0.8420563399257885 -0.9545942966262204 -0.3815054292779236
Ni 4.842522281409709 7.196023508606751 1.6339147375209406 -0.46488399080558007 -1.4618901767391081 1.0089003662679528
Ni 2.793807710950661 2.939114821858842 1.8134988013027873 -0.22814812456828445 1.5233770803999958 -0.3048839839684427
P 1.181723561467666 1.7570926969168557 7.981495492978449 -0.7406116649250407 0.16906340259098626 0.20578569771268432
Ni 6.7531792353214115 2.0871266274520472 3.06493506800249 0.33844845018744935 1.349785965141985 -0.8570903514407755
P 7.527774179119284 7.459160560677087 12.865937952204417 0.7982997636651284 -0.15800843032840528 -0.24413498691484406
Ni 8.59205966398484 0.8690641591161918 7.597173392703284 1.1924424220910883 0.14445511712400283 -1.2116495911471585
P 7.896807963487542 7.282812178548186 8.438519665272281 -3.835689452531085 -1.087301786295992 -0.005752843323377189
P 1.4222351002496794 5.42143685811645 10.933185435171312 -0.37504424703361217 0.07541765480936688 -1.0800049955242628
P 5.201740791559693 0.7055092218619075 7.000385127004197 0.6525174430892698 -3.2677996128852236 -3.4090213106735936
Ni 9.031087922864025 4.302990092987508 11.81599004518223 1.0707724211824012 -0.6697847148101497 -0.09085918617541773
Ni 9.30144647896948 7.9782224908912145 5.998545125803555 -0.9956136764613758 -0.5477794420492308 0.15515373448842956
Ni 4.053139115524417 6.436207456787725 11.076076980970072 0.2841482940829881 -0.46689973568402815 -0.28218062883365597
Ni 6.958842818585121 9.248274190214778 8.795885215859766 0.8947421003552785 -1.1087489004261744 -0.7055580157550171
Ni 4.033891101539341 3.25676769831832 6.103324111094492 1.1736864816398238 1.360906757645495 -0.5043841057827314
Ni 8.669396933942327 5.169971771870316 9.26328820092965 0.35531103027074296 2.7770595802484888 -1.5171485829917808
Ni 4.112142722136934 5.301059797314 7.532023110563202 0.01567575886404397 2.1664266932081464 -0.9518540148769221
Ni 6.1467688286515 6.822334000060812 6.823913587442138 0.28731100808168586 0.45587433110780196 -0.25016962314469815
Ni 5.384573599146486 7.202405302870344 9.062414695407064 1.327903820356913 -0.7964956205768541 0.9146331828522506
Ni 8.433914323680893 0.6028463051952146 2.61730631504117 -0.38413541070160295 0.34490783265954794 -0.06819259781583739
Ni 5.647859932953982 1.647995737378564 5.034762637470157 -1.8495012046941375 1.032066262861455 1.1417122427260724
Ni 2.9984449822713963 7.845483036230197 3.667842018903426 -0.8672840041443257 -0.4884967451285135 -1.0056270948333197
Ni 8.488178235138577 2.936511721567113 1.2161404659699195 -1.0799363470698562 0.7537584867196438 0.31226999201986866
Ni 8.32891328180593 3.368971584011256 7.391274690703547 1.8583404002523223 -0.8881233094871801 0.0020260292910932853
Ni 8.888215970293267 6.009970776761444 1.9964015847038736 1.6331012218007166 0.042088187419301704 -0.22321392049146072
Ni 0.08301744005642799 2.754397332340403 3.54842409326223 -0.022909300498005707 0.40439981737759384 0.28834433444220664
Ni 6.131840654935493 3.5088392416216667 1.1474027570837093 -1.8348438597922787 -0.6221329172601414 0.5971096557429265
Ni 6.188101209627694 4.385766816242765 5.433478296240124 -1.344367108119259 -0.5391999279103359 -0.8629432106771266
Ni 9.135977003436118 0.3978890111504429 10.035605665224976 -0.14952816077153602 -0.873079013559548 -0.957700189245054
Ni 4.162963823531364 8.815263851364858 11.184488177528284 -0.6830701190651461 0.9340272711081462 -0.024649680227880128
Ni 4.818982417481281 0.451335605097176 8.970649345553056 -1.87342814782338 -0.22939228138803072 1.8028595935761982
Ni 4.48481524884847 3.3506659109920025 8.511536161949842 2.62844673220237 -1.3223821192077356 0.28974558566510744
Ni 0.6715653538642798 6.590079607365465 4.216152906481496 1.8060906989189862 -0.9954974625984856 -0.6168729544127828
Ni 9.306783301072953 6.9942319204006305 10.674016478276863 -1.9315206810907382 -0.49990113031071326 -0.7233914443920122
Ni 5.351330422302654 7.690752515663787 13.087280782924221 0.3695667688588087 1.2561121923359078 -0.9291486028596062
P 2.1910360466240264 0.5640097282621659 11.258665339712264 -0.7218433831786021 -0.07661990264758418 -0.542605354047459
Ni 2.8520649088773777 7.420132716518302 12.756283985184348 -0.9084851609729838 0.8247271046187216 1.4193016526446203
P 4.245759207003767 4.967769658887005 1.224815600920634 -0.3524401364808511 -0.5504464473584326 0.07250459492762998
Ni 0.22265091194166878 1.9134186660491639 11.645213603892827 -0.8566620056541052 -0.34528115683856664 1.8130828139661033
P 8.269499150416223 4.141728496420345 5.3230182078393895 1.8313183631375234 -0.8896598007363646 -0.37437061800535526
P 4.305042716873459 5.580991044814844 5.224479199161744 -1.5666945122407083 -0.14463509434529284 0.681911837090987
P 8.535108681258274 8.024527819736553 3.8853203186524987 -0.605704339390473 0.09232188676387326 -0.09312638494303961
Ni 4.694173555106892 1.6315001054223766 2.117457877410401 -0.19774662945829172 0.21412378526473444 -0.3435631457061954
Ni 1.1471834995322554 2.142192928246967 5.697248862682533 0.3831293380345918 0.20893349931304664 1.7255323804489444
Ni 7.140761275531808 5.507945624800709 11.464331722008547 -0.8635379068383322 1.1208014607153343 -0.09097385737641107
Ni 2.1394125558923607 7.674350184793325 10.368609369318794 -0.827099204395324 0.9728540141673567 1.2179832466746703
Ni 3.2734592625545305 7.639427588406441 8.552475745355132 0.028294218959002887 0.5010378150183178 -2.0724245905283727
Ni 0.2913876878170218 0.4503662068164928 4.480224835430798 0.6976742421315661 -0.7588603267225835 0.7931737552924727
Ni 5.573144423505369 1.006690724647487 13.268066564690209 -1.99470348439681 1.42671928526493 -2.099937451236661
Ni 2.3285805071998835 5.041738759649818 12.73421641238866 1.967712814740579 0.7972163007929625 0.7882560062758812
Ni 2.263391038603797 6.718601852951711 6.162179368980706 0.8498107870602267 -0.018621728866245347 -0.04510229165527716
Ni 7.02113062341516 3.0009081309345373 12.67521093975443 0.11460975162779617 0.5457930077468214 -0.37156734422860527
Ni 0.3597428622517594 6.235470170850298 13.081942094799036 -0.9918603800665304 0.8244211433425285 0.7875965183150113
Ni 7.261502210568585 4.842484960975418 3.1384022089241026 -0.44966640252487716 -0.9365266404912322 -0.28748507176570487
Ni 4.383210366493898 8.39858120251682 5.318647984984028 -0.15830950650859188 0.45426713452168216 2.7303565197649946
Ni 7.2220358513068925 5.336682151843822 0.44963752533698026 1.8553201253687597 1.2518557310523988 -0.33090354796065596
Ni 1.7839727397142402 5.70966257213825 8.71751603589416 -0.2524388787948491 1.7204544517054048 0.9339959036495784
Ni 5.648177156645447 6.708730598082002 3.9760882799001056 -0.5684354277366855 -0.30234604803793735 0.5217495936443723
Ni 3.1214811240170093 4.212152155925607 10.053125743102424 0.4673669051284339 1.894172836569899 1.2938346465873458
Ni 5.271977848893505 5.383043461340595 12.985382935160475 -1.5701084230182636 -0.924157577402918 -0.1999670341483782
Ni 7.848897855967733 1.8769006210963823 5.157376125297436 0.9727979641184407 0.6495984696702619 1.4203717457803475
Ni 1.9812298951541245 8.396677860368028 1.402097926917644 -0.10336297506938327 0.9296036881191538 -1.1303831908664985
Ni 3.320007174222754 1.4106284451854842 7.2173847921835 -1.270541223277044 0.1587252538897718 -0.4443164510668735
Ni 2.2883117586009556 3.756861517804546 7.896284544396625 -0.6506346242442601 -1.9798360803666744 -2.079670987678141
Ni 0.46177879562237995 1.1713578108436138 0.7448720169184455 1.385336351442769 -0.7170572746438683 -0.8769055863944898
Ni 2.062233897780606 6.259504530533068 1.9326984024033866 0.530036773353829 -2.0507818154476163 -0.22320337896849946
Ni 7.820888870033076 6.219674297037048 5.084974482774803 -0.3239661974108743 0.5717752907431959 0.1134265299529724
P 4.068253891411874 9.091948221082468 1.3391747416938182 -0.38812499147697027 0.7102826749241962 -0.8752587948196862
Ni 1.2139404263685232 3.321360039965767 0.08125498254708194 -0.5931398724619011 -0.2577150395921239 -0.08567481376100083
P 0.8590025700316033 4.118160642166199 2.113757556350546 0.12037776445982494 1.345151037473135 -0.36456520187915925
Ni 6.769590896300446 8.738206484664545 5.144348494697648 2.4366776604837517 -0.9185512869597342 2.3951774843574363
P 2.499862640373916 0.3463606875262166 4.881834693879956 0.07906707863649608 -1.0235394563373663 0.6637775893841213
P 7.306986489859544 1.699348654961627 10.922001434025452 0.27834557135828186 -1.4788242334902855 0.26272843364631526
P 5.266202511687125 4.983752134871705 10.180122515937066 1.0896795424995491 -0.7235904477766957 -0.8874455666938652
Ni 1.7437786319838924 9.035109199658773 6.964006100669145 0.7164623213723467 1.0732360522315452 -0.5728705806899037
