# total energy = -340860.4944933545 ev
CRYSTAL
PRIMVEC
9.39904464417709 0.00000000000000 0.00000000000000
0.00000000000000 9.39904464417709 0.00000000000000
0.00000000000000 0.00000000000000 13.75645190674771
PRIMCOORD
 96 1
Ni 8.545677041288611 1.7084737155258067 2.259813206018789 -0.8356815467476961 -0.3697704002291825 0.19645979232606808
Ni 0.6775893358571257 5.382438018086369 10.853207316361217 -0.2753214398199774 0.4027180587997967 -0.7355589329924815
Ni 0.13551636332430714 2.265282510006028 0.13386401130341583 -0.7269868750527545 -0.3582012073343444 0.3468855252112091
Ni 6.078850820338484 2.764616147445576 5.017074601152945 -0.7901462813200586 -0.08522589914904032 -0.8516969483393462
Ni 4.175440922143246 0.2018689178833646 8.399442007630832 -1.7361361241067197 0.4282930790554237 1.0255477450166466
Ni 9.205330180550362 7.367497415743968 1.0136108157096704 0.9337557626143144 -1.2391408545888918 0.7508603392362423
Ni 6.6709060316465925 8.56922164772964 10.518141719333045 -0.45858890182548767 0.6311158374850421 -0.7549231964517064
Ni 4.866092110124562 3.365788431906497 2.6241803242365447 0.9946253444061773 -0.07253467683461702 -0.3840587918273966
Ni 8.99125754330451 6.737094102927119 3.550498454173598 0.26945058286149726 -1.2132300482604008 0.9320385228128917
Ni 5.194927080562013 3.731430060556749 7.234105236473821 -0.5831215689939505 0.16382812233397592 1.1138713092544044
Ni 2.1680211976500363 1.8041935845858592 7.562223999721329 -1.0282654010581258 -0.574462607767372 0.15839461002323044
Ni 7.616224330014998 3.7645052981080376 0.9953813689262875 1.1389999860012319 -0.5982028888071053 2.7715970144720203
Ni 7.15795511794106 5.619810886616577 7.707945845550095 0.029245012908046406 -0.10161436780939273 -1.4042265034790526
Ni 1.5313111259821177 6.027137277568609 8.402908375237798 0.02191119825079452 1.0418066300776703 -0.28091487474735494
Ni 7.057883491283325 9.043957985745566 4.577335605285989 -1.115862371542504 0.5644242496947635 1.1296972205430673
Ni 4.546740775574935 4.939761820817089 4.948484134101429 -1.949316057400946 0.6359297139339177 -1.792917908982454
Ni 4.247841761829969 1.4534024462257569 3.728755092495625 -0.34480550275372873 -2.5997943585730003 1.3217987359004395
Ni 3.1248909216935017 1.6653227022839863 11.68742608917478 -1.0529184237201155 -0.06849444532697237 0.7981724940586448
Ni 0.5114762630128667 8.862556427138044 7.139736010106613 0.759531384647679 -0.3306394956659918 -1.5552880701759795
Ni 1.6469757674445102 5.857587914059743 2.3202039466594653 -1.6483288373837481 -1.4011033844690386 -0.31709723820518293
Ni 0.8647374702642674 5.251161563730346 13.305528931858335 -0.6566162957489917 1.187984643430051 -0.3354256042007256
Ni 1.9154406751391568 7.420658411364909 3.9259263679441685 0.7368696813841052 -0.9659632005847943 0.645999953685726
Ni 7.237029279213862 2.8027292728421305 7.09797135592669 1.9028960753755098 0.5963583793991988 -0.25060542513053613
Ni 5.625751082732636 5.6512036952046145 9.51619041831004 1.4497789952978708 0.19991998296052668 1.428164759462205
P 2.572819245634948 5.450261523107711 6.033112250149272 1.706268904233642 1.013359687590887 2.233932292259288
P 5.347041216546684 3.475625665786679 10.060877265114815 -0.7535718246301345 1.0504900167842812 -0.8670523477494938
P 2.8680620310743015 6.08249764959961 10.40903949073178 -1.0858933359842395 -0.9672492663860698 0.6221324030395091
P 4.0971938767853375 8.976566836770647 11.148008346709663 -0.10395227191395 2.3392611328057904 -0.3475509267093498
P 1.8516023649804887 9.085022411111176 8.707724087487605 2.01462721990393 0.130659091781175 -0.6718925051817719
P 8.210826682379201 5.027078944105374 13.069082809114587 -1.6173426734148788 0.547305844846922 -0.5944575628320601
P 0.3305822528076653 0.4050593414216627 11.11191131635566 -0.8925111541422306 1.1077006616673182 0.31750964315225316
P 1.5016947368022053 3.9423822150327723 8.75470239164471 1.4909729530376774 -0.8474787964929404 0.73742323989473
Ni 1.658038442806223 9.370574781683983 2.5936277902256837 0.0428911429365713 0.7662766737913126 -1.3887610608536018
Ni 9.377887238295207 7.733364621461918 12.437717034142226 -0.4722412025015996 -0.023672661026591487 -0.9688340943746863
Ni 5.283108915943141 1.6109492299241663 10.927244529693203 0.8815405140633399 -1.1995540934352051 1.0226349422452257
Ni 9.246338211649048 4.469602817466543 7.342354971740075 0.7334439435320078 1.457480991927819 -0.8203289755510259
Ni 7.640003912568213 2.9292122145095623 12.750552011148715 -0.8591791156490043 -1.3830359854443666 -0.5129996153658842
Ni 3.860178171945653 7.287990898424743 8.931280360621281 -1.5472649427611869 0.4987888710831409 0.6086410534212938
Ni 6.661807756582754 5.045773643590883 3.3248790907749304 0.21044993595757305 0.01921925324092819 0.5528514572554994
Ni 6.0824788515106345 5.3284405075060475 0.8601225394209361 -0.62393346080399 1.6475562208837817 0.230312479209455
Ni 7.474308157299196 3.686117267082818 10.758178277070993 -1.1319685330757474 1.8802631684673425 -3.221266502320691
Ni 4.471773996743141 6.990332558552119 11.650393853894279 1.450524358104328 -0.7995675746339586 -0.8540415373121226
Ni 0.5585635960860258 8.049426290440943 10.066916151197992 0.01875311223778706 -1.7915986759503983 -0.5350769068808977
Ni 1.629089385784919 0.04673486890488014 12.755408497435372 -0.4585269382393007 0.2294871550946822 0.2073057339016365
Ni 5.041581669749488 7.670823379442516 4.351660787524845 -0.5315064159208202 -0.5258229923827976 -0.4283802394525913
Ni 7.989563776100461 7.889971500711584 8.16636638224028 -0.575174546232732 -1.2552346748269607 0.5329110095778306
Ni 2.4279329748611156 4.202340987466289 0.6584989365986936 2.3143512569379885 -1.2814275311722447 2.2151362425987076
Ni 7.270273699565926 6.590732182168759 11.648343922291568 0.05091298479978328 -0.9024045019965428 0.4527504407668396
Ni 7.778141669400066 0.5223650560515618 6.9416295297315695 -0.5987916714310397 0.07741720173789893 -1.6329068464017231
Ni 8.797157875594461 0.5409516665254673 8.967307838046073 0.27565002680398976 0.3360295563333116 2.0372135898448787
Ni 1.6057797554560764 4.642789611192048 4.465688115437526 -0.7432041082425652 -0.8307414291336015 -1.5443755370285337
Ni 3.435670327670587 2.364884184439392 9.403002425070087 0.3536051033232297 1.048725725795007 0.2051364941644596
Ni 3.736138981844955 8.009781120792937 2.2514085804381234 -0.24803997839620506 -0.12067909775032765 0.04448831222036209
Ni 2.3396477499906254 1.563521651440562 0.7094784139940999 -0.36996451851785966 -0.02476589409077025 -0.2957815074465422
Ni 3.450661803628048 4.308512593996371 11.864884748619822 -2.216064667950248 -0.02542769604448524 -0.5794657174089182
Ni 3.856211775171955 5.979408929661407 0.11584040359430772 0.0250451158940859 -0.3382900702327142 -0.07080663839991676
P 2.8664547944669496 3.0528284476083263 3.594451205910197 0.17323527458048874 0.47025836774361596 -0.11541270714506574
P 2.104446060737016 7.158208892142221 0.8064201588375194 0.19077456901583273 0.9975610299957335 -1.0741374809998923
P 5.011279150321992 1.472548299846665 6.529073510426728 -0.18692305648022647 1.8355956503566386 0.7391060269137916
P 8.062472164189506 7.6237059694269975 5.917474865915893 0.5472035149411026 0.7095437398756426 0.13626821043783627
P 5.564347125096214 7.329121117101765 13.5520583495282 1.4700053496470749 -0.17323270347732747 0.5047633434990211
P 9.126622582012569 4.486539895632904 2.5259048549803578 -0.8327219498987402 0.9323632531421621 1.109401960629141
P 6.36367006544127 4.956313538159464 5.7625504156294785 2.5418026125495645 -0.2569771329848348 0.13729845147456354
P 5.819700365730887 7.925998038231929 8.48092138438797 0.7083746592682058 0.06578141727118349 -0.10496554366981278
Ni 6.152699112876272 8.87400446332374 1.8142007472516328 -1.9528592946675143 -1.8513729677955535 0.9090191790995829
Ni 4.826052180608083 6.204158881444987 7.037277966053518 0.13192613141905668 0.36323182777971635 -0.6141725247624842
Ni 6.077939113023203 1.5171373668950634 8.74838811355805 0.7096951778518422 0.47318042648641734 -0.5548998551440959
Ni 3.61564323151602 4.843929163223187 8.85249662982314 -0.8268148403856858 -1.7653466842324048 -0.4474244005682359
Ni 8.31884050162882 2.2326490275456488 4.582507899467425 0.7102502790243639 -1.5386669166795306 0.19411546046360764
Ni 0.6743823818780124 6.599849255321573 5.801865678815976 -1.0722646894572114 -0.0830170644231796 0.6218210424466775
Ni 0.1215982582473113 2.9581988677088167 11.068152184935505 2.1233368039972076 -1.6516357902697942 1.6656621864558734
Ni 0.9836570008326593 2.797587995507503 2.5338141509165357 2.087636522382121 0.5390801145030201 0.5943850577229118
Ni 8.264448231180026 8.872829582762812 2.7625709153651097 1.4964026086936808 -0.11417240698006144 -1.954054600527196
Ni 3.6827900053342657 8.46190335777209 13.621858473605249 -1.501923281401594 0.16370368094096968 0.6829554478641529
Ni 5.475309976666729 0.07661349142599182 12.820641625795975 1.4688177570968768 0.7935321670731559 -0.5402749061420695
Ni 4.439093519060325 1.1484786449643445 1.2764626140364201 0.8463724508026391 0.34951962039994644 -0.35932426519519406
Ni 3.9081320969205535 5.3867615785505905 2.6214564811440852 0.06864202664843017 1.135059513296245 0.01917991536256052
Ni 3.407679973187001 3.07444624992943 5.81102786738233 0.10487504083853552 -0.12568580693629966 -0.06330390226496839
Ni 2.154448977410178 7.0598008963587615 12.170745634616633 0.13148390167531548 -0.1078858026404013 0.09136877882198459
Ni 1.4424713574868684 1.969710758009615 5.234481079478492 -0.12642397065390484 -0.7925453776798543 -1.443582893789488
Ni 8.581938554921141 4.421150743133809 5.131817196351121 -0.9569491700116423 1.0579343888774682 -0.9143724729916962
Ni 0.33912034482005254 9.268933514596844 4.4482857845690384 -0.42297089551156186 -0.2656818598476844 2.056493006899781
Ni 9.137177708971961 2.859715679569458 8.857243147289296 -1.3415972586836058 -0.9779807938709607 0.6690141551927123
Ni 6.870701520316028 1.2760236786588568 0.730010626676905 0.09200846928851251 1.7254030539599317 -1.6660828189330597
Ni 5.197803188175168 8.807759997776289 6.500899874575637 0.7134842125806292 -1.3182364724704783 -0.7744458398656662
Ni 5.622113652515998 4.5384884145149655 12.078260916669157 1.5408904066934108 0.08137001573805987 1.0016156596810815
Ni 2.7812712542773133 7.546370631384371 6.628146958559898 0.21148403364904222 1.1715984887625435 -0.22528751519103785
Ni 7.575122308471439 8.53629679489015 13.556776669860895 -1.041650049895148 0.1931934628699705 0.12361092668514194
P 4.9632970282136295 3.4467705992102493 0.44258220682440647 -0.1710997162947247 0.1926530169854682 -0.868420174631298
P 7.158537858699281 6.996996481093712 2.467220040914151 -1.0663964036018925 -0.05499949616433108 -0.5604174425282155
P 2.7319450688072466 9.119263130178908 4.786103421823132 0.44410407794575135 0.9346849592968031 0.2773322996024191
P 8.009226577168178 5.690219128871964 9.640383752740332 0.8040646911733635 0.3223937107174319 1.170839241999016
P 9.41286108283296 2.3258875488610182 6.749547836872973 -0.8823799792454997 -0.8102163125970563 -0.7570497558764059
P 0.15769904821910585 0.09709588917301326 0.742648581894712 -0.06942261356819657 0.7040351513525875 0.3169910516446218
P 1.6711125136882472 3.1767548491751754 12.781352679934043 0.9840113163357569 -0.896714650700617 -1.7365277031181836
P 6.354402607576658 1.6028378545315087 2.8379418531098626 0.37664115920708685 -0.13437947805555567 1.1097405749154823
