# total energy = -340868.6965210597 ev
CRYSTAL
PRIMVEC
9.24266794169834 0.00000000000000 0.00000000000000

0.00000000000000 9.24266794169834 0.00000000000000

0.00000000000000 0.00000000000000 13.52757879586894

PRIMCOORD
 96 1
Ni 6.904393045932668 6.033659792199165 11.520775678646729 0.2765712530666785 -0.37414924602316857 0.38149771596843973
Ni 3.070839425738167 0.5784754746735477 9.776516036952499 -0.8980349121739373 -0.43286938557219645 0.253976141374982
Ni 2.1089457389037225 5.5064025614705505 4.266219539512627 0.6196296912223135 -0.9176673416928841 1.7017972416155338
Ni 3.085526024967346 3.3319170647731773 0.32778104871220654 2.152656121786615 1.1743819650449516 -0.7852560431072927
Ni 0.4851337719576993 9.038321716061358 9.087232065841704 -1.952780876021095 -1.0875555541780106 1.199163799975322
Ni 1.1269677348099914 7.463297171413146 4.838692825678037 -1.7819999765183698 1.3860925128825032 0.35328525808996575
Ni 5.342548545652493 9.036463939821543 2.112074381974256 -0.4193528391430003 -1.1958118527839534 1.1175829537780366
Ni 0.1759785475165075 5.176337649530194 11.843746843004709 -0.810945477453597 -1.2866563836713518 -0.08061102608484827
Ni 8.822163442824845 6.996533201826746 10.527702776054124 0.17050887678826118 1.7219243513827118 -0.6658853797557436
Ni 1.2841855151047317 8.752159476454924 7.128573954871464 -0.30394733108678623 -0.33061352752406287 -2.710032720605978
Ni 7.903331345549082 2.772929755281961 8.179261027567962 0.7773334458261064 1.90833395856163 0.10742300407136983
Ni 8.795516831385118 -0.0680777943879446 11.727301243439785 -1.2737990680927096 0.522486471810397 0.6915673579028799
Ni 4.944263502239152 5.3623740682117065 2.0217642743164133 -1.7326049710250095 -1.685546584084626 1.211806942660629
Ni 4.1910415276748045 8.154001740573989 11.595164366649326 0.2733272922080841 -1.7863585105973816 0.005963159561970376
Ni 2.9793832272657124 6.136401288128403 0.2054829918584751 1.637321430529651 -0.6030764148493227 0.09467341771518534
Ni 2.3810406380275824 1.0692842446971476 5.456957985487908 -0.22271332670595836 -0.7289419418965962 -0.7256126204130472
Ni 3.2095256569740616 2.7905093095512497 8.2724123313259 0.22515458915759934 1.8862170720579323 0.4639995313180977
Ni 2.332960279821043 6.689371620842907 6.921845975652277 -1.3331079902656717 -2.9950459337924227 0.192976461763158
Ni 6.090150978158099 1.532951920550524 7.847118363892728 -0.11183013200012999 -1.1106702858186033 0.0819791100769685
Ni 2.9001643210395973 8.220706074517972 3.636700507316696 1.4892701114139575 0.4954220114934371 -0.8856650777546747
Ni 1.5215741964151432 3.5072782020766518 5.364970333613518 0.07126995118958049 0.21462386482960458 0.14905610623112392
Ni 7.2341529498336525 0.6799987869788672 3.4872881600295345 -0.8438404284094049 2.245718486260939 -0.6284472895139435
Ni 5.543151408881008 2.784935980831806 4.253896290455191 0.7205208077124365 -1.1394980086835729 -2.8791745418433834
Ni 0.8302263375712609 7.2118319069523 12.922706312417466 -1.853904733078472 0.22205872384109498 -1.2443013157439085
P 7.550594169348702 8.938260593811453 8.210577034810445 -0.08973689964551643 -0.612934538590325 0.9646619652748677
P 5.215387921237736 7.068367216432903 3.191710414674349 -0.7515609648476929 0.3576401926245518 -0.24776589879921201
P 5.229686328416804 2.414998199744389 9.551620669788143 -1.0791621879079931 -0.4679942542997875 0.6022765446558466
P 4.127451972799565 0.9642505671386864 3.777468187354612 -0.05193859785082022 1.0450526478187936 -0.10148838375448974
P 1.1823313152900323 5.945050335427521 9.491828927136487 -1.0350006628994304 0.0639325369879028 -0.27098218901467525
P 4.798090710036841 2.1819813003316497 13.02846553940292 0.8867835076298342 0.550716927411 0.5149017174846037
P 3.464817385928854 4.948718468147563 6.230167229299015 0.2355657571885943 -1.2542507136471368 0.45572315024191834
P 1.4805922071249096 8.722425813950034 10.983162962848024 1.3539863763765778 -0.8755053636128535 0.5223481464603197
Ni 8.201490568037503 3.9443916931689 1.1711190349093417 -0.6432946389394212 2.21543294790352 -0.5348658193113562
Ni 9.177091131307991 0.43890841719061624 4.729160741672224 1.960371029663527 2.426133823529635 -0.07559171849338595
Ni 8.113454156673164 4.90322605694176 9.376979536310944 1.0678503624395994 -0.459153516079706 2.5416794567081387
Ni 5.435326445628895 8.946708392235287 9.321624274231977 0.10552321594549567 -1.9651892769877766 -0.6486062809603217
Ni 5.808462189795795 0.1837812077237279 13.228943626615328 0.871143229989416 -1.0224264257788456 0.549247284844009
Ni 8.239043527551761 8.350584043283503 6.182495397011878 0.11238523317265162 -0.6436592213676914 1.4143414804258676
Ni 2.975196298725235 5.027974345045117 8.961019739149359 1.3288898384192662 0.7192702231347871 -0.7148561532274914
Ni 9.254128767919198 6.742119526318632 7.866773821363322 -0.6729919088935378 0.6101945139513427 0.7691257132043334
Ni 3.351058629910767 3.610075154013048 2.899014533157841 -0.616769338955383 0.4373978695701693 0.5014563906129752
Ni 5.2168575054274395 0.9569950728687644 11.168693807597606 -0.3365188372649043 2.3607180171279856 0.5339196533480031
Ni 5.6728167962857645 6.498057638813464 0.30134886716682746 1.7414583076505814 1.8970743264874106 -1.5225209030472875
Ni 3.5611352276955492 1.5498567600660489 1.7940951825273386 -0.5748297612988036 -1.1787590110667248 -0.38665534890997927
Ni 4.725434097991164 6.714382280071453 7.440547268743101 0.2683756046297636 -1.288926153542135 0.1044585221264072
Ni 3.1924914201085 7.756557779935886 8.91290241027138 -0.34035929405691706 -1.219584786833835 0.7843260750938557
Ni 7.090789928660712 6.25670385299121 5.8127054986102165 1.7702821738608092 -0.3416720993310696 3.645091518302432
Ni 8.85454050833763 5.185894568097199 3.8475405494666957 0.014133096967272435 1.0697858888994158 -0.6391129967579058
Ni 7.299738920966602 1.1578474881294933 9.916702353182036 1.184791847524366 0.11242251416849026 0.8076346679128091
Ni 0.9647496712031142 0.2856585142080767 2.3791357241816833 -0.17002808049710072 0.9145953876357797 0.396480305420201
Ni 5.994886800527418 1.939481423694783 1.525505103055905 -0.17148538176891756 1.295654216294588 -0.203713645675004
Ni 6.792972684883104 6.856488298415464 8.690008080698664 -0.24397043631252177 0.29176364453640075 0.47615030774801864
Ni 3.2511176623430407 2.5082567184494993 10.756468048251369 0.19016470334597574 2.756072179363544 1.2819970305224695
Ni 4.704564153963797 5.356052083395622 12.015885062025479 -2.396976485239388 0.6662137096294398 -1.5704015287786501
Ni 2.1466558237715967 8.141644293645472 0.8709985183010779 1.4159720740507549 2.319866530329263 1.1473594137095209
Ni 6.049316871553621 3.7183899786617287 11.149511574721432 1.1138322284863529 -1.4024131044193975 -0.02961782286643286
P 1.3003694265271943 2.1343168621787996 3.7656181628915975 0.022036153864433018 -0.324271387356119 -0.9838256826875119
P 0.8330813976731447 0.8026554593455577 13.67218870356575 -0.32497201296756933 -0.5096913769282576 0.14450936740070597
P 3.200403143796466 8.3848650983754 6.26863983426532 2.3807173430680484 0.8532228980655693 -1.3988462130037456
P 2.255552936495443 5.915889718329938 2.3353199329256427 0.12759150859944476 0.17997465018685133 -2.6938288571526057
P 8.040474051252396 6.132149660912908 0.09167247690037332 0.11312236844899227 -0.2634920512852172 0.12850039356695933
P 8.54661178592143 3.1623788082213595 11.188836353664408 -1.1035084779628415 0.3442316325281297 -0.8085818623174267
P 4.66083709231921 6.20133102984331 9.7659239395852 0.5096805782949803 0.30124870120870056 0.23039166918682255
P 7.325294897598875 4.948173150743836 7.530749237186984 -0.6998177708371301 -0.8634538317649583 -1.9275727521865833
Ni 5.881470023220142 4.272755954223058 0.1781625899317719 0.540561841254869 -2.4306095999128012 -0.3701586368065367
Ni 4.181974470504366 6.64119883595777 5.072976894854352 0.02612035123613566 1.0883011740947837 0.1486655556609246
Ni 1.1564703306183872 2.7054490372377575 12.324678898153357 -0.22568089397471455 0.10815653980328471 1.349462006143663
Ni 3.816325287303884 2.8874833807359885 5.758906701798836 -0.5376148428114031 0.5747148329874942 0.4211945203374295
Ni 2.3448186226851315 6.421666988952439 11.33582712197231 0.6183927334914189 0.901693591972447 -1.3406788606343942
Ni 5.993907077734281 5.303257964580598 4.344855233396791 -0.4715503470821621 -2.3223430168942136 -2.247194042365201
Ni 6.682162339912284 7.946568545797102 4.417052484849836 -0.5248984236859993 0.010987866470071399 -0.3652858820952677
Ni 7.190601498878401 6.566823087690175 2.2507051572029924 0.1767250329013021 0.10574330237610176 0.09671050274987215
Ni 1.1175864269323217 3.7917767614683267 9.930094978910848 0.6153446906937144 0.6864642323483597 0.39639571612619473
Ni 0.6392423187844118 1.663975980130667 10.31771398361401 -0.0779044257869626 -1.0632516873253235 -0.26024911886788726
Ni 8.303538863877257 1.7729100635259527 1.492389548381124 0.14014851932884895 -1.1098513894617337 0.6545087624876857
Ni 9.342488672658629 1.888489625112415 6.666227980522035 0.7698795606512224 -1.277425094881071 0.18963145655032504
Ni 3.886671232384617 0.8471746176257267 7.518899212723968 0.27218392263226027 -2.1958228869820764 -1.475423949559485
Ni 8.397749377371923 3.492887368218985 5.3337347375814135 -1.4907451532975873 0.05030928977751335 0.1694542102715017
Ni 7.458056578736654 2.0870868294153593 12.728138911301384 -0.2752211667966873 -0.12089841284998533 0.04634721980597179
Ni 2.810602869478396 0.6953822833646734 12.40554762059244 -0.4075057099964272 0.14080492196592523 0.8168387030095804
Ni 1.099655651284362 4.793404677431935 0.48391004273306537 -0.07567733622865677 1.1161423646767683 0.3731562859822799
Ni 1.191259732442573 2.719904569770443 1.3033603538466167 -0.3106846498106197 -1.9428399627582993 2.208848352707467
Ni 0.8038477634994685 4.283486691608255 7.649926969371257 -0.2136080219705805 0.45003381316662494 -1.0645480375392442
Ni 5.989258015800816 3.205643736472957 6.365834805211908 1.5363891763889477 1.5168963577716585 0.6367825488525163
Ni 8.073396434168908 8.843430821570182 0.5541515456669828 0.32158509877320746 -0.5433594586046642 0.11106677147154422
Ni 0.2613928140090285 6.939487455796226 1.675999766749446 0.11658255908345083 -0.3263912619125992 1.1743182016865517
Ni 5.881747303255935 8.660906616675383 6.7113968983527466 -0.858345049783483 -0.8003419909061378 -0.022615423406670727
Ni 5.5433732329096435 4.270611655279591 8.607679016737736 -0.38352014571510723 1.1053519589294833 0.3168686671341446
P 4.295557615833118 8.070697575153854 0.446858960083593 -1.7919506599731783 0.5910279683252209 -0.6634795985277283
P 6.573006432488364 8.131976463064149 11.324234043675796 0.2357429061964069 1.5682610853968797 -0.10307835394942892
P 0.1631229207903491 5.876321857222248 5.947764906977937 0.04554760672281188 -1.4766521655396312 -1.3450214538738063
P 7.491357911035417 3.4607690974062733 3.1196222267020493 -0.5884771768789091 -0.3855695720449683 0.8573317780276202
P 2.483643493938923 4.424372677794776 12.055020366277331 0.22346434593936998 0.018372588969916746 0.11455190180666723
P 8.645841068063953 8.259756346225512 3.3281229496167404 -0.33470775219809457 -2.0848612736298286 -1.3241057867670616
P 1.7330464370467515 1.3260363151737842 8.002834210660255 -0.44820575881895064 1.6081301536776755 0.7821784326232336
P 6.869474246758445 1.0563075390220262 5.767212163137628 1.031194401779463 1.2407886746049601 -1.441981353630323
