# total energy = -340893.6969359038 ev
CRYSTAL
PRIMVEC
9.06009712957506 0.00000000000000 0.00000000000000

0.00000000000000 9.06009712957506 0.00000000000000

0.00000000000000 0.00000000000000 13.26036795779071

PRIMCOORD
 96 1
Ni 6.635125768485106 1.8925908343271611 11.407112359831885 -0.49348134282729855 0.09976008820947335 0.02995669426309034
Ni 4.443243691171518 0.1863988108223506 6.226551635963586 1.041880163628083 1.875769394362047 -0.922314096436276
Ni 2.6030383374687904 1.5131811539208357 4.746402689550294 0.8276450495964649 0.9157282156886424 -0.3168632678175059
Ni 3.4092873058685917 4.074633646341867 4.771120446077375 -0.6020515731292341 0.798458914950812 0.6645288657278491
Ni 5.15772293746048 4.364964453434559 3.010925714640719 -0.13323533714878344 0.401214991891709 -1.547316879045045
Ni 7.2640233388871085 6.182700766675752 2.7690564601789545 -0.5356705746008387 0.80187796793469 -1.2123329903674283
Ni 5.179195367256381 4.348574738033383 11.617977962495514 0.24304278229192985 -0.1006067524804848 -0.3675029443512445
Ni 5.636639662781739 7.98615836710752 12.49614598056615 -1.0693709128491842 -0.1537421988528836 -0.7349243847322762
Ni 1.9882020375491671 6.3883377873835965 0.40970573863185994 -0.11706798336030161 0.09725017730342607 -0.3643374021390693
Ni 2.7880455173980394 1.6732458869183895 0.39706599736255066 -0.4942830127929875 -0.4616217751145405 0.6873962572443257
Ni 0.6433556731312434 0.0971178973465034 4.666986409644818 -1.1041918771831112 -0.7324910927004353 -0.1981513210958781
Ni 8.348725327264654 2.331597832538315 1.242026948054306 0.7881901860349522 0.41793230464638986 1.1936004469549313
Ni 6.737432383360771 0.7932631314266089 4.563794623296133 0.5675604813309 -0.5012573872282915 1.5391130030780138
Ni 0.7187266197439479 7.553828660356104 2.2582672197610694 0.16613080232522354 -0.9153037265567139 0.6306514962541139
Ni 7.552360924648536 4.164201764891355 3.8433719534012165 0.5616579998035359 -1.542157960551925 0.54730995861198
Ni 7.6590888668408255 3.802160290357917 12.670400637422919 -0.0428057823116166 0.4924511017905713 -0.4156746189604648
Ni 7.911756850869566 8.670884254978867 6.945144166272522 -0.06851989924826908 0.7945827198248574 -0.9418855908103005
Ni 6.966625656165385 0.5489240945334679 0.4342912177433198 -0.3384602772619913 0.27151055071431945 -0.4513342771456034
Ni 1.8518566383936692 6.714410676984658 9.280520059243281 -0.00943826259476439 -0.9058891181110333 -0.06444727184079223
Ni 0.016712254852962433 4.8027392784591125 1.4708931513586532 0.4960524459885844 -0.4727307405435085 0.18847805967217218
Ni 6.450915877088363 2.130726422831587 7.147072889294517 0.4297879184333953 -1.2173260727066455 -0.9225722351936692
Ni 3.156990785815222 4.291958192128492 0.5417421556730411 1.224881002235768 -0.8294977865344875 -0.7789223875797812
Ni 5.899935140544907 5.660286515848111 4.866608431980721 -0.9110454655009922 1.2854821608575926 0.11435161287040306
Ni 5.501490196424999 2.9427557330920577 9.170406358816928 0.2388117749297177 -0.41582142895097424 0.6299855805353408
P 0.15073102110905637 5.562999194688451 12.723508207775085 0.009967395625357027 0.292583826444851 -1.4574424253803997
P 4.136106404217476 6.066459722675152 12.547980607295395 -0.5046586996003567 -0.22143497421416705 1.1031307829084485
P 2.4972345251664505 8.487580373278155 1.3505025829502368 0.06314989318560736 0.28943422507227573 0.6025547380178977
P 6.18994884424399 7.953007472329795 5.792327462937773 0.607785647399534 -1.3398633067116343 -0.06218727216202194
P 4.621492038768387 1.093943287277048 12.529257010917247 1.203282707239702 0.44822709897518936 -0.047101581473493075
P 4.086130909384482 6.277532801559173 8.409632735089941 -0.9406360346739155 -0.9497238559077966 -0.6899375356089408
P 4.61485098769649 0.9768505941621796 3.9537375245230653 0.37625112285751977 0.7098512438137322 -0.8558893891541389
P 0.2528274417352426 5.794883316290272 3.392624881548911 0.5665857761224564 0.21052809749367613 1.8179475982575724
Ni 1.1726755298620224 0.9465083294421475 2.3710464007131407 0.660207869754992 1.2751969768815006 0.6629741196462196
Ni 1.9508381976849056 6.317297567117914 4.836228114853456 0.7407900994844339 1.0601499084715484 -0.29506596943675634
Ni 6.05447321439668 5.667625194385951 9.226417690244872 -0.3157525512518304 0.13873364125919332 0.5211135027222703
Ni 8.725833743043065 2.3169657759474367 9.980946189137127 0.3119766291491659 0.4459056499308643 0.5214932546591922
Ni 2.463512844280228 5.180889605387957 7.333407373428448 -0.3134359873035118 -0.15620480146076324 -1.0380618183232575
Ni 0.6003899753164306 -0.05809696574820357 8.882761870472963 0.40333178112439566 0.4925197502449776 0.7666026896721636
Ni 1.3348693856452454 0.9700827017328383 11.419178596963608 0.382553925147096 0.6761777628206871 -0.2932201744772692
Ni 4.092817260941181 6.843199955275268 1.523828579868576 0.2869189148495897 0.49016847640398165 0.12670113557469145
Ni 5.63791713645314 7.8883455603241615 8.190106585741963 -0.750393941122785 0.6944860742115717 -0.49271155454080945
Ni 5.429978851117381 2.9167713750099282 4.959536940492783 -0.8324046757686373 -0.9280934221222145 -0.33933496655746076
Ni 0.7820132090310091 7.251275782463971 7.090438223195704 0.8880631456732061 1.2639604847357329 -1.73192954222454
Ni 5.098506143727983 4.670425622450947 7.122674048180438 -0.5174972461259217 -0.21533837439812592 0.09013567774583185
Ni 7.988595533189839 7.2858491124644615 8.95460662734872 0.9069422419658961 -0.6505081259687249 0.6071495564774319
Ni 4.801842328860043 0.2819112589874895 10.338220240650054 -0.6065610309638134 0.366080352972105 0.3744356669153358
Ni 8.286908285704554 7.008936308969967 4.946700595119436 -0.3649590948834682 1.6276754227994548 -1.0837816889578753
Ni 7.211058012057216 6.17588757376161 6.840453839886603 -0.14558023186738153 -0.5726080710571365 1.1618388382726184
Ni 2.4322373895732854 5.253270720003764 2.5453146477153505 -1.3080543897311536 -0.44761800463628065 0.37032138763664607
Ni 2.577371082780271 4.99779410591733 11.318108685323022 -0.4674142134266015 1.3550454137687116 0.9847890750420458
Ni 0.9078760760034444 3.722005612550176 3.8530381708481567 0.6451178081910889 -0.9165638242160602 -0.42348922990887716
Ni 3.6086366192859898 2.5534705469990095 2.7608751926238067 0.262362051445832 -0.015865763387663 -0.8432310769601801
Ni 1.0612363372503788 3.3337442174136416 8.145737478908002 -0.3604902604788372 0.228203146175936 -0.274724686776243
Ni 3.739047654932494 2.5793461839176155 7.069950625939387 -0.2025317095517609 0.5167567684154712 -0.38428067803021565
Ni 4.019584497211106 6.942806661256766 6.2733869011901415 0.4686360016488445 -1.0301340788357483 -0.6280497969652088
Ni 1.1050056656655698 7.22863460016019 11.582308360762829 -0.7755953800890771 0.18896219839744233 -0.5824312277951453
P 0.1402050004605842 5.6125398048673505 8.087444815065455 0.17171626683280106 -1.547148986008613 0.9645259539176356
P 8.570833604246316 1.5748713541234929 7.78721766406303 0.1446762319958734 0.3004534590009148 0.2725978702412273
P 1.7983748860370405 3.276774327727299 10.28020572178419 -1.368568645066127 -0.15456186654070156 0.19833129831716811
P 3.9430719783814046 6.106142947361249 3.6790625649777646 0.9823251868825856 0.6085829464898488 1.62088771045366
P 7.019011136789817 4.030338832302978 10.372511801635081 0.5007405954928731 -0.42451278607738496 1.0328512206565954
P 6.409103529616595 7.831384730734778 10.330051657230651 -0.06369265306295481 -0.5120904732880536 0.35019144965599047
P 2.4491344704042377 8.484155656627163 5.7330400004489865 -1.119809272005394 -1.1604656120741754 0.25473564524882586
P 6.9695158270957185 4.1131028180352835 1.6751158909309944 -1.1189448671225697 -0.47628503355367 -0.5522053390310683
Ni 5.354254560723225 2.865219423305843 0.5629400645310462 -0.48706026979230305 0.14364264852503647 -1.068984990264675
Ni 1.5975578369120746 1.107796175529341 6.805976546913891 -1.203696911958985 0.3696937813549762 1.4783565498252476
Ni 7.132026786272552 0.6041988400785391 9.164969394631054 -1.0492615436938186 0.5917319363707809 -0.08846677468384118
Ni 2.652180303381437 1.6135217277561165 9.245274470048336 0.5746341003482296 -0.7784832431598334 -0.10207588082684355
Ni 6.215072493114891 2.1197455853157083 2.569010425305309 0.9714015979915464 -0.24491403117271368 0.994658511636958
Ni 4.001518663872275 6.864862647107337 10.52585484869779 0.8382608774390983 0.4970114674677441 0.07076087276364587
Ni 7.924604068359266 7.327145034409492 0.13736828410231547 0.9195329341467131 -0.2515554477486313 0.5966705113229789
Ni 7.641648180192255 3.9885446050251314 8.226612434424085 0.5348521924646014 0.14014646244631995 -0.31015757366255614
Ni 2.9854740902598547 8.482497658883428 12.551428880198484 1.297766120431268 -0.37572713203324964 -0.8331045300491394
Ni 9.296293688051156 4.9677236441061075 10.49033020851647 -0.32365766503152 -0.612018711644275 -0.6208833611237565
Ni 8.733181481677864 2.4014693002961196 5.604110290655491 -0.5046890386176598 0.03095042563492734 0.6401242116312396
Ni 3.3809654427707057 2.745000996739672 11.572561508452942 1.1380275947856338 -0.8782405031558295 0.3516960592259749
Ni 1.1078052356263015 3.342306009041122 12.655707878182405 -0.43865385346445745 0.040207168346504944 0.014540102597703991
Ni 2.986380099955884 8.519308832833111 8.022960480960242 0.5663872869584052 -0.4659530555000427 0.36617214135496295
Ni 5.476058504257448 7.971191086929109 3.581028691828575 -0.1232975092097812 -0.6895912080131157 -0.12032299996248955
Ni 2.9888353862321244 8.462230221983246 3.5380385317519694 0.1449855357061761 -0.6355155092146345 -0.3157535796930949
Ni 3.600274149791636 4.14446887371183 9.322768197378837 -0.37091351269469025 0.8053150186406969 -0.6203120620013187
Ni 7.303235438531271 6.130886072159819 11.419232051535673 -0.08031509211098427 -0.5473526389244573 -0.3755926633379144
Ni 0.6034205777496496 -0.16986956992798613 0.27959096815595763 -0.06367696933367098 0.3796904875563719 -0.731422799336921
Ni 4.7763290958198485 0.4651390358737364 1.484988850209482 -0.8440013794673011 -1.032322858956951 0.3411941312533866
Ni 6.10154041810542 5.668667105536385 0.3302260380476612 -0.5679980830889508 -0.47545019635720054 0.4509959199695781
Ni 8.173158768368033 8.813127777255518 11.239394562931968 0.15052112081242466 -0.33620182024511774 0.2370225442397789
Ni 0.1867938310498195 5.074741509401126 5.718772159755912 -0.3393987299158606 -1.5935697393649975 1.6540202313415708
Ni 7.9160513368287475 8.885536072162205 2.5460702598018394 -0.732082801518423 -0.16689493418475773 0.2585498767885935
P 8.457192808073321 1.7595342503682505 3.4697607350494812 -0.5664906453054889 -0.02801576848663562 0.5212009202297541
P 1.7132190347072163 3.128569261650773 1.8663573235786233 -0.027341368127430335 -0.16604852702406242 -1.4054495772528763
P 4.764804652486353 1.075623771223329 8.264192810605698 0.28341578679233775 -0.24307980617745234 0.18938720175000287
P 8.576677366785708 1.5046646627781572 12.529854071306929 -0.10373424236587296 0.7504309650083076 -1.0394944370047259
P 6.186216084296348 7.5810542517217945 1.4262323094025688 0.6712255610217344 1.455625683886635 0.474889438757724
P 1.7738401434685582 3.2199947000771223 6.021851429281438 0.41911964008627167 0.6254954059744712 -0.3616768245877707
P 6.868640707539781 3.985065527792378 6.0281101442616105 1.4311950616480964 1.0033221008492268 0.20765308993872628
P 2.5708478129688577 8.559798406148674 10.27060564304506 -1.287474508697273 0.7234374671385992 -0.17122081525362126
