# total energy = -381167.77451161714 ev
CRYSTAL
PRIMVEC
9.27785291077704 0.00000000000000 0.00000000000000

0.00000000000000 9.27785291077704 0.00000000000000

0.00000000000000 0.00000000000000 13.57907555466534

PRIMCOORD
 96 1
Ni 0.9093770973912901 5.703411595340524 6.663550609042913 0.6403121592723295 -0.7938576687333747 0.23526596655998835
Ni 1.2538925351431294 8.275343740247976 9.824515075840774 1.442501230689535 -1.2085367565497898 -0.12956431605509947
Ni 8.061582010529682 7.170193742033827 6.529987567165674 1.0258753035593946 0.7231559313424385 1.2711215212605462
Ni 3.2825692841336984 5.165982691014921 9.037838510207184 -0.1276213333961157 0.12246627155773747 0.05012134213642335
Ni 8.02963836315902 5.2540851817008996 7.664180028163556 -0.064000928331993 -2.290990727835177 0.1116324141670271
Ni 8.16905665797138 4.835403516032607 10.144520281927258 -0.9522754186850567 0.2684493952904925 -0.3647104692077719
Ni 5.492461055036495 8.64950099007781 10.675013991245724 -0.7158843373816897 0.42488173938102963 0.81983326686153
Ni 5.965928441797952 3.5170948485355664 9.658809840541831 -0.31072218791677453 0.16124082122277392 -0.03226863022571862
Ni 3.260849830606332 2.5375762557951758 -0.0023259577100857762 -0.3094168388417897 0.19696475698694466 0.6478426633214197
Ni 8.510630088583737 3.2923017517758204 11.735647923688983 2.553842060212602 0.7932087222954661 1.955951817549909
Ni 6.795331375387214 4.7548624754213 3.1307919615367132 -0.49229272183583606 -0.5900455498072935 -0.8030704455808944
Ni 5.98379758639159 2.3822371654881707 1.9601802169521914 0.7688284936788887 1.424124270844244 -0.27099581586143007
Ni 5.565718981158702 1.3076948038339449 8.914622129830894 0.3030482163112846 -0.5198937713825562 0.12111001464015916
Ni 0.7912162190342481 5.801320776491443 11.266898325102948 0.456268224112111 -0.9463513398911378 -0.9805752940710145
Ni 3.596921494477242 2.6109269604459064 5.236362627182327 -0.4157496951727743 -0.35807316639691233 -1.0263555856299225
Ni 5.627611537536772 5.3906830092461435 7.56126358982822 -1.3219018371372073 0.9100766738298198 1.3269676816958889
Ni 8.277830204812407 2.48542544491208 9.593793431108374 -0.22506048678189625 -0.9590178796152128 -1.044021635451118
Ni 7.904610018120663 2.1193863163280584 4.646338502822001 -2.013418287197494 -0.58456807163249 1.0461317398155856
Ni 1.3720923804821512 1.3960477965469358 12.182643740692097 0.3099122904209695 0.37398572386211076 1.2110942328643206
Ni 2.5642964720099624 9.469162178172098 0.5682786928449737 -1.1802713339461932 -1.0482958373464397 -0.9108114951133153
Ni 7.599285158602463 9.079325357021782 9.924606407982568 0.9219343444993542 0.03857606050098518 0.06539549468667447
Ni 8.744376313346008 8.830771679107151 1.1540637662370588 0.07182788057557953 1.088271606408429 -0.10093148280975522
Ni 2.165200353712995 2.5522259854490468 2.9363253823954647 -0.42875304941097775 1.81817025579134 -0.2984935070610666
Ni 4.276143823945409 3.1019202112454654 7.422988326487269 4.168733700983827 0.15339072905073584 0.3738206590391562
P 5.70099007574606 0.28337253188423955 1.6055083136828772 0.25894891199922504 -0.9585841345119039 0.2691986147516912
Ni 3.4327591661076458 7.49612471273711 7.038564204691018 -1.0994049973174294 -1.0930852257469885 -0.30385502848329604
P 5.040323451982605 3.135756540598009 3.769388428934982 0.6593203249437161 0.9130290715899244 -0.14460552665893806
Ni 6.191482322491591 8.423065713363197 7.249583401106156 -0.6523325807719733 0.7247196762851326 -0.03697066368707826
P 5.3220640095501155 2.905257564334064 12.895369324595409 0.6289807934199103 -0.06075902435592762 0.6847169106399498
P 2.5927516467081397 5.1132009861378656 1.483405275648869 -0.7296559372444853 -0.11143649610613712 0.1568347217352783
P 0.1383634029430483 6.28722976392791 4.727297046811663 0.8626408489453595 -1.0706888603296594 -0.4804887872223725
Ni 1.716829558917162 4.4679263202564705 4.534406774870031 -0.46939062042668195 0.05826736828232546 0.17039729091106137
Ni 3.0876044842942787 8.416200102252454 11.53155464442813 0.6146232391466575 -0.5037652412518098 1.1141515594989844
Ni 8.917770105303697 6.913076605936471 9.037934072091563 0.2200550631475049 -1.608540758852533 1.7880484967052948
Ni 3.874023125618573 0.523499136053075 7.280964810593966 0.14939703451031044 3.211620751700811 3.623334072020682
Ni 4.725275402675135 7.440021536538911 8.823085905804259 -0.127731890832051 -0.1656384360698373 1.1607013822340655
Ni 3.7410158271271907 4.285764957353303 11.861499214275344 0.191546928405483 -0.6035831792824121 -0.09278854198764665
Ni 5.980374058689071 1.3419579144176974 6.145387166165229 -0.053875409862216894 1.0715671491695544 0.9351899239576796
Ni 0.9765775133861936 2.099438932695492 4.840926621835615 0.20160945484780762 0.4220255008791571 0.9996762765665236
Ni 2.2550006914709537 7.013871199324472 4.808187862475505 0.496483619988732 -0.24101906699368164 -0.3613312683228938
Ni 7.972542456705617 0.5792441871311738 2.936950709677714 0.35121886247924033 1.7539153024670115 0.26675015321119866
Ni 7.157362471539018 6.7358417828979045 11.111580573857506 2.2671398893595085 1.4774705476758685 0.0768045078545645
Ni 1.5619172498413656 1.3071288548099513 7.7059350049255855 -0.6866334109363723 -0.011877725274192447 0.4801527440391924
Ni 6.422974029010738 4.729571048545775 12.192448575586466 -0.07061586254534935 -1.0105854672798595 0.3856469622501229
Ni 7.50505928503393 8.162933275088825 12.859520628959189 0.4585688472208296 1.4054493201425602 -1.2890071432917156
Ni 3.503734740428173 5.164767292291263 6.102491013502358 -0.8835560018314718 -0.9551092885894262 0.6320594323452341
Ni 1.2977025563119569 1.1376039274916931 9.959967088558754 -1.4947303631975806 1.9077544319090756 -0.08319858430636638
Ni 8.572541200667512 4.266773192564529 5.184898377410306 -0.14239309238865155 1.0536177637799855 -0.4883231956651267
Ni 2.5077850702862587 7.4025482888682435 2.063449213695916 -0.39503148878881644 -0.630139589614702 0.6359335705886596
Ni 6.8192589578934415 6.60715796383572 0.6713129599115336 -0.4361961359525843 -1.1844406348325343 0.9782695287559732
Ni 2.1476744896748934 0.2700875743849503 3.922519390263126 1.7525456758129947 0.5678445882302221 -2.936842585978813
Ni 3.399609397866176 0.15950020731128686 9.532143954475035 0.5004739720950477 -0.3057226778196541 -0.30949242927473153
Ni 4.101080018474295 1.8477678962224695 11.390318818241994 -0.007808183190509134 -1.0182530111274464 -0.6812016983978396
Ni 0.35470808689543826 8.250980098657688 4.023982916841782 -1.7244651155266946 0.5920327554406514 -0.31368101343478233
Ni 4.366389498640281 8.209656542053294 3.3522802871104496 0.17463575447244117 -0.41251164785145084 0.4853543428447899
Ni 5.092149538015868 9.30633586061324 13.051473837762735 -0.4849110846597843 0.5784372761444038 0.31372523640915645
P 8.942486305302376 0.6212413158526506 5.870044615924703 0.5306268415293441 -1.2595032202953276 0.024014617747042513
Ni 6.947747942045726 7.874271439293458 2.633335758440203 -1.8001524790576802 0.47149558258482666 -0.023010344852244242
P 4.454584767854781 9.00450875162038 5.646179304450193 1.6341918837617342 -1.8666090680190175 -4.622070610381756
Ni 5.2909460910833115 4.615082344347697 0.9920436940910717 -1.2439945831367674 0.034130366024805736 -0.3608849248140946
P 6.646802229073839 3.5250274127243313 7.570062705473396 0.38901999248741387 -1.5080849301276156 -0.30143022109188733
P 0.9927395330549985 0.9975825722439285 2.0075167499901996 0.049831835920462565 -1.0053638138696042 0.462476666915668
P 6.887451176358262 6.962323448876779 8.689277928611718 -1.226696715288268 -0.25075377778294233 0.6047183213281199
Ni 5.057496757612317 6.970209623801282 12.723050835783306 0.059153627542020706 -0.3110548886658449 -0.7883992167219648
Ni 8.74766067325574 6.468203561665976 2.3850696939639953 -0.44039397608401576 1.496910658678351 2.2030543717335087
Ni 5.645879629803062 0.9818658895120368 3.809460403189595 -0.42544635363524796 -0.3809158753230408 0.5578208854456328
Ni 0.8459741065688562 7.901706050177876 11.947413987258734 -1.1441977281520874 1.886946494024789 1.4025959098541652
Ni 7.860966998303178 0.8524491200745159 7.801491322593146 -0.611474923325663 -0.7203482866903143 0.10047973998431727
Ni 3.795959271718846 1.351449157885658 2.0174292079776572 1.0102334832570794 -0.9774979406972714 0.5632443704540493
Ni 7.407131548177308 3.5955390944022403 0.4867894556721559 0.7392965456580429 0.21712966197059377 0.24372643862251572
Ni 2.115879287949868 9.19475112435795 6.03930698000724 -1.4807057667837145 -0.5981877192984536 -0.11611898918347098
Ni 7.155766680848412 8.689377201637237 4.978822420994904 0.00783055178801232 2.658751039612866 0.3370806233056453
Ni 0.6199786000794449 4.0383060660752506 8.755978268337879 1.3715786355370443 -0.042575154358049254 0.5394698937422708
Ni 2.239840679910203 3.317862236384063 7.050350788954652 -3.0010795415810123 1.5663744098971282 -1.0569190602390766
Ni 5.456769155113479 5.746460832575458 10.383566016238795 -2.104164859054447 -0.442473998541496 -1.4493815027491361
Ni 7.3427339715291 6.583805608206338 4.5854089875700055 -1.114650096401958 -2.645556138189147 -1.8150515076567
Ni 0.5635776048046846 7.172364759601278 0.5064863372777088 1.777797251290932 -1.503710969429636 -0.3376889463136055
Ni 0.2416695110981823 4.785145387131392 1.462833492519339 1.837309804834268 -2.0170083185415972 -0.954093188620086
Ni 2.774013057884629 6.499145200928585 13.375729228240882 -0.35315721715253373 -0.0001385824603933097 -0.5997792321552896
Ni 7.152918380022738 1.168155896934503 0.08435702148948106 0.7118405063296193 0.08230486884750342 0.8601707901383121
Ni 5.05490823666651 6.681093173216149 5.651271917880852 1.1661526351566238 2.1123993311490974 -1.6286943509822724
Ni 0.2922542204198004 2.427401753173442 0.5891594284744871 -0.17833351503900255 -0.3145590451643615 -0.43581098469902363
Ni 1.4823782173381133 4.233298699473227 12.970623844651444 0.14242497406785148 -0.13593370991655299 -0.05666017169620565
Ni 8.460548238886718 5.6203933680176394 13.122941138284435 0.5537647130983883 -0.5279482662559166 -1.5661815771600318
Ni 3.7768376169901394 5.411085007668476 3.6298773555940973 0.808176399348892 -0.33620824800302096 -1.008870541471282
Ni 0.37717255200684907 8.499533776572319 7.759939530808583 0.5482409550666816 1.679558227711675 -2.301287481775495
Ni 8.707700961020642 3.0430986241615248 2.7507265750104994 0.2824541942100168 -0.018650011001019495 -0.1179059058805647
Ni 8.89994734997432 2.6234427839437355 6.8811960479652035 0.00968457427761558 1.9323539756253105 0.5705308768131335
P 1.8606270002758356 3.386889461605595 10.861237198127654 -0.5170511597274385 -0.18170037462870642 -0.03257613416380842
Ni 5.923612154938354 4.529958044427326 5.4187976867446395 0.24612939163705355 -1.58774387671184 -0.49608638455031334
P 5.242302308578407 6.449629300255559 2.1811795996806085 -0.11030675337706808 0.13839554119348424 0.886805362006705
Ni 3.0894971662761597 2.469170646714751 9.223207226841412 -0.05373811295340422 1.0218024190416015 0.6068513085107227
P 1.8443443685199499 6.75338620264171 8.271218806869818 -0.057874246608964834 0.02658340691548325 1.1505601800350056
P 3.4807534989128857 6.246769047638783 11.21032754512099 -0.37297656587130606 1.666258939499608 -0.7540639337752046
P 8.612872027016707 0.6394036405964239 11.733026930258193 0.23938050294899416 -0.2011939645769438 0.1503329160610185
Ni 6.831385111571472 1.9568197786490678 11.509827768618482 -2.313897200119705 -1.1470189996509668 -1.3506184883456094
