# total energy = -340888.0923013204 ev
CRYSTAL
PRIMVEC
9.13180412929105 0.00000000000000 0.00000000000000

0.00000000000000 9.13180412929105 0.00000000000000

0.00000000000000 0.00000000000000 13.36531840012306

PRIMCOORD
 96 1
Ni 6.601563875108094 1.9318149098812694 11.405254491270757 1.0324688976165122 -0.13669501356260977 0.8851331165106046
Ni 4.778453962141126 0.6458797248616311 5.935204253020346 0.5398946399845154 -1.6430182238041122 -0.5208180829690385
Ni 2.9120958245953505 1.5773821943877562 4.636428838148457 -0.03864419473475925 -0.9579665555325632 -0.5199932730748981
Ni 3.273961828688346 4.006725191204667 4.132850930946036 0.3614081443074163 1.565112769575885 0.4588598960986872
Ni 3.8448000395510724 2.71895816626727 2.299288754918911 0.07487078116696137 -2.2487955825243655 -0.5750351924413902
Ni 5.190535757399423 4.489386700941344 2.7045253497666772 1.2775847603873869 1.7736073815793003 0.4622354974391394
Ni 5.565387187031073 4.76383394365492 11.559476966101668 -0.208522379917557 -0.47590373895485133 0.12360732714071615
Ni 5.477137431471612 8.342222728167533 12.52796780844377 0.21416209470183759 -1.1750180559670538 -0.736697417472299
Ni 1.9817476151171056 6.684654161307962 -0.015003554261609304 0.3711564819434317 0.8581262489044575 1.597075695635727
Ni 2.600664774967886 1.8171468448398644 0.010459568503498051 0.5007205408882152 -1.1423105384317036 1.976356606458506
Ni 8.196205179388999 9.22029135873664 6.826777908785735 0.13359169204693766 -1.7327684931860674 0.20252168224943184
Ni 9.261841067738661 2.395619243993951 1.39495157645635 -1.3181585680446912 1.0477358510779118 -2.020030136087057
Ni 7.420357964769042 0.7212645946975637 4.68704368915626 -1.9128292753288219 -0.6161432753356099 0.07014226534304048
Ni 0.6121304029869776 7.5447240058456435 2.0246049984771695 1.269181623925356 0.14926153737371067 0.6172123400300725
Ni 7.527437500539967 4.101677691029508 3.7587820969322925 0.8780623257067522 -0.30693598140146494 -0.8511876128030954
Ni 7.749522978106819 4.355952778317707 12.769465675328533 0.25551957460270186 -0.6852144191016586 -0.5051546654001687
Ni 8.169631629236056 7.557143259525369 8.989646641115371 -0.24352332147277414 0.42748241022867023 -0.27716157835250976
Ni 7.064290656327976 0.7919465853827178 0.16160279896617247 1.3063062966917955 -0.5204624994018326 0.5882468060356578
Ni 2.1898796959026194 5.733147561553303 9.053413116497836 -0.36476549081542337 0.981026008455188 -1.455747297066164
Ni 9.30494318345065 5.071055231557125 1.2355568477399994 -0.2808634526841292 -0.3111315075400513 -0.0223822243499421
Ni 6.7407143071460744 2.001408389508612 6.88905955280914 -1.5396192532904711 0.45053312140054663 -0.17412899003935173
Ni 3.948309039889077 4.4525398710901 0.5978601326007227 -1.1552161907497782 1.1988151583866515 -0.8977317791112217
Ni 6.30525509319653 6.146836554346622 4.56150329806259 -0.68762045743999 0.47333957777210095 0.04648528804573284
Ni 5.650614315408188 2.756261586327327 9.530474090733208 -0.5024066703413864 0.44964171993452884 -1.766354813781945
P 0.26652540259066343 5.888333441724811 12.315218687466734 0.14215680800812935 -1.2460162415524865 0.9258401073116636
P 4.135931088494692 6.231196161326992 12.31856001461483 0.6357793043989824 1.0568907781043024 2.0014950533973463
P 2.3659134850085497 8.593301683994039 1.201220350856812 1.1141911544876684 -0.0028917197254982457 -0.22887523254229614
P 6.317537369813612 8.20956500889888 5.766212911295154 2.2120884569113195 -0.8474841958095792 0.1386235980438903
P 4.707454184670638 1.3475255514668993 12.425830405093041 -0.7516391263837958 -1.59841369772086 0.037048825223181356
P 4.209770857063999 6.239378257868929 8.102310142487768 0.40468443849754815 -0.24122809768069423 0.2727426233492077
P 4.912846724203272 1.2015080026883644 3.5691547041295695 -1.4169169544625275 -0.4033155831744796 -0.2225616316194425
P -0.009580175761323386 5.950438841927614 3.4833093526097216 2.4321460911619854 -0.8073585314332868 1.6383100196951657
Ni 0.6392335977821428 9.28594903076401 4.502455225898002 0.9541520668824793 -0.9172248548388268 0.8197713032753431
Ni 1.6986342902402507 6.531833418418107 4.983299506603601 0.23182763030240072 0.23971320369806454 -0.3500976043906035
Ni 6.684946379041603 5.823488500269129 9.493693009872032 -1.052255079104504 -0.5392035274547617 0.03324307832384597
Ni 8.81355166892146 2.529363647959581 9.929522975071135 0.8346741885291044 -0.3763542240942873 0.8585476527125924
Ni 3.0508353254453997 5.0509196033484525 6.446052902707911 -0.42798968888239186 -0.25085019415149057 0.5838237372672976
Ni 0.524619410385378 0.2556220284041987 8.975346235775334 0.8546904837500313 0.7483594271912595 0.22208572042428848
Ni 1.5887878178039156 1.3168974802596944 11.218594021644904 -0.2527160437156358 0.522332462731036 -0.5519885950345719
Ni 4.237020160725985 7.1198668165447465 1.291676350305258 -0.6678602440939272 0.14655699395835406 0.05008020448584278
Ni 5.706774911092239 8.197036173569039 8.581523482967487 -0.9052070044423443 -1.275353814174339 -2.05783923651503
Ni 5.324471929252754 2.814257674650809 4.838672731601112 1.2529124544516874 1.1697005004088823 0.2265445275265905
Ni 1.143356673693886 7.7554312554088645 7.3249698778849925 -0.9395924239007496 -1.1051136176664322 -0.7269894461559158
Ni 5.2988754821466735 4.396004871434822 7.364958961553291 0.21890166626935204 0.10083558066183924 -0.01918891422362502
Ni 0.773146026944616 7.1987838682360605 10.669533337381742 -0.4552256417802095 0.4488799020678398 0.20642153152447032
Ni 4.68688936166568 0.5496752546842237 10.315352659683494 -0.12392254438828981 -0.163134438701061 0.42578882457633127
Ni 8.443065241686067 7.384762192089947 5.066458281334792 -0.3829151651412567 -0.24479678886855902 0.1406257160755836
Ni 6.989565102753571 6.22919629621239 7.0525708988481535 0.40514158063962485 1.023872928417385 -0.11163524238050451
Ni 2.161096249139021 5.787883595785857 2.5697097851711708 1.2824104639108043 -0.2600082065016748 -0.011997281571192241
Ni 2.3824694459801243 5.4073613157607445 11.507419290034013 0.10164804926080558 -1.117113984561418 -1.1120478828924203
Ni 0.9789385395001698 3.777608224422088 3.472616923099728 -1.031402661135527 -0.3439115301845496 0.3232208346044176
Ni 1.6160188578575487 1.090593109163406 2.534064700749524 1.836868346421475 -0.45617720706020143 -0.7358828919908037
Ni 1.1632092159730938 3.317712302496849 7.9430222558802805 0.7619489929502361 1.1864882613901824 0.18371586239683843
Ni 3.874496666732298 2.547864683220701 6.725334522552403 -1.4549445986592104 1.5235583431728665 0.9813509958947743
Ni 4.417647247332578 7.2129564283176295 5.944385368939166 -0.8026325867125274 -0.44460287195904075 -0.14914455217987216
Ni 0.7116232358482592 0.0791681763061606 -0.14145986531415922 0.09584044144009302 0.3495134497523594 0.46010765246285923
P 0.10000512707557029 5.910514594068967 8.150063999247147 -0.018963428476380245 -0.8778980322147462 -0.7306522397194837
P 8.687633221134892 1.9107752330591463 7.8190452296615875 0.17212070136007132 -0.01101691993579393 -0.09073525900304373
P 2.078517343973024 3.5527923374065313 10.307667333288746 -1.2622663848627615 -0.9683761809016611 -0.9356992594939304
P 4.132944988529052 6.17985715824801 3.9295377032243395 -0.6773980083810334 -0.35530460251283974 -0.667261948388296
P 7.264615044542781 3.903937603396588 10.50031552691298 -0.16018255516158864 1.1700565981967204 -0.42505091796904215
P 6.522336342074787 8.266766630259024 10.506984483502908 0.46332847339300204 -0.3283879806276538 0.4992799517869465
P 2.5108169536775797 8.536830606967992 5.652380406335878 -0.40622710039431975 0.5255468559032755 0.1721168447053294
P 6.994185795666763 3.867437782104042 1.5669902012351624 0.8369573281363263 1.1610986176724842 -0.41987297331252854
Ni 5.617630238723506 2.793291052262096 0.3142938702367244 -0.07016514816117593 0.6870859250927586 0.03735401516842599
Ni 1.534910173163931 1.1610175829707894 6.810511426006549 0.4109774705951116 -0.09349970912205832 -0.3816352699875686
Ni 7.241730743277052 0.7794396663829003 9.164786426592444 -0.9252904054557806 0.5948229165912788 -0.15936340169440297
Ni 2.831069326139319 1.8073027599378468 9.108170153879996 0.060925117620146685 -0.15469093591939811 -0.35392263456364853
Ni 6.743736934328419 1.8719559335058285 2.692724319229685 -0.3040838566646505 1.1952395252202515 -1.5772026108608839
Ni 3.9427751665582584 7.209659847009996 10.290800890975179 0.8944919320176853 -0.9171214964917431 -0.6532710334258426
Ni 8.38219263504706 7.400030568672668 0.16547742347816327 -0.35876350759571757 0.4882432343568108 1.6923895751483888
Ni 7.629037953805131 3.9524183517683977 8.040348111610534 0.9373432228552566 0.5457516129859246 0.5475197606299409
Ni 3.018307838969531 8.6713146870719 12.069189619349707 -0.06636120103405346 -0.023271568933430888 0.4446681779793374
Ni 0.2946495330927354 4.894811410955141 10.237887564856207 -1.6047787207069393 -0.688866156921633 0.03177163598464206
Ni 8.885875557997506 2.3603156890484964 5.472295748897356 0.5261204690185585 0.652943731993411 0.04266745696153942
Ni 3.6404302620861815 3.0352747311290376 11.685873007246656 0.6290589549560134 0.7769374959392684 -0.38597889166824495
Ni 1.0533353481242302 3.518712444220697 12.683620323808684 -0.1567277638437688 0.5922037338008769 -0.7013483485490438
Ni 3.2834406414233133 8.544035600463069 7.822319894639197 0.8762067605552523 0.272271340139744 0.7624634706928094
Ni 5.592828258580759 8.331136717897543 3.46724468270283 0.4310395314523092 -0.6111113693386572 -0.005992213027692906
Ni 3.0936817506404517 8.291933882568822 3.431251676542067 -0.20401626451708732 -0.2794719716532413 0.07604500398072064
Ni 3.960545657485277 4.336365058359611 9.59865122753281 0.778446219274311 0.623105822696372 -0.5082379323111827
Ni 7.4525749699029165 6.717976114747166 11.693998486602698 -1.0667702420015435 -0.6198032406857003 -2.052192065531582
Ni 8.0801490801128 8.973011233447462 2.4571867809307717 -0.723575021157728 -0.04788628215831753 -0.2667365263644439
Ni 4.8047535581687795 0.49455111877417834 1.1251980810893758 -0.7893932052041178 0.2668951634294952 1.216687410681382
Ni 6.161438309224476 5.83998053861147 0.3933615966969461 -0.546306199937814 0.2759834988840086 0.11850754402030558
Ni 8.542510589165632 9.179380876026956 11.134059084024349 -0.8228874803068216 -0.1826858784704273 0.5117323186176864
Ni 0.056644581305394105 4.623788594807665 6.093048401387565 0.49003812147370435 1.8160611798681365 0.0015953695115778976
Ni 7.489175241041401 6.447364229787623 2.4076686596045374 -1.6463053791958162 -0.5264827374539837 -0.4266478301425169
P 8.846426163956027 1.7426861135865703 3.3336043813048093 -0.35256792030796696 0.5744543802372558 1.0686893134011273
P 2.088918468929794 3.6004329597941247 1.48361682910583 -1.0111410826730134 0.44558811869044557 -0.3925202923311885
P 4.853992246287221 1.193645519292597 8.11763970215847 0.409310881525966 0.0087602626911333 0.3559116399692193
P 8.645307308777888 1.9037072166267144 12.355622355044634 0.8558292253401647 -0.24752164399888982 0.6658390998988404
P 6.36179009285181 7.967115608018947 1.3555907609153797 -0.12458511767295319 0.38860038845149203 -1.0334654572018267
P 1.8937078910537004 3.264464752345027 5.588707988536427 -0.3659194019142085 0.21664578035563978 1.3331234168846395
P 7.023800236610401 4.490509912855025 5.760933815300853 -1.139339885839154 -1.4350517163900252 1.476338490953954
P 2.2358309345176033 8.436855614846204 9.848007925091672 0.9622186459406977 1.7916845507959853 0.1564940505664079
