# total energy = -340875.46271029883 ev
CRYSTAL
PRIMVEC
9.21457847136721 0.00000000000000 0.00000000000000

0.00000000000000 9.21457847136721 0.00000000000000

0.00000000000000 0.00000000000000 13.48646701671163

PRIMCOORD
 96 1
Ni 6.97216482810843 2.5541429704540906 0.9083685515301297 0.9682926200489195 0.47707487644481716 -1.1026229900340947
Ni 7.740144667311582 5.12698232089646 10.464176823494562 -0.05196816553717502 -0.7433815143606939 -0.18213797638675727
Ni 4.526044362633445 8.479218373432806 0.8442378488172508 -0.5840412525947425 0.06551016588766782 -2.5756157044442674
Ni 4.670685602986342 8.649328709048199 9.327348460252546 0.5784357334825071 1.9242771121544469 -0.33271051926240763
Ni 8.2926600150086 6.682790201616592 6.3270144002437565 -0.8192691668279438 -1.9493813634212427 0.3609582012541912
Ni 8.19526191916034 8.63515668715467 7.540256499478286 -0.7836784142075277 1.2711009524352561 -0.4401651479026613
Ni 2.8778050439328133 9.304697183127265 3.20210568770882 -0.17789359928810652 -0.058637607137550625 0.3997018976812922
Ni 1.5021606040854514 3.1302476393783114 8.466439595824257 0.008362513032082373 -0.7881302793312943 -0.5817635123041593
Ni 8.4048843678313 4.564671876142992 13.033456582222062 0.06361063487210981 0.34389353246242066 0.23387422841878433
Ni 5.557450574978511 1.2893867695317944 12.857835928601249 0.27407059813201184 -1.4927449573364355 0.2768419902295619
Ni 2.220031564838004 5.734250694660683 9.01048398141027 -0.07982246874528189 0.1532215504627232 -0.0600375728088708
Ni 0.27375499429955996 3.6870754098621767 4.018104538935099 0.11607605176067752 1.298087508326429 0.7687996973234824
Ni 4.2800427576324065 3.3127423686379873 0.056757196913656834 1.5370628054172044 1.284007633194595 0.20012258588963602
Ni 7.719292075929878 8.000880383501018 2.914736153521294 -0.44182222389011 -1.4236118499841999 -0.061076812706662556
Ni 5.953308871822524 3.05091011759463 9.662042227236427 -0.6524027718882764 0.2283188458181939 0.6628193392359102
Ni 2.0345052392174883 5.6606262116117145 4.3289399189965305 0.17495842791918254 0.05446264982425458 -1.4023711954378686
Ni 0.7499054432706677 4.267197635057906 1.7004813720981438 0.6876651946349963 -0.9609847735335965 0.40232570845738447
Ni 8.151225448010026 1.6511787692754274 5.295555664800645 -1.526062854762275 -0.974875672583076 -0.74935624388689
Ni 4.315325379108564 6.053250191365591 0.3603729546385591 0.8683438128674078 0.10667481305143563 -1.0144210389758659
Ni 2.7592871339233236 7.137658659843032 1.8282525619421486 -0.06257833695285352 0.10632719990402978 0.5733138388749094
Ni 7.0444992701527855 1.0413763863950019 2.758252336746052 0.44539014374702646 0.5053261579810265 1.772821138232579
Ni 7.018818239582389 2.585021023357356 7.736821890266844 -1.3927326439068402 -0.0668967618225493 -1.3601274562773094
Ni 0.2610093891739864 0.25913053659655405 3.6168004261358995 0.8137680345040565 0.4890683013612674 -0.09262501982658886
Ni 2.3420602292957615 7.384683083069156 12.604479246958197 0.10173418121670866 -0.9867796231095135 -0.18944633712271247
P 1.041873973639638 6.257694046860893 11.022017276167048 0.9306838085572101 -0.14033903807310025 0.5072282600997458
P 2.4576110449946422 3.521037917989917 3.5773795374085164 0.3437986587557692 0.44715520606724923 1.172721032402761
P 1.24962586285391 8.87853213725346 1.593426397872498 1.131289761841168 -0.18897865345767453 0.6702269445538909
P 4.530209352162623 3.933980043566444 7.06307862499279 -0.6036235456020443 -0.8117630882588859 -0.4322060409565847
P 3.8702428033599725 7.117782813793392 4.2704494598473905 0.21334114146243902 -0.4182313239440475 -1.6792525235457982
P 6.888717604267196 -0.17658081271138706 1.0507660419928613 -1.4019114821926308 1.694832380261926 -0.9847921603658395
P 8.520637904259479 8.802686940760838 10.751856888981056 -0.25965905069237216 0.7610403650930376 -0.6930958787322644
P 7.34079404517651 5.890096862596502 8.415757570584464 -1.2133719731549037 1.2852121950256574 -0.4806381683160433
Ni 8.311872411398724 2.186472069560865 9.7291916259001 -0.2637334778720619 0.7237300586783536 1.7446891558830533
Ni 6.351959185983664 5.8431393700286 12.379133962814592 -1.7194987726603548 0.4072779102563373 -1.2417903763965967
Ni 0.9059101019584821 2.396923830306219 5.958011071284338 1.843255995115374 -1.3859757847989809 -0.02620468341982584
Ni 1.7243701671299898 7.987500815367464 7.344824501858065 -1.1234553533984135 -0.5319987821762063 1.3738905714996725
Ni 2.295222526249716 8.135680453904442 10.151155745388172 -1.9264674349375468 -0.917463196101878 -2.132840372612269
Ni 5.861531668922935 2.946085071391243 5.504312864540655 1.2781750856732181 0.0731586835718611 0.0735194093453895
Ni 5.975350143844193 7.371312729514205 7.346051883728167 -0.38131568186462067 1.5137097325135607 1.435086683393019
Ni 2.023189736691314 3.1565644758724103 12.99883741040542 -1.351579309596982 -0.2745115423241724 -0.7230880542189805
Ni 8.33336080870413 7.0199608473293305 12.026773084272536 1.0928160312460018 -0.20365091075786862 -0.4649333559862767
Ni 4.0012003944853705 2.3399132324809417 11.29619706254027 -0.3976110765905346 1.4085613834089805 -0.8804735062514062
Ni 0.8854850670240212 7.610320469354522 5.2910783010567775 -0.43478999963367704 -0.5113551377839258 -1.9539589554895962
Ni 0.5047036636924891 6.240315351613038 0.4222036985317857 0.8339730486970219 0.4488133104959625 0.03716041110038116
Ni 0.6218237221276952 6.837420045176633 2.787275494976257 -0.046685834092313146 0.9660421334518459 0.40911470635475994
Ni 9.110343291203758 4.833654640183345 8.400396868050969 0.6491932638120432 -0.2992311565580395 -0.9714879870577655
Ni 3.8787110010973938 4.533591102510429 2.139641738177703 -0.4668912510435959 -0.024784663143847637 0.9069610110189735
Ni 2.7103577215340846 2.4389423087421758 1.7534025399387987 -0.8654148121460709 -0.862435932023405 0.13688116143148685
Ni 4.5827969522578 4.746023997655724 4.59862944121584 -0.885271956081314 0.5435427782600639 -0.9472545684316976
Ni 6.08712298231528 3.389048294060829 2.9467522068822 0.48113387700553917 1.275889632073151 0.34020374231565925
Ni 4.954761846780665 1.4724067297719197 1.5526297725594818 -0.6771630095520919 0.033902823395031936 2.3022344190697965
Ni 6.07678422512117 0.5888687032070032 6.0446207385025925 0.0764178139391071 -1.045930936658689 -0.0844972485131319
Ni 3.8182725800312887 1.8062416980298746 5.418323338462473 -1.1540810487040705 -0.8015282979047551 -0.43822987855316137
Ni 3.3159951148853324 6.32142207248876 6.226472290175684 0.14058483553531917 -2.042233668767289 1.257986526540485
Ni 4.1963743839046685 6.828638551766662 10.652084196226447 0.5695001215557741 -1.2921176638962393 0.3463335093624809
Ni 5.74241481130416 5.99119921904372 2.746964477955691 -0.6872777293885906 -0.9008129891397066 1.534778123148086
P 3.404823652631521 1.2559839220909297 13.471497377001189 -0.6822108563886444 0.18348960531864528 -0.6404602548144195
P 5.02412919451441 8.013273991723905 12.214140482698207 0.6238524710544094 -0.23540866278543973 0.07637899028137168
P -0.20810388611695896 2.0980213295374552 7.69849385056194 0.6027360007907684 -0.6867046304939399 -0.3873392623508813
P 6.616518952293917 4.688488168849998 0.7680894926885441 -1.6863431118439924 0.05804908162393229 0.23332786899701105
P 8.66200796920782 2.43821435703243 2.620555202829413 -0.44055235603875087 -0.29833307022380234 0.1597845483922216
P 2.6858008695534212 1.4009292435377714 9.615392501593911 0.9028043085381227 0.19086378629552936 0.7392476946979785
P 7.93811988862661 8.53430312432977 5.043264188444258 0.047832031881614404 0.5297619224258876 0.635494426168712
P 6.376027665298294 0.5314784647432257 8.326841494341533 -0.38506460738409165 -0.37314574445931864 0.5578440253740844
Ni 0.2281216366771064 1.9936754414214963 0.7515778892873619 0.18048270017152143 0.10854734748380017 -0.25059642626947165
Ni 3.7931628533343633 8.489170118325532 6.00677830709014 0.8249515619247018 1.8713812925966804 0.13174101199144408
Ni 2.5677713322099636 3.945581198029354 5.813436175897392 0.7092945999793139 -0.08600365785532929 1.2431432908800655
Ni 8.76275095708947 8.29516638038899 0.4539562149446066 -0.2993805376517102 0.7159141621783606 0.007256167341781052
Ni 4.504150523869447 1.702550044994826 7.751023398811909 2.039544294860584 1.1419356715907882 0.8058698627029024
Ni 2.446120465474985 1.0527656055500112 7.523965124505748 -1.3872425673265463 -0.14382468262885553 -1.0813206290118924
Ni 9.378874540892497 7.1784239555887925 9.239375956858703 -1.2052758264103305 0.12128279277259757 0.09158603703911324
Ni 3.3574699331836304 0.14634685885256746 11.549041413612919 1.4500936983248123 0.5441259044570435 1.1450122536335827
Ni 6.875927769164322 7.416390448046815 10.087432327049607 -0.5721984943235435 0.5730328172993808 -0.4527373281407171
Ni 5.147632191548869 5.431865083179464 8.64040162529628 0.14379511494250072 0.7820799593721562 0.019736302086662785
Ni 8.149843261219369 1.109131182872982 12.286225209662383 -0.941842653387507 -1.0433243522737774 0.4010013332190061
Ni 8.05421436446315 5.485853299222507 2.2444852135382987 -0.6028941236351875 -0.5652310618667749 0.7811109105906676
Ni 6.35837253269231 3.4669667707394365 12.038641461514974 0.15986682369338273 -0.7308918665341154 -0.09232137254324099
Ni 6.101304218787415 5.264500691988175 6.360514922217827 1.2232177556007322 -0.23509421686881443 -0.013334769435693164
Ni 6.55624639364269 6.989018292375834 0.9273174109721695 0.8247769840200505 0.26635805997910256 -0.8862510321651319
Ni 0.8306408166286329 4.014165306581728 10.489086593835772 0.46481354257896074 0.8461469650553944 1.1008628128098783
Ni 5.972751632677759 7.399629129565455 4.973903290915536 0.6100302204593365 -0.37186224976120474 -0.08489602661344733
Ni 0.5806502205497598 0.44838323780467965 8.975850987725721 0.6582052375026665 -0.18881435996566837 1.0777745635318472
Ni 1.2855535048323736 0.42550067475643155 12.87847013447003 0.9001290756988045 -0.3207579748862218 0.1420933017600456
Ni 2.982104859155751 4.863086004245723 11.584781078187852 -0.275770354431938 0.3326662962880335 0.06386260298191582
Ni 6.1690129423723725 0.9168339848939703 10.773515755990642 0.6161535597482549 -0.9075428516643724 -1.95959378517787
Ni 5.258336138901847 8.381580698540832 2.9089632200256523 -0.08404601990832622 0.6850640095667233 1.2480163027016506
Ni 3.575754085742705 3.7503150628240127 9.13249605962654 0.7794854591721027 -0.9434421366641429 0.41100189607514376
Ni 8.27630413798583 3.897186231199169 6.146686939871829 0.10230085235345608 1.1040602367012533 0.20144439002485307
P 5.002097137071347 4.750235060077925 10.726353699777723 0.2255240566818761 -0.8586273569105922 0.7552206730874671
P 1.0660069550045002 5.482941492383524 6.496930308250597 -0.1101098068749136 0.42819666268687545 -0.19055422547491055
P 7.326161294352762 4.903980304091945 4.434876243379605 -1.221116392987013 -0.08396734415159086 -0.44157385532472987
P 5.194773975688858 1.5856354716624979 3.7542819389131967 -0.9100789878226649 -0.4658522682561203 0.9028896691630773
P 3.535302085669492 7.3635724834865295 8.157397372759236 1.106482730099817 -0.7057338792112491 0.5212191750621992
P 9.112840442005545 2.895828759682974 12.035983977045472 0.8222130799476163 -0.7129753912650107 -0.65224182083038
P 2.382014642124338 5.139532576955621 0.5769118660099644 0.6479372799177552 -0.1965767775199066 -0.9641891394035071
P 1.8654269364057847 0.23813327633076142 5.524043120248344 0.3477440165567624 1.8797054961916595 -0.9768844754829886
