# total energy = -340893.3171500206 ev
CRYSTAL
PRIMVEC
9.03344456498987 0.00000000000000 0.00000000000000

0.00000000000000 9.03344456498987 0.00000000000000

0.00000000000000 0.00000000000000 13.22135923543635

PRIMCOORD
 96 1
Ni 6.3407101407804625 1.6925693808333104 11.306218386849112 0.4501788233849215 0.47093765319882763 0.44134631269495606
Ni 4.836388708236794 0.3039492077785121 6.030790729584099 -1.6383521857870107 -0.5216503490623468 -1.6989055218900355
Ni 2.628307754629119 1.5087658871988103 4.625690843872033 -0.25472793193934196 -0.0625899069170793 1.5686035563379632
Ni 3.4438561504032528 4.1305243946226895 4.730457118889259 -0.2674857458256425 0.911182505299489 0.010596287458607558
Ni 5.2818188191928845 4.2901453575421185 2.8598195782843536 -1.2508810258439553 0.3849242251514855 -0.5102115110977858
Ni 7.0925908202752455 6.0985867299638565 2.829397647507683 0.16254385630491358 -0.9554967538358319 -2.5375638918778685
Ni 5.084889730814642 4.653750528932607 11.597696924604405 -0.05673319102598617 -0.4653169645779406 -0.10769656944773065
Ni 5.900582661699512 7.94922332127618 12.139997176809306 -1.9038574108475144 0.8699926613247403 0.9587391720325295
Ni 1.9024704954001381 6.689527563653741 0.5054952896003381 -0.6937232279036182 -1.546507495769872 -1.0020812864635902
Ni 2.713619603741235 1.5721535667011097 0.40765405307626723 -0.019482791314959995 -0.29417173975726113 0.18427970532010846
Ni 0.5255432128039085 0.09829290874512188 4.809745467261437 -0.5578535384557811 -0.17056595527844173 0.009424378637693447
Ni 8.590092002281043 2.421721914164806 1.2280263081712257 0.055357907945014335 -0.03608054777264109 0.5299077039751325
Ni 6.911045687746001 0.549399636175381 4.758103072195349 0.38944859538440024 0.3395727935998797 -0.13719689289969272
Ni 0.6072299406698687 7.733351099947057 2.5552922300628964 1.4348771384853738 -1.712675064870302 0.3654596886689706
Ni 7.620351743684514 3.9599187632873 3.5853551204696728 0.8591410633222171 -1.0766851871224103 0.6204534726751895
Ni 7.532655065245249 3.9648961911632825 12.53794660054407 -0.8227265292489251 -0.3853350874366589 -0.07956227310535975
Ni 8.017019321655937 -0.27193016402820563 7.117572810821578 0.0474471377383699 -0.21342933030087113 -1.371915707161489
Ni 7.106963030349089 0.5051303384457289 0.403287286043146 -1.9494518116478619 0.2974280419110297 -0.7025266851278611
Ni 1.8209346260560089 6.363637022721012 9.292922885258571 0.17623498063876097 0.6301581015574631 -0.8550033870047598
Ni 8.920652833979439 4.801664147882392 1.3224664528707823 0.8951578477364583 0.08252804060190302 0.466693533210493
Ni 6.48171317474817 1.736056382276102 6.8694611296982755 -0.2860339411414751 1.1705435651354679 0.8890653616854753
Ni 3.63728929579056 4.486460171699731 0.5635776271941724 -0.18528089289111316 -0.06205306057700281 0.049845976987849636
Ni 6.111025782931601 5.481837345563116 4.903153992608114 -0.13674823539804837 0.20723939944007533 0.6232456907083459
Ni 5.356335702221882 2.720981860944366 9.200413187631785 0.013717349586092505 -0.09753608397496105 -0.3530566870189274
P 0.13885759091771352 5.602731932249631 12.390939036069712 1.0797864517555533 0.04074787134132337 0.4430910633002046
P 4.007741818052182 6.186518277958068 12.572692841165082 -0.09329453508978772 1.1308629587163943 0.08374442950750739
P 2.4574672537387827 8.47716491357387 1.3840908040220987 0.2771170982678195 1.523807740179511 0.8877319875860324
P 6.407846699717486 7.657415966143962 5.785072007887925 -0.07111311389674205 -0.030206091269735075 0.8924224510831662
P 4.78039038627089 0.9951242374195961 12.630430101182036 -0.022471955850270977 -0.20351078563557853 0.17604369056356134
P 3.8713548741836172 6.094304877308292 8.341051683071262 -0.042539930244739635 -0.1423738091149419 -3.0656792798392685
P 4.679830082976092 1.1055580954665691 3.8905175198339275 0.5076033840509774 -0.2666383102236828 -0.15569957968957057
P 0.20099142833437536 5.670401464407495 3.4437143253258427 0.12484659886445594 -0.49861043652374776 0.49033894054357485
Ni 1.1943116869030936 1.0222968382380253 2.488021976148442 1.7067288745891964 0.7117268635698903 -0.11088910824309935
Ni 1.7531024918985674 6.708443596271358 4.7303378774229 -0.3560749050199609 -1.4863082005721564 0.3203831080453063
Ni 5.865948435789321 5.392568847794594 9.242787268721907 0.15197070877475763 1.0099007825080089 -0.21730912497125154
Ni 8.575728825651622 2.3701409465207797 10.369274048223096 0.23229017176111608 0.2775703837551542 -0.4518322998279444
Ni 2.3063648289083765 5.287862193510548 6.815901837726047 0.3491432108971342 0.04234632617669481 0.2215679002476055
Ni 0.59319919479514 9.311222836966673 9.269229967231118 0.6353201053743768 -0.23929077144866528 -0.17942931920634259
Ni 1.6531925966020828 1.0911407181706207 11.508347125836094 -0.1115604232785111 0.305992386541273 -1.1581976419756053
Ni 4.206613096980943 6.909202865084113 1.4874821887984444 -0.3036783936961157 0.600647750803172 0.8722030387124979
Ni 5.437103728790224 7.849701864089798 7.796820080449146 0.3568094691931403 -0.5346830138765888 1.841458794005635
Ni 5.508883478159651 2.9093472440114816 4.841965956822333 -0.2868752060958479 -0.3653776704781256 0.309427380364751
Ni 0.9555216170778431 7.435464236719492 7.151552112011245 0.10399649488832413 0.4135107785399265 -0.6663805742246072
Ni 4.899288581740359 4.503117843212093 7.052233003979896 -0.023729482406455907 0.1449595675642471 0.06963087292426072
Ni 8.305384934463747 7.2580202879573905 9.102297334397315 0.34664589839657717 -0.12175818974711934 0.5653984406825746
Ni 4.556758436184111 0.20890924236939964 10.25583476321725 0.15553760019040952 0.08982894513869046 -0.24235424086533744
Ni 8.060208219432836 7.232636309134324 4.477532418578437 1.2370466910640243 0.7581964678863393 1.6184238222941996
Ni 7.257505381625392 6.132760250208576 7.19223422896131 -0.3279889454170222 -0.6914480587161963 -0.512191260531976
Ni 2.243239119294287 5.2751611706545924 2.5111719841661913 0.23852509692723436 0.5945701771505244 0.7699173558676933
Ni 2.283537314856458 5.3729120727344535 11.350444324045542 -0.33076136595583683 -1.0987298256272755 1.3554007402256012
Ni 0.9826761510074302 3.415084629922303 3.7380085877071685 0.541289463449513 0.4227988887100718 -0.7497115703437799
Ni 3.3206580353893775 2.6032128460275246 2.7519728987195604 0.15768112889597358 0.727025955820806 -0.8152803573835249
Ni 1.2607978378418032 3.4504144310529137 8.011891938602565 -1.2054912848552464 0.25147522932999916 0.8487286097396415
Ni 3.5906044550227274 2.4749198683601947 6.837994029402093 0.1369598371882222 0.8983737835705947 -1.0385958364498564
Ni 4.252439760528779 6.768064329450091 5.941520425126692 -0.8947768102479556 0.3010826079444815 -0.40699174647448616
Ni 0.702446058245191 7.5646424919400825 11.566269571463677 1.1369947826457452 -0.49984405182053276 -0.5274276178657562
P 0.20908720122449373 5.556281961036745 8.00364259715729 0.1429880456601731 -0.4738784809947065 -0.35231543797752873
P 8.480254351565858 1.732063599842011 7.973986702467522 0.7321895022996164 -0.5855602603424302 0.6179358484596584
P 1.7509163983486804 3.258363402662022 10.355299309703778 0.3799573680645134 -0.141004439571241 0.4269494205433357
P 4.178772021275359 6.106472926943407 3.685096993699926 -1.188730777567456 -0.7974798388669944 0.35824902985314433
P 6.722608037123518 3.8347603908340644 10.48719482500621 1.094770326758895 -0.5848722331364701 0.12516772964930056
P 6.436952457642014 7.4176322174323985 10.080267964205836 -1.6087076234477002 1.775592273219813 -1.5049821228325757
P 2.4421465320007325 8.533434238872404 5.7323320493246825 -0.06794140103697976 0.26876281276585323 1.7572955317931545
P 6.846086188914444 3.913902397406623 1.4312119601554667 -0.41222342718707067 -0.47453771184526017 0.10897029395383168
Ni 4.912766480816522 2.5676301084531254 0.9556679588774637 1.2234270433980607 0.6909536355782809 -1.3275127555660815
Ni 1.3846373274095705 1.2428845175549197 6.931509149392937 0.09190871048585461 -0.8306758660029888 -0.0511271576931184
Ni 6.853773650116732 0.5662849504871521 8.98854097549229 -0.5310454171240016 -0.1706646856398351 1.1664503689027008
Ni 2.907748324348961 1.8649907344973247 9.00871717360664 -0.8686657149832007 -1.0969187405604657 1.1005306262814403
Ni 6.423004819455958 1.9649909642380194 2.688285308862483 0.3631199847922004 0.462958491648093 0.036246898147176285
Ni 4.006657804721659 6.820810611424429 10.274503279457731 1.495782972831811 0.16419296187256238 1.6094416734002475
Ni 8.291970269498533 7.00480380739177 0.7067586246117862 0.2597415831038494 0.6348043420802228 -1.1417443815155885
Ni 7.508201531197548 3.663106879945836 8.391173749441291 0.6803799738274928 0.5127566461171427 -0.48181316246075084
Ni 3.3062948587599554 8.307525860791529 12.446006009915811 0.013221898006912713 0.2610749572032923 -0.05387155320747497
Ni 0.09027843685479267 4.956262515703734 10.17310828589843 -0.640239139942549 -1.1342426738219045 0.15453949794319835
Ni 8.481238997007749 2.3836007787081 5.7490041743481175 0.6201187150435901 0.09618419793275694 -0.41755692358484214
Ni 3.9658718031607525 2.512047324930588 11.268669971768698 -1.0413926824687032 0.19489347628021272 0.3115297714197344
Ni 0.7633621873538993 3.3771531967984387 12.439011413900614 1.92598638153607 0.07470031702736811 -0.1422686509956453
Ni 2.991723223686766 8.365141169308796 8.19282641028895 0.4933677000675697 0.3313064398260294 -0.7846243230605648
Ni 5.651223461901667 7.739484808708931 3.6498484935691047 -1.0881309670655066 1.2249470795870132 -0.02102391054983476
Ni 2.9940719192362306 8.329088692624504 3.6493064869038436 1.4948704883198707 -0.008861307045371835 -1.577268688212129
Ni 3.5203152239827684 4.201608568771698 9.309648307604089 -0.6530110948962367 0.4499859906478251 0.33346462381961284
Ni 7.288544296656018 6.244639459362912 11.542550456447403 1.0191251293197545 -1.6066093461577748 0.08697167819555345
Ni 0.5125034357821656 9.100833916401111 0.32109829866737705 0.9522443083368052 -1.0715486372267933 0.6886098179364527
Ni 4.708990041567145 0.412911517729301 1.8292011310456846 -0.48622260438235615 -1.3409938207716516 -0.5048775004793821
Ni 6.054187350634542 5.757565169625918 0.49310411388802455 0.0640898885013735 -0.43084824137710964 -0.5900013268329194
Ni 7.923523171898377 8.894997851823742 11.087180846594864 0.07514511787427058 0.12497926778757831 0.10066357386034921
Ni -0.03325572229154413 4.813561194184876 5.852989959767367 -0.03640296410906634 0.37806992123381344 -0.3841251262889578
Ni 7.894932320305848 9.152053546268297 2.4842270261471717 -0.31674165463797704 -1.1383348416134074 0.6059354815646726
P 8.592034192831562 1.771530718517449 3.5841654158394243 -1.470201524818281 0.5339075691631451 1.0579130487212298
P 1.8670684267141595 3.464145266572864 1.3398657701701095 -0.7993647145945331 -0.7717999176023869 -0.24837756424128193
P 4.673208568215484 1.0384667037516515 8.043346392076558 0.6084785597015006 -1.2164110170915439 0.8874563653271427
P 8.563000702462404 1.5008525898859963 12.427734061885413 -0.21407082053961196 1.1521298385149705 -1.4431064683737018
P 6.453872099042584 7.700035756922335 1.4991967595236235 -1.4458590914181744 0.6113227140185149 -0.18712154564427771
P 1.668865622672553 3.2480020419111115 5.790598669184705 0.49285450787657703 0.06142211186122325 0.6918046707246667
P 6.82595064129999 3.880415418937901 6.2549457161028545 0.6440664841084391 0.81499445071199 -0.41749110334391326
P 2.488099663770463 8.340091427929307 10.290567453671631 -1.8655855118505098 1.224243368651769 0.5752002572643449
