# total energy = -340857.1958053185 ev
CRYSTAL
PRIMVEC
9.37261806731997 0.00000000000000 0.00000000000000

0.00000000000000 9.37261806731997 0.00000000000000

0.00000000000000 0.00000000000000 13.71777394027639

PRIMCOORD
 96 1
Ni 0.691649526649034 4.668679059131485 3.146706500331145 -0.9327882564947226 -1.6306301345524048 3.2267246972217847
Ni 5.49340382660704 4.755750679485921 1.6292327981260841 3.7390195732111606 -0.20696917649782418 0.8008880932175949
Ni 3.9135459796141294 -0.0032616710315763035 4.276488423652782 -2.0436912271494223 0.9781905958889218 -0.41621480773465097
Ni 1.8970272369599865 0.8497702770461835 10.964520505093434 -1.904023504111734 -0.053458634039772454 0.36332464460383884
Ni 3.541931052226288 2.368273092697415 9.92168179726091 -1.4946822835684646 -0.5721750972847759 0.24789316840569564
Ni 1.5386745639103074 7.546307071975491 11.094235662400358 0.6018237733891442 -0.18230047010655057 1.1205998862274895
Ni 1.680041759799001 5.964837134702605 1.8947815577095104 1.1306449291683174 3.5009223078499643 -1.2588817846612448
Ni 6.309121508274135 2.1101418229254523 3.031203043556345 2.255729847750354 1.8470044064142128 -0.6388885394519255
Ni 8.249037844775769 3.6779933463797168 9.513372133506044 0.4261225537666661 1.6275142146312422 -0.06488333093694632
Ni 6.286289811053101 0.8399205928878974 12.10050335242223 0.6991276867486411 1.3126669488025007 0.6492781102163657
Ni 2.6314749487569715 3.6378691691205836 11.632973739684859 0.7907000969409995 0.7392582362209398 0.7860070623407044
Ni 7.8969554531057575 7.643744807734881 8.82365617793119 0.8936493815117319 1.5954795547932008 0.0757639824051921
Ni 5.788144541923075 6.267394613352934 5.543325201364181 0.035786413570989974 0.5089634976232976 5.150471905014691
Ni 1.4167461775603758 5.348165739522828 5.932840891692275 -0.7534255288602573 -1.7300161272519108 -1.2584878916569358
Ni 3.9656671077940024 5.449455621241922 9.108862129050607 0.6367300983480261 -0.47064917542413137 0.9346654189127775
Ni 8.313474592885214 4.883536952027621 4.990429784731417 0.9565817593698944 0.9578909650996215 0.6825903512152502
Ni 4.532138761464807 1.7212906512069532 7.685616040971846 0.44465609379447935 0.6813508223811943 -1.316656786688184
Ni 1.3301806785729082 2.6075841457124658 1.6297126761629137 1.2931805579431148 -0.07220608985060468 -0.06700346260374268
Ni 2.0577207709725607 7.956443458960398 3.442200774126889 -0.2102982408710572 2.1394087698584054 -1.0671070565156717
Ni 8.593069157663814 2.231835893827713 7.804987577156795 0.5459495879293437 -0.20911476208591726 -0.5239260324704009
Ni 9.171397172986758 2.403935903832897 3.3147219234525336 -2.7958381464075717 0.6500283581188289 -0.311334881800109
Ni 5.561355306431547 9.252667142856867 8.788003676675405 0.5687305903796012 -2.539329982639356 0.7210689669064226
Ni 8.091240449696405 3.9617306082731347 12.852333521389218 2.1198753278111684 3.1558748642887586 1.8946019536875176
Ni 5.196160622309883 3.8329883287049387 6.571938149737721 0.34462989640781294 0.7609663173219927 0.7073531599822269
P 0.42121200956540567 2.095229987835688 9.954275076031905 0.2318867656751103 0.9225904900261144 -0.5498486658734336
P 4.271233196792424 7.4642123117295816 10.065238436692638 -2.0931127150053435 0.3944401350617207 -1.763291344365273
P 3.902664370224301 7.33495453817651 3.0825068794547428 2.7299790818209173 -0.46977062947391995 -1.079100224321806
P 3.896309735283472 0.516679621040779 11.063178555704292 2.2603172100107205 -0.18743444889900623 0.5816066750113209
P 3.349436225655845 3.813624500109431 7.9167879125966065 0.13850532729847115 -0.9555057526968963 0.1692842603525407
P 4.965594221801903 4.234258219149985 11.735157769152265 -0.6062920935731428 -0.8991803386322901 -0.6317048772192927
P 2.5192472219406077 7.466152443636294 13.284155334425153 1.3631996674447298 3.0456264749534516 0.11596318033189708
P 5.381307316441372 1.6763395757258037 1.1699754579532802 -1.3516847248265949 -1.2718427156972871 -0.489795409335279
Ni 9.219394349287626 9.15191150035846 7.387583662246934 1.4692712996945276 -0.1941871942418075 -0.06103593216639811
Ni 6.279335328566234 6.766327182387134 10.113222491328438 0.32106059372830514 -1.5305964809665704 -0.14362516502353975
Ni 5.968951713963704 4.37027365021388 4.3413328806411755 0.38436115355916384 -1.0803343538392232 -1.5083602952761892
Ni 2.4986555803993054 7.136180057608492 8.487420071356254 -0.5822322244104617 0.7018252881854623 -0.4457760663315355
Ni 5.630159694485575 9.14360736089301 2.4274564884700833 -0.04945594063828257 -0.635222660564564 0.8144943711471198
Ni 7.0780042182608085 2.9213231575256415 11.337177667592515 -2.124290940380361 -1.1748463062758798 -2.112836675796832
Ni 1.5732970144581317 7.798992850743587 5.7665134770559066 -0.06556595882626771 2.461424785521445 1.176708299185283
Ni 4.13296833743089 8.634299303835952 6.965624655034353 -0.6076087555020374 -1.2215038582334188 -1.1097829981176435
Ni 1.5804670671568555 4.082956048280054 9.415989696192307 -0.02993175456242587 -0.37805937971085213 -0.41082706106017636
Ni 5.440532888994621 8.223834875224307 11.678982983727689 -1.5662229719209284 -0.3255818786374264 1.303635948948484
Ni 0.7501721528592709 2.413655308602278 12.592490811587469 1.3107252516950976 1.5648415181923694 -0.8637610785927318
Ni 4.327703219681065 2.4949346510902943 3.6910137871758826 -2.07228729361956 0.5655200538621035 0.9172492803188591
Ni 5.782511598561071 8.756190199714258 5.1231769839312005 1.836020396598883 -1.5761245473053564 0.708808918592147
Ni 7.608363175136603 0.9297196450532209 1.2783547878571004 0.41842621356367293 1.464371034179433 0.5486207070036035
Ni 3.0397836752500464 1.305137043525863 2.1161449846947757 1.65838159363406 -1.4933771916037957 -0.5055094776364262
Ni 1.7223216391767042 1.5272212248281631 4.227378717606373 2.0327064460031443 -0.3432348158324992 0.2318129750143814
Ni 3.92598344357649 5.502073498170858 4.4759039912856275 -1.6423484514305973 -0.10539183257395397 -0.49331344979086655
Ni 6.029648787528324 3.3384140269974147 13.54760462759745 -0.9704603171241994 -0.9904964098394683 0.42889651696737746
Ni 7.986098422017603 8.32770222686778 2.6717284681432183 -0.5073712134355133 -0.5490045727055836 0.18916402999560325
Ni 4.226628908173827 1.6925916951762443 12.93865908135827 -1.2759721644846282 0.9185212050527471 -0.27749119377778664
Ni 4.4047648841110085 9.022072624495166 0.4305668194982112 -0.5438099158785216 -0.46677118052596384 -0.7874394239118567
Ni 0.2818730481917497 6.207691037286438 9.508392461612146 -0.3176729082029949 -0.35722598790526866 -0.8531853599594145
Ni 6.13424720336853 6.628962094344657 3.5393367115896774 -2.015929483655122 1.6783891471042385 -2.3104465225669433
Ni 3.1492652250197097 0.21145563259595684 8.87021465738336 -0.7584805747856616 -1.4960251707496042 1.4099844890087523
P 0.6859087981811016 0.6131547889411363 2.4367981767378186 0.6627614894147812 -0.5397545148622251 -0.5359078874226254
P 2.3731281087731517 3.7304893792758627 3.998676530800062 -0.015323260620631673 0.3606782081199272 -1.6388908318992998
P 6.538806882698873 1.6920293381018345 8.830144841308087 1.3561718140636707 1.5186192540000363 0.047893224136853
P 7.654935713515633 8.299912414774035 11.46520575367621 -1.195209186202948 -1.4659563763886818 0.3404073736860331
P 2.184616644813111 3.9180916992989414 0.04513759057749517 0.6620333529995049 -0.3313450063734487 0.22136221199470263
P 8.484215573293909 8.31088775034293 5.257117317390523 -1.0961952321308799 1.5121120490091378 2.057336585846999
P 2.4857588581595094 0.6802664822011908 6.24973566395468 -0.011697748052902435 -0.5375945310964291 -0.6283436740565437
P 5.575554822560393 1.5986968089856368 5.40776621679235 -0.21092096205672062 0.7809111358750357 -0.02104242249259602
Ni 0.08941102578398076 8.600829685290668 0.9009185274873277 0.8526701108858928 -0.3130495504983705 -0.15300017848053651
Ni 8.587070682203445 6.494849304715848 0.13387003882502155 -1.4682294886935745 -0.10306961219868056 0.2879314152745041
Ni 1.2875727575684661 5.884045168345744 13.301247240440045 0.9800363908484089 -0.5804741040687745 -0.2294401039068307
Ni 7.245136740775373 3.1481686287246107 5.764620208238727 0.6958220194141758 -2.3065158200539697 0.9077541963442303
Ni 3.17459003860396 3.1625368519757786 5.769668300243344 -0.9780764389085607 -1.206809746556354 1.5248757764327094
Ni 7.504430215167782 0.6344400042075438 4.241110540101668 -3.1071645435672486 -0.8384791640974915 -2.29779515235152
Ni 3.67588450735068 6.266148055171327 11.774719589336987 0.3313311224163778 -0.8343245184991697 0.23440413278032532
Ni 7.954672034176007 0.6299167788057083 10.325985604122398 0.16480694130747744 1.47364243217903 -2.2283211167200982
Ni 7.18837616673162 8.590369843706648 -0.06914930039299899 -0.8343864820853565 -2.092416717379584 0.039021375568519895
Ni 4.110820841317055 6.4424376253808635 0.7308748698509018 -0.21937089259628673 1.2240500216940404 0.3375765891054573
Ni 0.21081454553112977 7.15864622273116 4.071558944905351 -0.3740518012133558 -2.3787445356123937 -0.08648445414648975
Ni 7.159995879709744 0.6239220523925009 6.759995041729281 -1.4611977786577737 0.12854590209291408 0.3474959051016983
Ni 1.6835564915140617 0.7747312235605335 0.12276254934363914 1.6089184539069257 -1.3753121344375476 -0.03836985802745004
Ni 9.102049173094134 1.2021038548760976 5.252137645496626 3.280475408580679 0.6120007139221461 4.408418622547118
Ni 9.304863251979995 0.07075295531685734 12.251179432415986 0.12894956528923598 -0.3302546015227473 0.3920418100328732
Ni 8.874425774608897 6.681570598655685 6.867501780905975 -0.058427548009273564 -0.12250226700199549 -0.5628684751718694
Ni 3.4666220673449213 4.537752959590998 2.0182826693442077 -2.916166288576384 -1.954522284192234 1.0469578352613067
Ni 6.960209156407788 5.242517590477056 7.720486865894201 0.3635318755186384 -0.2961427474407029 0.011367618406993326
Ni 0.46222283647852425 5.007161782218687 11.529432555144544 -0.7783785992611691 -0.9342576419513975 -1.4473089364908236
Ni 8.16185375300645 5.966796011845132 2.9796920728022065 0.529028900914605 -2.206975046944154 -1.817956854228953
Ni 1.9409192066176642 1.9695150638513979 7.885937003494491 -0.7423407318010055 0.7517687099831246 0.24152171766171307
Ni 6.210362233389883 5.68449276049146 13.044409391939226 -0.035864317996776945 0.8027583136571143 -0.4564003788146011
Ni 5.338989946592042 3.4267884412409004 9.494976496340312 2.262629660193981 1.4889654356893454 -0.396592148407717
Ni 0.18036947078437887 4.334488995045609 0.978427265791427 -1.3842955688830805 1.6290849015524718 -1.0975414617461292
P 0.6963461454821457 8.479847933349326 9.357633902580812 0.31407567777003975 -0.33410277162424395 -0.6930215738509032
P 7.652376988827069 3.6353104444320197 1.6697684333113263 -0.8312348238302523 -0.4082413026108711 0.6598188618466895
P 8.250171931542495 1.8557783455520347 13.096097505171802 -2.3908911982772567 -1.371550096291954 -0.11546592898050437
P 9.224858585527306 4.395111087666975 7.1652736008530775 -1.3007699402545985 0.02949440991469114 0.466781464938609
P 7.637296446614982 5.2766995279832605 10.970995109543473 0.9827913278857268 -0.6388119205777191 0.25824340129176815
P 3.032379307103652 6.5082802661763335 6.3431263033019 3.0538866580797146 0.6528401165360112 1.3280436883688869
P 6.248930556076483 7.315703180995884 7.5430744560594265 -0.6272260155123327 0.34922522908797915 -0.6400103117611945
P 6.821766217306025 6.546670509122703 1.5095725853096051 -0.5148037584541586 1.3820080584004844 -2.7114373142629886
