# total energy = -381169.6122463043 ev
CRYSTAL
PRIMVEC
9.22310720943701 0.00000000000000 0.00000000000000

0.00000000000000 9.22310720943701 0.00000000000000

0.00000000000000 0.00000000000000 13.49894968697152

PRIMCOORD
 96 1
Ni 0.6631847673171488 1.7954715316021994 12.881319150130237 -0.23940441420839415 2.92363200082581 -1.58796833401782
Ni 8.938048774470621 1.2258247521314685 7.515176022975774 -0.7571346022807284 -0.037587728445786873 2.4022981545626174
Ni 7.453552753504477 2.2792327353976645 11.094692578479991 1.0812000442736283 -0.37740657661820165 1.5509521618047868
Ni 7.503966258298398 4.4379194576858225 12.179427768182892 1.0302600628906515 0.27460230226576576 0.8415197506960281
Ni 4.314837090054119 7.506511835927948 12.342373328106916 0.15726820972827107 -0.08143583597898879 0.5076157253461516
Ni 6.711387750987584 6.4085009055005 8.138854532255182 0.8500398723518973 -1.3883849084611055 0.3642183600627018
Ni 0.4504777762890934 6.342850827358689 8.676355093356221 0.3879529846754803 0.3248881950045115 0.30445280996829505
Ni 8.5082427486928 0.9156221378916326 3.3672458174539805 0.4187008073812982 0.09282119499779497 0.10766031689315651
Ni 8.38744771168475 7.988852681190983 7.371600833115453 0.40230025453608775 0.06577318974106736 0.999529466576014
Ni 3.160860344205975 4.658766763264027 3.919906400111874 -0.7617245356442559 -1.0296915919816914 -0.5949270462693109
Ni 1.2089187963526067 4.07164219535852 5.3960564312338875 -1.1233319404466717 1.3725800802183652 -1.8417002205924797
Ni 2.841353459267985 7.407584786454913 10.064142222167833 -0.9915521047974922 0.9269263983973068 0.08284942849706377
Ni 6.7987951393761685 7.5298647437468675 12.755711495705162 -0.06606423861892494 -0.5544406561194903 -0.629272099408084
Ni 2.065837700561042 2.3951395255083887 3.4726585560179566 -1.4564746621504916 0.2526090858241263 -0.5897434451858424
Ni 1.6030037273505406 9.250131057989089 12.126714020415022 2.0136095772726934 -1.6554533642436717 -1.8672217619023521
Ni 3.401445099520549 1.066929058646344 4.751387051928777 1.102419615774037 -0.0702898466644983 0.06277708322722092
Ni 0.2761195433259208 1.9300274447815866 9.806230937379082 -1.6073197419612382 1.6293849492913939 1.168900115994774
Ni 2.8064808903646155 5.79991416678353 6.045707210820594 -0.023677031901965673 -0.25195551140052735 0.5791412441899639
Ni 2.8835307291952823 0.8234178113685227 7.059302728884916 -0.9469848597100787 0.9486434783594244 0.5753786918237381
Ni 3.9835707432404885 3.6034034812389013 10.207014611247821 1.5659555771921547 -1.4568829533325038 0.5825327863700162
Ni 7.410443949734481 8.388775839143646 1.3403941916759436 -0.6234043277733973 0.05244716205612258 2.0145346601901237
Ni 4.6264213257755 6.221151925830002 4.646284209771877 1.5535749441396145 -0.15917905359773876 1.3256494771050975
Ni 6.180109098107178 1.4605251649545452 4.843544340604384 -2.2199223511334414 -0.18399225598667668 -0.5697657165123349
Ni 2.934340827605403 3.083607597013532 12.382965145880155 -0.1548745126851139 -0.314658032636071 -0.47185965079246484
P 3.1202786718508233 1.1745166059242624 11.022378805275316 0.23055339157566748 0.9039613049607014 1.0797915939618759
Ni 0.9018760186920605 4.390586470747951 2.5045818396750845 0.5160620563412919 0.5979069548332412 0.6643051797528172
P 2.1979679365064735 3.0873614017063837 6.848004106349731 2.3599127476178716 -1.3354204404489323 -0.08977109531756151
Ni 8.191936282006456 4.479248201736603 9.43510416520534 0.27328461189560677 0.35048866918143506 2.3053238566283976
P 8.411621476058126 0.8743727125640919 0.43200665919235215 -1.4549602823884942 -0.8185284320071774 0.40718457921158263
P 7.021514735747122 8.677422206877015 3.823604246991629 -0.8359833942588313 -1.1260609093420606 -0.9380767585871714
P 5.5798877177597825 6.349675926800237 0.6995856051089843 1.040480455067079 2.6888671422719566 2.161973542532799
Ni 6.771955896977647 5.1770408347760775 5.593397725411106 0.6705005099302516 -0.13766997588136934 0.30262192740714333
Ni 6.0082733850051735 4.759353972060681 10.571851224206515 -0.9068417118322899 0.6373106534418443 -0.793824244392278
Ni 4.103000760360229 0.89642423993544 13.069791504276385 -1.8431261544057291 -0.7561293009446656 -0.7889471188056348
Ni 4.941224425963234 4.793590146556664 13.195885216458988 -0.7952969722830626 -1.3355225132444355 -2.1034313233225324
Ni 8.19730413048616 5.779125282808869 3.567151135475456 3.7316155674376055 -3.2037081817219533 2.0134118594395907
Ni 4.583008159462842 2.7958374244787416 0.9487377048441716 0.2222854951399204 -0.40637468171577756 1.2591759188628961
Ni 2.5065362161232794 7.932702403623219 0.5138995516943123 0.0007075675899858782 -0.24911855617236453 0.04932635703895376
Ni 6.360743655624369 1.377627876061795 2.209102994014286 -0.32414823151469335 0.5629754330633788 0.22338232774852496
Ni 0.8338786597287984 4.095281019505396 0.21593046704808386 -2.004159230493071 1.9359373221011948 -2.293193391913451
Ni 1.3644572787610776 6.267304355026633 4.010241202774441 0.3629682897056845 -1.373179404365261 0.6084266234176425
Ni 3.1211364208346937 5.044818367757111 1.432548713419345 -0.7865655059473357 -1.3447100932809744 -0.991781447199479
Ni 4.8725676148242005 4.265318226673481 8.237032665411117 0.9435308397232074 1.0282103794504744 -0.40987292467702313
Ni 0.8120309630299614 1.6431334674453733 5.763281828997124 2.0280735752168235 -0.12136635362533936 -2.599952995638051
Ni 4.831257316988127 8.547201154153745 3.6592281831170883 1.77429875121937 1.3039010296844125 1.2590823307078252
Ni 5.7725215379438035 0.2095111843300872 10.708339378376449 -0.9980713939732488 0.36770580439066997 1.587246368250131
Ni 4.7777540712308015 8.937661403961776 6.275770245266359 -1.0908427095697149 0.9199823629793059 -2.285100073382355
Ni 6.931229737864264 3.7124667256933703 0.9069542616008666 -0.9900418388005531 -0.7161494181176182 -0.08873416941261493
Ni 6.945802247482704 3.539192207844227 3.7030591561928583 0.512981360533439 0.17283032583258623 -2.0403171684708665
Ni 3.1585822366896745 0.2015175171868577 2.172493713996263 -0.5429344552521037 1.4409333719817827 1.8325787179071857
Ni 2.2182772188987565 2.70779364168277 1.0660362618545307 1.5017044805225686 -1.0724495517745078 1.3126309533582428
Ni 4.74887652210717 2.311458272490596 7.12160020750375 0.039864697405421666 -0.7911456691188504 -0.4727942467915922
Ni 0.5467153676578643 4.00577998574758 7.804026221381652 -0.7578169730597336 0.3684177428560301 -0.25540258940886335
Ni 5.0788331876766115 4.756513254995821 2.4794470275154805 0.9644997286653907 -1.8773799333822763 -0.08567892752605888
Ni 5.273357744868088 2.632606870537499 12.129171056213979 1.0897178519366524 0.47194629696900015 -1.0689646785497011
Ni 2.9102224018761476 5.416998418790617 8.443174648624991 -0.5144083227879528 0.07832582959509736 0.10773873553957573
P 0.1885175473721791 3.6559383007241153 11.236323537310206 -0.5859474684785199 -0.16081298965673593 1.0471915485386674
Ni 6.492670983208026 0.7303806382513968 13.08678600188584 -0.14985854752776126 0.4555249181881832 -0.45007546503783774
P 1.6066191854330902 8.678778003657971 6.0311688266993615 -1.9821809264497672 0.35108593644580177 0.1585239365122431
Ni 5.000602791104703 8.919021504000467 1.2957977006898385 1.7271205508716707 -2.339397144163023 -1.5953767106667494
P 1.3928736725170372 6.157189676333871 1.1481920129160639 -0.7494554884689157 0.3389804114315194 -1.3253972518849755
P 8.994235944467798 3.1999017576331013 3.8473897185454247 0.6213996386385426 -0.8523152986496353 0.9013305522060735
P 4.7843117005591 6.223752842103673 7.202513606004774 -0.8249662172127212 0.5901833609367384 -0.9604862366306234
Ni 8.88635325775457 7.550054125743555 5.103372187101184 1.0353631884451717 -1.4141175373405195 -0.6299161607499861
Ni 1.1390629812576256 0.7751339220625105 1.4612076748987 -0.5746775519916555 -1.761422409477334 0.33619487826658223
Ni 2.81803744387848 7.7822735226885555 4.602264162995361 2.499337758517134 -0.8202173896738261 0.7582643450097973
Ni 6.436179450668184 7.408470204760844 5.826484094447331 0.32279274592806345 0.646261434877229 -0.3051153832529584
Ni 5.161177090128154 3.6202633214809956 4.941614563404285 -2.1445995700307257 0.020383448752358445 0.6499879917991966
Ni 6.1928738786843445 2.540569482257486 9.376856553025402 -1.5686444368782275 -0.3023905281226276 -1.1503521777892576
Ni 5.618670884181013 8.476321574142533 8.140974002325004 1.1364139704416105 0.2709307669514495 1.4278132896600573
Ni 0.17482399988452152 7.259055865635059 2.4361417715588574 -0.2578489940668269 2.3754347545128702 -1.2478674358286121
Ni 2.4979495031772236 5.470409433474408 12.585111678988518 0.267502715106507 1.104047638295763 -0.17798924432570634
Ni 5.37980162683418 7.200968735523072 10.075197960952407 0.36113200782789423 -0.1698092796180753 0.4187496583413627
Ni 2.2666339707528604 2.553131354472876 8.856201997505428 1.4223957181889115 0.02959365449671678 0.2780434667368308
Ni -0.1260586643746597 6.3307132180815575 12.278483018848142 1.135107078704729 -2.157990389515335 0.6007845334913524
Ni 2.0347189363505236 4.4678576641551 10.392274557102764 -2.9320294808608858 1.0889334083621438 0.36522648961224197
Ni 2.5199004986784193 7.6608420912731185 7.696386102391819 0.56735659285021 0.2520503851071788 -0.27651366035586566
Ni 1.438537277023936 -0.030158638735024897 3.7955540105976016 -1.7420560891355805 0.7682191422296641 -0.5705005377958304
Ni 6.436059550272589 6.427906323372145 3.0288131162267247 -3.5417383134250615 3.4239529922827616 -1.1766717895203929
Ni 7.80248135089995 6.897602288453609 10.590655295478717 -0.6167811660299248 0.13304558973548056 -1.8934981791003778
Ni 0.08098072718470462 8.151963334736632 13.44844986591495 0.392465270723537 -0.0706647135054138 1.2222690185342178
Ni 8.750487663330993 2.4972854394477757 1.7195773481229188 0.13911030787232173 1.710543877459912 -0.1737952608490168
Ni 7.081206686538608 3.8214469621816587 7.645845318716419 -0.2356313203192071 0.2670291179041982 -0.3524514493347608
Ni 7.830279796463229 5.794048270506741 0.9800455427554355 0.3232393465471788 0.6906579587147331 -0.21416929379068922
Ni 3.8088850899662687 0.44447630033420776 9.232607154017547 0.8590747288606561 -0.1007939287906264 -0.433196429894312
Ni 7.910908200947032 2.8480955507433525 5.830696287575648 0.8045249186392338 -0.061289442938100895 -1.0147545110558849
Ni 7.914662005639883 0.266844786571298 5.566170190193006 0.514624809674133 0.6406762274799676 1.9561567344718636
Ni 3.936551341952634 6.8506290027025205 2.571401407829312 -0.7939887949946003 0.39116712073740373 -1.826616329676164
P 8.751612882428114 5.655083712012408 6.521491349066065 -0.21357356918821926 0.29169525319231054 0.4212791096314358
Ni 1.4513205038158086 0.3009804291971277 9.000654304875061 -0.3021971811648989 -2.531332823366492 0.226113610636759
P 4.263584282491033 2.4165924732124986 3.1788675390028382 0.7236449551637151 0.4967260750168413 -0.14385039366046837
Ni 8.46198886531528 0.10246780038602193 11.398148489690783 0.22312316054986733 -0.7316804238736819 0.3189245212219088
P 6.7798877693016095 1.4243244685922796 7.213852494185097 -0.5083140369647567 -0.1323516489922495 0.6030134228218712
P 0.7365988572290884 7.499161019367254 10.673606078394116 -0.6761661928564614 0.9284513196822656 -0.16763129813015
P 3.934365465509867 5.811959544987128 10.84019661034422 0.4780115293264735 -1.8574132604523623 0.9305351987944877
Ni 7.458496339045922 0.48496020775141263 9.33553610977124 0.8376561539755638 -0.2693120004011039 -1.7200865268430245
