# total energy = -340886.91818180826 ev
CRYSTAL
PRIMVEC
9.11332786131029 0.00000000000000 0.00000000000000
0.00000000000000 9.11332786131029 0.00000000000000
0.00000000000000 0.00000000000000 13.33827651432828
PRIMCOORD
 96 1
Ni 6.648245649095033 2.1308236622456587 11.66042838790359 0.49980702793501014 1.2524432281247526 -1.645566187036947
Ni 4.9237852803199695 0.06852858088319115 6.129711869834944 0.03411262541299286 1.9662688832052009 -0.1526062854762275
Ni 2.602164984028552 1.8609051149029334 4.644374290580318 1.257096410626048 -0.7759499352150184 1.3069439302757944
Ni 3.9400106410094216 4.4367052411604515 4.4138490146517215 -3.570623371890528 0.44115090885469826 1.552024311823043
Ni 3.6739470313912546 2.8330511477441287 2.3591407788109917 0.28036517289147195 0.32023655516511296 1.158604647606037
Ni 4.906716017062055 4.7685032853111 2.137445406337063 1.1979859776171369 0.5995460330985609 0.38761359905819054
Ni 5.423177425545395 2.905237818468071 0.5493486750710805 -0.11941000122991692 1.0245095335601193 -0.39087504341828166
Ni 5.839501586469756 8.14204768735337 12.693397682842837 -0.2653841261016075 1.0832240166821925 -1.50930131903322
Ni 2.107712262554216 7.102964260689759 0.020144100109607654 0.03236941746964103 -1.409735863333056 0.558738769274212
Ni 1.0184235121918046 0.21600318783383535 0.12216324989109648 -0.8888825562507078 -0.26363294773845564 0.4910537072224124
Ni 7.880276455201556 0.026857888813348132 6.85088596414986 0.48091764722967495 -0.6959323197397951 0.1117170034610334
Ni 8.781429663280788 2.5282832343051584 1.4914325729902873 1.4050101757226126 0.36925669381755755 -0.7212875106751321
Ni 6.705951241700007 1.1967622269243925 4.59179494494949 1.1189001299275634 -1.791756798794817 2.27416491452709
Ni 1.2331335187889618 7.847960594276534 2.5684848579088104 -0.4870975507881417 -1.0834914114109664 0.25716893728066675
Ni 8.09297241632087 4.21643610451133 3.559732426141671 0.09804259129773438 -0.8093285106754642 0.5341983609306864
Ni 7.766943108765127 4.353965336665732 12.922082066524716 -0.14977832910912917 -0.3022342050504214 -0.8441620734148817
Ni 8.212630412357402 7.466531366088188 9.020156023035224 1.5132153093756455 -0.6843579846386343 0.3797894750280814
Ni 7.141522751263298 1.1051003743626688 0.35513545437535227 -0.16099656642245178 -1.0959242378576806 -0.580800891280574
Ni 1.965835972965738 6.725800069983904 9.087994724992294 0.5984880241476919 1.0467842857979197 1.3020809457565383
Ni 0.2089239546791379 4.987314289487576 1.3985449778187455 0.3383170668159077 0.5706347493808495 0.16811363708320726
Ni 7.000093014744568 2.1382510245282003 6.7141550595242325 -0.38123057834998214 1.830929869449853 0.9504602198531891
Ni 3.4720959305372467 4.667226871757866 0.10248939750391722 0.04728284424636373 0.31770556121314314 -0.07859913786114206
Ni 6.590166410043943 5.959159582506287 4.612869515843205 -1.2895583878094954 -2.027933450094533 0.25332539516486047
Ni 5.243207425109035 3.426511064111144 9.00041564335398 1.192643996578933 -1.5519309807782886 1.0498744946874694
P 0.37071742251116807 6.048397289832237 12.46560640530045 -0.831510188978826 -1.0608124817562117 0.004793564733901422
P 4.171890157471988 6.543551737559033 12.37574625767524 -0.09848379260021103 -0.6438649096205943 0.4382337352079033
P 2.802521499098098 8.793623296083291 1.3490067497261808 -1.0452465089971548 -0.07107506156995501 -0.01539885105357348
P 6.66965285645907 7.786582330506081 5.642544342727066 -0.8289365147143788 1.8829682261033311 0.8512536901543404
P 4.904765764879891 1.2337167717780202 12.54710325186224 0.7542454536583914 0.2788507931294746 0.23350733199766882
P 4.249599504936078 6.110987626220576 8.116234185923556 0.6943168956235591 0.07370684276584726 1.7692293071162628
P 4.7473968177695465 1.7313682713642244 3.8109321978668005 -0.4735671204018747 -2.1714017778252344 1.0199802782311982
P 0.49255532659430534 5.8984830449882955 3.5246133055379865 0.7065381202800994 0.2257505708703854 -0.32113541283029856
Ni 0.5418137755186813 0.2915308045857284 5.01356431932639 0.9488206273672368 0.04750370200791819 -0.4259094093145955
Ni 2.453198525291832 6.59929796465389 4.741770249090723 -1.3779251465803624 0.5944781316573503 -0.47912353144372966
Ni 6.314406219482679 5.5161971639722704 9.042364291926422 -1.2421935253722864 2.36132608302563 0.5010735533522597
Ni 9.004068265197958 2.639830368462595 10.342646633746332 -0.5462923159807431 1.336727332185814 -0.3481307104722198
Ni 2.5147043756536407 5.885250492799032 6.944573709515767 -0.3745799058026839 -1.3336908593523353 0.021745876317523838
Ni 0.6770227543759844 0.09375153866158469 9.141214737578292 1.2945758956287448 0.3496582028603398 -0.8443034840887524
Ni 1.6807801878913542 1.6180896048955202 11.653025631606523 0.4208836739652299 -0.5098374155878188 -0.9154279108394041
Ni 4.266039948565164 7.132701049803789 1.499622720822582 -0.6568865186912429 0.7046105642400833 0.43940461558755295
Ni 6.094738562478525 7.97520999249878 8.333288140470492 -1.8569949419680212 -0.1403668059872421 -1.3580024395145063
Ni 5.7955935723871965 3.545439993911352 4.164743485690431 3.4731173698225537 -0.03836548715207586 -0.043570428391783024
Ni 0.7423908331247148 7.661857324127105 6.779979716003461 0.3537843092135713 0.05458194901093826 0.018016491182078646
Ni 5.564361102209366 4.709439806840974 6.826316431985772 -0.4167737655619145 -0.4020999655998236 -0.4634189762242793
Ni 0.7993965221428191 7.767006902060807 11.206873548288593 0.15065764639028892 -0.5029856827733079 0.13185131231706326
Ni 4.907144343475895 0.5003335520030776 10.411818615583078 0.19271009547564877 0.837142704674255 -0.26850415978782793
Ni 8.338540151370404 7.5831455105880705 4.363697459587851 1.125421475985849 0.47520414178466547 0.2939588524155066
Ni 7.579573086030088 6.2661784879499045 6.939638842428655 0.07139259281037381 0.06044560688056687 -0.1658076146578499
Ni 2.486015619254326 5.569801758997928 2.347483009692185 -0.16463339184409065 -0.20025911146750028 0.12125322508624278
Ni 3.649177006012177 5.111146189727056 10.184041008032626 0.382038161852942 -0.4440930222021578 -0.44152243326150403
Ni 1.3392946761255615 3.5979236495986617 3.650846567693357 0.27238215468599536 0.30952071140950566 -1.2020403501921686
Ni 1.8038010019429256 1.1082718124906743 2.7047090615001936 -2.3586367091189246 1.1804148015025928 -1.7458898610593736
Ni 1.1698414561481616 3.8190494390754623 7.96884706692127 -0.6322910887400659 -0.5153354625879124 0.5613157859727688
Ni 4.7150900701724785 2.4842202936473803 5.982430465436925 -0.5753100433693317 -0.21384559190268332 0.13457771010929082
Ni 4.596963113232226 7.009452402553366 6.131806112598782 -0.15790301509879257 -1.6229476783064825 -0.43792777393171034
Ni 8.242831981197087 7.452442161071245 13.637854691361275 1.1273109796990781 -0.006274520154802097 -1.003983902802942
P 0.34677397597752163 5.860863227194024 7.994736208973103 0.12436117458760518 -0.3117603993733018 -0.21545227426817087
P 8.80435879641315 1.8759147660432358 8.206654803217939 0.14489760397806012 0.252536580714978 -0.9279196155485115
P 1.9894030390548825 3.747801441130786 10.351089220762955 0.11527078225056277 -1.4289911120182421 -0.028062562564171025
P 4.231145015829149 6.361868431467314 3.679857024569449 1.2215246841690255 0.9209789225646203 -1.1254189048826875
P 6.912495706450345 4.038434582913042 10.422542268586596 0.6851727672304457 -0.5010136466486016 0.8285806740368569
P 6.721361879270288 8.067418644737746 10.412765490357502 -0.9550434683484973 1.6293314703456392 -0.09877175615427505
P 2.5774040719774285 8.558827514675432 5.8707621240177 0.14045756592883551 0.5592545325683659 -0.010902762955432835
P 7.139618065720904 4.00952710664283 1.622587943573634 -1.6549275736471887 1.0362183373566154 0.12134424213815233
Ni 3.0312569174165214 1.7317328044823859 0.4589727130836719 -0.8094668360255414 0.1539496868779994 -1.6199687981838164
Ni 1.6495305863369547 1.3885431003891877 7.152210862287795 0.006034893340170252 -0.09072343192850182 -0.531936047259071
Ni 6.784225615497248 1.0972720256501494 8.903966559618 0.2852973200857667 0.5515311957821791 1.0445471689372852
Ni 2.846538873116106 1.6656520634876495 9.440698743469508 -0.0339205640068448 0.3530646574387274 -0.3531734151024498
Ni 6.57596784509155 1.8968845336654794 2.5435024919884035 0.2640031865936808 1.0003697030891223 -2.0481083823805117
Ni 4.5962249336679495 7.290726156526824 10.331215786493582 -0.49566420941123024 -0.5266861117140413 -0.3401947434545948
Ni 7.110245809725036 6.350813964659064 11.481361518267473 1.2807996677802587 -1.1174235453820367 0.1567735294800397
Ni 7.968411449845066 4.1504464967961345 8.248083080764204 -0.18699401892747794 -1.151582707762249 -0.004083168930438129
Ni 3.460102790949731 8.792502356744945 12.287553849065619 -0.8084607633585301 -0.33110975043419105 0.42059879573495945
Ni 0.2901710960549858 5.24917665491893 10.268632740767604 -0.34353949155711155 -0.23470366629861514 0.5487060676285581
Ni 9.09897446251132 2.5758274662413796 5.487860182031983 0.014847863646109911 0.5267321344606283 0.5540470202254973
Ni 3.842279312030308 2.857429300021183 11.532513716740699 -0.05767318634175228 0.6057220800022859 -0.3781843353244906
Ni 1.0819980879991802 3.79968361717313 12.779629814609544 -0.18464763018248845 0.372678575014913 -2.4324119432288627
Ni 3.336152417446848 8.618601832725975 8.151808061592146 0.35370871878062954 -0.11106831413344097 -0.5309672555878985
Ni 5.795502439107656 7.967390757114214 3.540311924271614 -0.21554534820260943 0.6766505886920476 -0.18676930451118157
Ni 3.3567120853111594 8.78003532410382 3.596746207627 1.3311297834933784 -0.6319460466958213 0.9391651065553438
Ni 3.384325469011898 3.403226511188574 7.78672540975496 0.30328475780212283 0.2561862616524233 -0.272457230898305
Ni 5.420133574008747 4.692543696814186 11.9777991225702 0.1336487705371182 -0.39232720248377595 -0.4760477207318834
Ni 8.404365719182426 9.161537458915797 2.0771835252409807 0.0468544984596935 -0.09573913997553835 1.093697919630323
Ni 4.8046740839606805 0.47701436843428274 1.3758163379013724 1.052802981188174 -0.19101496716141297 0.7334179753900788
Ni 6.064855960117231 6.147440938036731 0.5294779748000941 1.1173710948775466 -1.8664679144554628 -0.5525989749250612
Ni 8.329071403626157 0.3622347368515486 10.858410872641189 -0.9492235192326103 0.2727184549794916 1.2649778702566536
Ni 0.6124457124936644 5.010225195964029 5.596300582689887 -0.5447141728603457 0.39732285592615446 0.5796426093064146
Ni 7.610512834434049 6.416448152584052 2.493803869323848 -0.14073164552582862 -0.17728784738330758 -1.0750761907640773
P 8.727287381905843 1.749749853847521 3.5064732262454723 0.053575362123294834 -0.5393107424565874 0.7823486396525107
P 1.9734182618234983 3.5073827363752854 1.259754461075505 -0.3664570195852334 0.34539608514987613 2.0060857580918223
P 4.76647101317735 1.320958660282035 8.02045219779381 -0.17027773461406157 0.6937245134551988 0.1181661015204868
P 8.856587278917747 1.9691441110130539 12.559267722015292 -0.7787164422165621 -0.6148021879266831 -0.158049825089302
P 6.548682541197157 8.163974354410787 1.42846312215906 -0.26863554315936955 0.04251190522028163 0.8342422431980084
P 2.290097294898397 3.4851279895115224 5.947563784017569 -0.42958608683523436 0.6860603120417217 0.062433326734556996
P 7.524701738418819 4.2477586126893625 5.900439676500028 -0.3575311778505133 -0.4803594607333598 -0.7540492784871852
P 2.566030638690788 8.727998221486256 10.317503873253933 -0.03491172427552052 0.23526288123619482 -0.8409422809260033
