# total energy = -340895.2527241909 ev
CRYSTAL
PRIMVEC
9.05788821358621 0.00000000000000 0.00000000000000
0.00000000000000 9.05788821358621 0.00000000000000
0.00000000000000 0.00000000000000 13.25713498596204
PRIMCOORD
 96 1
Ni 6.551715442919636 1.8489867130869293 11.31093459814223 -0.6695630857176469 0.5426503483527816 0.9557878027136895
Ni 4.477902887450251 0.24141174141901803 6.16235396763387 0.2649236415254212 -0.17733335590926236 -1.1323685967276433
Ni 2.8334523472346094 1.4610101889030638 4.780390157253154 -1.179759427306781 0.024425994252848256 1.0080984391919479
Ni 3.5216616328547135 4.219961405901354 5.17220450865661 -0.8974371306889382 0.6269465365987009 -0.703520416499698
Ni 5.03455540522205 4.34355629004416 2.727986826273322 0.41164672874799424 0.5099510583475476 -0.9173485249008846
Ni 7.205305479936309 6.11156548284991 2.6721875177511576 0.5002628845255062 -0.7170305351709909 -0.46956057034564297
Ni 5.181637393401668 4.720400669661407 11.675015507532608 -0.4189939131416849 -0.2438657924138574 -0.4242245654130049
Ni 5.643490053537804 7.856902781554565 12.518672646850419 -0.30748722591924466 0.5202925494828717 -0.47989589083337997
Ni 1.8791041912675692 6.326391416687575 0.49470562054551376 0.8156547100038082 0.39103316626270074 -0.8752899051679377
Ni 2.906241536605925 1.5730019182941715 0.38457075823020503 0.13966283794168205 0.01652550845884896 0.5110838864004101
Ni 0.35367973639945177 0.13175966454341698 4.875151971758484 0.9248499754842524 0.03866039268467536 0.32749529361005536
Ni 8.658145453705858 2.1556324593508047 1.3536859892883424 0.6110257516033865 1.3116973858003795 0.21610019226481492
Ni 6.920933080693846 0.8593318148040041 4.711983174180725 -1.7057045470897396 -0.18090281842807554 1.3205952025106418
Ni 0.5672339427373997 7.2738918091945965 2.1672627877670276 -0.18189140759359 0.9491525567853589 0.8492330601798859
Ni 7.722682994582918 3.910924377159376 3.8556259698532687 0.1617918086302375 -0.3997759454523373 -0.4236319261343285
Ni 7.653172760730818 3.899167238308708 12.763916780756121 0.6237992492189708 -0.39312732978756815 -1.0015202717537977
Ni 7.673091056826827 -0.11177162270846412 6.897686916482479 0.8540474508493937 0.3052732489870613 -0.09407795022303153
Ni 6.9872730536848255 0.6920009176100033 0.5767764279293708 -1.0085951763227081 -0.4520356740880021 -1.531989247549039
Ni 1.807628395681575 6.58820061648704 9.281280153312977 0.13763835131248553 0.17759972219677156 0.12318463778100076
Ni 9.279534698261727 4.747538102632594 1.524278632014027 -1.5298423764093652 0.020154620571003996 -0.33770308738099264
Ni 6.2214104927436304 2.1023811347721635 6.872658159878345 -0.11289559715016687 0.013212384925215955 0.5092218934910069
Ni 3.3539095438605924 4.180016119051241 0.22105594932417524 0.040766383284084634 0.5742312084828561 1.3675507453245739
Ni 6.03303359237588 5.633517318657538 4.776294180220588 -0.13437664984207826 0.4386479399271865 0.3783406583966968
Ni 5.271863017509143 2.829494050102297 9.279927810608505 -0.05150356719593065 -0.412757959534302 -0.15286108179951094
P 0.1797682834465833 5.588064835797252 12.545823666653869 0.31750732915940805 -0.0946451355804112 -0.4630453949349445
P 3.9807969265384604 6.238058891208597 12.750274695376314 0.07541482659588948 -0.12467330651138528 0.08647365551321237
P 2.5500763156913546 8.37899039805198 1.5123213138346996 -0.7782189337548533 0.3698591032882469 -0.028646974312731305
P 6.383682559392101 7.821703828107958 5.5900829332825595 -1.0140541425547505 -0.5830706611513571 1.4806317190126692
P 4.865444633001735 0.8846712569725275 12.615688063933595 0.021349155099737425 1.4850627582008293 0.09160454898187449
P 3.921694206199009 6.338664855164197 8.233144811608199 -0.009357529955500014 -0.6983183034734682 0.36424869908000496
P 4.718498513144735 1.0035777781961466 3.8937796064224393 1.1720319767555363 0.6951753869691124 -0.22131927457190914
P 0.27651739861742597 5.713833613101969 3.5866248068431497 -0.11282797713702504 -1.1498058183674844 0.23805612771061585
Ni 1.4114907142523694 0.8957934378621539 2.6705435110474625 0.43801930520425214 0.09806136035081175 -0.5263624098260353
Ni 2.0306788919818035 6.2428867456056745 4.841240144221492 -0.7639606240636262 0.7122256575831798 -0.27438992914464355
Ni 5.874783228076945 5.567639297963464 9.186425948348267 0.6293294350085806 0.6442477468813098 0.44875108979945943
Ni 8.740662814976725 2.2880044371348265 10.231392840769562 0.10968968861835948 0.49729968813212416 0.27857619931184924
Ni 2.2576695696379954 5.358873091314625 7.280115484159384 -0.12522557947042948 -0.5917859295371679 -1.5854509669126051
Ni 0.658722236456418 9.204988278584533 8.857012294368646 -0.3948224581018039 -0.4105496390290736 1.0023160281822157
Ni 1.6355556940281564 1.1784221936310018 11.503083203145897 -0.7937800214179038 -0.38519804763816246 -0.04475339295629067
Ni 4.077661982677939 6.764159152167375 1.709414619992895 0.6558107691285608 0.03557301200860325 -0.376539600632216
Ni 5.586932599775423 7.79213888110597 7.877707844902869 -0.17075030337510594 0.017337977057815302 0.12711456896302623
Ni 5.429089840444346 3.0551894497495167 4.714396195590446 0.5113515382395 -0.9153510348548817 0.3881854124012605
Ni 0.5047290795995577 7.453065895176924 6.919362442884365 1.3815866545923494 -0.20241446724760623 -0.7016303985658369
Ni 4.820381639332957 4.550465629617201 7.252713560853498 0.5663775167663923 0.35352668467681053 -0.36008813994441213
Ni 8.286817327986961 7.374497773150196 8.926068728023196 -1.3178754895866338 -0.7897158786508592 1.174142852450952
Ni 4.701524030705481 0.3438664203510592 10.204268994630636 -0.3472747902298277 -0.49046158216436825 1.374803313121929
Ni 8.18902836725367 7.315938526101223 4.582090340390098 0.09903092335293266 -0.7690452376753851 0.20049359607580952
Ni 7.3768528240756 6.172606591258732 6.921072572171735 -0.529312750703611 -0.15355373699116134 0.25322692191378326
Ni 2.3656758282322663 4.970416499057505 2.6360619423442864 0.9599915563823919 1.0086789942857661 -0.07727810505687335
Ni 2.389905679099398 5.3424149085013255 11.476714784880736 -0.7700240566488867 -0.19394191100022085 -0.18325563493096825
Ni 1.1916467103659596 3.304534995420692 3.773524365649618 -1.0175230749399573 -0.580936902637806 0.6053479844923187
Ni 3.470973690629492 2.5511179728314373 2.8170747796260636 0.29421699117289973 0.38619255034094785 -1.047252740793906
Ni 1.2190558799823856 3.3709474315170684 8.284118077310922 -0.8129735636272192 -0.24879151185024895 0.25840563790124527
Ni 3.453772760985872 2.7024662263413055 7.090406168441146 0.27758298216064453 -0.8611508946633943 0.5577026147002138
Ni 4.020986776369288 6.819212996492766 5.928948493572406 0.8418987313020017 0.5617531306205035 0.7210864504079194
Ni 0.6911069040471676 7.468428073521094 11.317311351417171 0.7334691403429884 -0.5077149699281772 0.25415226194153007
P 0.1613445388993888 5.4244703174752855 8.001463053666367 0.033462650533819784 1.2412306472383847 0.17362659648163647
P 8.418491848381535 1.7408355282818642 8.07456292860207 0.5799930506672979 -0.49092103829929 -0.9713707447536108
P 1.7792862635831623 3.2692545209805135 10.507339592431986 0.6648600238150227 0.17506101493531787 -0.7980467671140579
P 4.071955513127922 5.982553981578675 3.8225356927737155 -0.5509701810723866 0.16096956983925825 -0.21669385998475582
P 6.78438541646132 3.9590036475903045 10.4660573612873 1.0794403812700444 -0.2845375591016067 0.06736598814948398
P 6.314416888520717 7.671913531364126 10.240195296497665 0.041179045341471016 0.3770972729078989 -0.9140325731537742
P 2.2727962428896253 8.411870532125882 5.752999921569063 0.2184830906746947 -0.019355264598160213 0.17506178626626626
P 6.966050421691671 4.094174512820286 1.562247487664435 -0.2110592874067978 -0.5387718392339819 1.1107983267560355
Ni 5.422613450399487 2.979039783865414 0.34635281065499474 -0.055908381131845646 -0.9034149455389281 0.022307405247948678
Ni 1.438646262999906 1.152688733326882 6.878835639613441 0.21982160698046013 0.14742602682686867 -0.00851060857417244
Ni 6.750644783010828 0.6607285586870982 8.94111569185889 0.12316201207318145 -0.035107642336410505 1.054444373446339
Ni 2.648073607852661 1.4806024010247854 9.304268167711369 0.6236768647084936 1.4536330789366383 -0.44222228754200615
Ni 6.4005030577323865 2.069401363928341 2.6132732014857383 -0.20125104306712435 0.6579926072712281 -0.27656945329446564
Ni 4.151692102729178 6.907862548057856 10.49066220872486 -0.06287015716165946 0.3468600712899123 0.09024263563734136
Ni 8.171773090281002 7.38366435598292 0.10972997471390283 -0.13981170481472052 -0.3471290086805828 -0.3767190636328738
Ni 7.548291473556795 3.7103555593085757 8.340394736539888 0.305338555007358 0.8080771547668663 -0.06633883243655027
Ni 3.0571550114834114 8.42764031543791 12.541992179955999 0.7820416499350531 -0.7455337848170063 -0.49716830476058244
Ni 0.16203565576711296 5.022417835068047 10.166897053810937 -0.03095042563492734 -1.122404800646712 0.3178024918023236
Ni 8.627575081116486 2.345295579839352 5.7981408130761425 -0.19292401125866776 0.7842345438213139 0.3325128014293047
Ni 3.676696446851656 2.8172206116256753 11.55157823064404 0.44006153244526147 -0.9103219570714065 -0.6177774685049231
Ni 1.1775616942544123 3.328873540945919 12.633505835761907 -1.1925871751990686 0.3730151324187253 0.10960278533150802
Ni 2.9988312695269776 8.393356208696941 8.15757937951136 0.7406029231742922 -0.10525016478976712 -1.5164937230166013
Ni 5.579496073584053 7.924746363982533 3.582767052269575 1.4183467449305185 -0.40027113992120095 -0.1686633389390902
Ni 3.3316814862800537 8.264788543946263 3.6158174746411595 -1.9261056807227537 -0.04478090376011643 0.6489947746479919
Ni 3.5829744779087744 4.397532245676771 9.491671345100347 -1.0448664999499166 0.445551094804923 -0.07537574582783792
Ni 7.347632076824247 6.069998834016539 11.298127650052125 -0.03082187047686305 -0.020259264469668335 0.2857133245772628
Ni 0.7781097315421097 -0.11218103925395734 0.25696141804840283 0.2546047760979163 0.7754102606614646 0.21107214292260426
Ni 4.729675947152226 0.3651669501825157 1.7390710516654464 -0.2274467276258857 -0.45244113705653694 -0.7406887980198793
Ni 6.240296189587731 5.784249635771532 0.35196870132326447 -0.8378068206208152 -0.24105403399667516 0.5640247002634995
Ni 7.942083161948771 8.919202848786828 11.106218173296268 0.14489888952964078 -0.032728600581272665 0.10151538033768323
Ni 0.0922971631330127 4.921295571486494 5.697399886586741 -0.09002229209641915 -0.4025578790728486 0.4613566943786119
Ni 7.826441103623289 9.019138529017505 2.7572854713629753 0.33845719193819773 -2.690212343445941 -1.534268530501519
P 8.57350854660213 1.6370049561360969 3.5579366634164655 0.5270864324762535 3.0417543935925546 0.9686248065773577
P 1.692674736857364 3.1469005675176307 1.5396969692648796 1.464339409610549 -0.9901881345704301 0.014152637351298207
P 4.598037658310349 1.0313764370040817 8.141683691553704 0.397161904868258 0.47218052446699327 -0.07039526189411102
P 8.598635128398548 1.5107651686462984 12.492476328460574 -0.00045225704607018886 0.18061665464622442 -0.7407870141606403
P 6.513916875566911 7.733932891695807 1.4269316962236587 -1.0475903266389828 0.40377966729509174 0.2776549730491605
P 1.6803197773871708 3.3092813288241976 5.992079256783114 -0.03213390442006724 -0.422087464465344 -0.11443877326757065
P 6.724141402211865 4.189318570206585 6.268742487400152 0.6053446420582091 -0.8779633382350427 -1.1672001025845316
P 2.4281299671963303 8.55689637968986 10.236099319465097 -0.5414828104072417 -0.36509124958595834 1.2888793594645997
