# total energy = -340858.31554138334 ev
CRYSTAL
PRIMVEC
9.39485936459217 0.00000000000000 0.00000000000000

0.00000000000000 9.39485936459217 0.00000000000000

0.00000000000000 0.00000000000000 13.75032632702041

PRIMCOORD
 96 1
Ni 4.328925654210476 2.814070368210641 8.573754165555222 0.5000607958170291 -0.2948245428499116 -0.009656549253157561
Ni 1.4258671794216238 2.5779681610297907 11.707948724938644 3.150773538506451 2.43997252918494 -0.6842086035449636
Ni 8.9549355468306 1.7981854505042347 11.811653878492653 -2.1402194386851594 -4.989947136022335 0.38472342199458903
Ni 5.446275051545754 3.320321752403363 13.780301533745238 -0.9701384150084066 1.1906768455502332 -1.2269219439251966
Ni 2.1907684329349455 6.517166870013924 1.2995504786851355 1.678610004865793 -1.3196747475789015 2.948205576400116
Ni 3.1740437942717397 3.831270566208533 6.314397623363004 -0.09324414146782652 2.840903671287643 -2.1476422135117916
Ni 7.748269222844239 9.197341704551354 12.49662648817833 0.500496597802867 0.4224633597475241 0.213241125549465
Ni 7.310374834371856 8.609975105810884 6.56476310581909 -0.11467942852346702 2.808728629216995 0.6032947015077159
Ni 5.827866048683338 7.4223615563326115 8.308304297127643 -0.4739964946298095 -0.15053551899012785 0.1934426027662991
Ni 3.282225598246412 4.264984242325837 10.037201721362349 -1.101711791073735 -0.5286242092770186 1.2333720704259143
Ni 9.112825550964194 3.6786416832408797 7.6356248607377415 -0.7606199897261674 1.1734571392378372 0.042980360216267915
Ni 6.986994384991727 9.307825249036126 9.487848602017651 0.8269264262628856 -0.20802538567648043 -0.10952848045014686
Ni 2.9668683586443425 1.838902770384932 13.486897261693983 0.4315658362694245 -0.016351187664513774 0.6042758344740625
Ni 4.753836347234052 0.32802057035130594 8.212671206619662 -0.282104781290398 0.15118317987645577 0.1505154643854698
Ni 1.7878323156384 2.538669464892053 7.986547279421575 0.6928233417971681 -0.21046819079001816 0.02072489125217721
Ni 8.294439363883543 6.207465335665242 13.297637822608461 1.0839110154468883 -0.6200544374645579 0.27959384194308623
Ni 6.257662068503859 3.2097442593263423 5.460791048534141 0.06298302859043992 -0.6121835193569134 -0.8200500108580264
Ni 3.693119161306444 1.8871359776455459 4.542668096436074 0.6079124027853853 0.47213475883072237 -0.17281412788267012
Ni 0.5637958364311298 4.96592529423607 1.329448678682443 -0.8620494952182637 0.9038345495748499 0.6299004770207023
Ni 8.228750508183072 7.895815486971223 1.355729857878166 0.7789509268248714 0.16470255451912924 0.39228297950940183
Ni 0.6545990298115903 2.589185622944316 1.6949068235590354 0.09197633049899644 -0.7954180712419592 -0.2723731558249309
Ni 6.356326880083713 1.3640490057218109 0.8207546310912482 -0.6361166331337432 -0.9045174345744873 -0.15403864704737988
Ni 6.672689369622845 1.9819676866616418 11.820055701097479 -1.989317280384232 -0.49113341142041217 -0.31009998095174335
Ni 4.505436269327814 6.866401971980967 3.0647411835915372 -0.4787324666528981 0.6603467093257014 -0.5362205335670378
P 2.8561405478197233 1.5385209363873464 2.461074504095873 -1.2583968746050262 0.2446695192620754 -0.7115674551738906
P 0.8949946876582179 4.124333804869925 13.23748066001961 -0.3603308520828375 -0.13370790590982778 -1.6223745794118316
P 4.560499539244926 8.543976219755992 4.7019241131009695 0.2411622774397653 0.17529189999920133 0.09672772914105277
P 2.216096973405264 -0.10948393146324288 11.822255037642025 0.8468972129578576 2.7385179725298645 1.490518381998762
P 5.462856978077696 8.71741471590679 1.4015983790718738 -0.1939110577622854 -0.5027823085132502 0.5346650161544598
P 0.6849528804813055 3.712791996523375 9.512750615879161 0.39317335253415514 0.05954186411937488 1.5184534178461333
P 4.498211622583869 7.451532594225912 12.39774747380815 -0.28264934093995836 -1.1501565168386838 -0.3026988033916658
P 7.207764181917547 0.4747109628029027 4.6013681163591444 0.1868628926662524 0.9748687306045405 0.7885907639074805
Ni 1.6232719614551292 0.723941546264622 9.721439563327687 -1.8140873439712177 -0.12342709280911 -0.16036484637572382
Ni 6.712702075061676 1.7286634922400077 7.615851500527103 0.6155668340068495 0.8007335699176016 2.0418711432215484
Ni 8.656075680027447 5.035616359966344 5.368333420444176 0.23772419829249383 -0.7789576116930907 1.7151489803320914
Ni 8.802992488586362 6.8337736258929045 3.883215682348903 -0.06489412957022372 0.9526284311491011 -0.4564656848348977
Ni 1.7713913119948326 0.40683498387487727 6.753253105934093 0.5160193760288145 1.0136162836863833 -0.7727807934584175
Ni 0.606735040518515 5.390046819084755 11.139757973362109 -0.19905403541580557 -1.5181420572533015 0.5318671416943486
Ni 7.892743368004682 6.45098948163376 7.1512700749404825 1.287914424448169 -0.030363442783205772 0.6120757901344556
Ni 1.6437339648469518 7.292327309800832 4.132316616753319 -3.0219227035786083 -2.4147307238990154 -1.5102423427902505
Ni 4.827849048207779 6.146051140912101 10.552371645417265 0.3147541918943031 0.43117451436827675 0.054513557666848046
Ni 8.256484132614963 3.668373102108069 11.538407216394335 -0.19707480020224769 4.02455909121472 -0.5453613195260414
Ni 9.411957868684867 9.569603606478616 4.462613561494817 -0.38578991558589043 -0.5728363850178586 0.08083959715588658
Ni 5.063415748412811 8.806130371567479 10.868189233121354 0.5363542309314246 0.17953781975974886 -1.0255081500279628
Ni 4.63174075674731 4.755583791049883 4.179713681542917 -1.0469532072756162 -1.6310471674851652 -1.105473314998696
Ni 8.749967903121053 1.714054486145295 6.650262901167098 0.8620263552898122 -1.269219676252143 -1.5295065903365013
Ni 3.4531180875472622 1.4877135376991113 10.832300870882253 1.8296448320898424 -0.15881395694883615 0.23717243955408185
Ni 2.8443687892109297 6.193767630915344 5.617324434995661 2.167679591778641 0.5037233322702809 2.752477005813118
Ni 0.7787896739054848 0.8065477249713613 13.397190448385066 2.510125078940625 -1.4889813765289452 0.48942002827373127
Ni 6.470248943044796 3.1551695220889244 2.432267986740498 -1.0003326792035998 -0.26200338255483263 0.5234454932895566
Ni 2.9978995786641724 9.021592073031233 1.2637109697140039 -0.0701440651152534 0.16260453433951996 0.5793790712323829
Ni 6.654613660474146 8.030415635086303 3.45985702006928 -0.4267864126029101 0.38017771160543556 -1.3615299930517908
Ni 6.264332418553535 6.957156312093458 5.476039844542068 -1.2788782823878297 2.4639120707196724 1.0832754387454182
Ni 4.812385109923602 0.7417260147773493 2.7755993591706165 0.7415812279271616 -0.08810990556505471 0.6777749321044778
Ni 1.7044999143135764 5.031181986412194 7.3468268881644505 -1.2506910213203364 1.596271711677193 1.8464647318606588
Ni 9.30963845686653 9.153054338165196 8.275248484944848 -1.1042031900370208 0.02226883870052939 0.04516811189620608
P 4.761643475249941 4.412436557860572 1.865080606129181 -0.35655724397301813 0.6396814676668661 0.2639445654416035
P 5.476216467895497 5.177929687505062 6.0235778770845165 -0.520187134253259 -1.2550014757702321 2.0904212842161094
P 0.6506945263177237 3.3367533611877054 5.626523881148678 0.21090964920281094 -0.33864333980707484 0.815162600858738
P 8.163578369739971 4.461242851533905 2.431566190756399 0.6219897068140579 0.823654183269517 2.1665830162803523
P 6.593659813823025 4.8442806569921215 12.229306103279077 -0.05830516349879636 0.3476064625376336 0.4223324905966146
P 3.7656662642410876 8.118868234688694 7.256088519312643 -0.3078001291739731 -0.9034560831895085 -0.3505706873722801
P 3.8402144721906337 2.094292623554493 6.649519767802409 -0.17903568331234973 -4.1691666747561875 1.3243832087981642
P 7.1144920195327845 5.606006448087428 9.070979908490587 -0.23128512753536942 1.730678700536574 1.180942906091921
Ni 1.2355649109621394 7.754084640704449 13.724860590487285 -1.8061624326971861 1.5728538469738849 -2.9591690173901553
Ni 1.3964988494846002 1.9139113264364984 4.052564596279104 -0.43412922612122656 1.1388140952426709 0.061048787682204536
Ni 2.6589706372668407 5.244163445040576 12.374454799331867 0.7792252635321806 0.5400887582731925 -0.5103421231383791
Ni 7.911918275682694 0.6097714590200012 2.5535180398970008 0.21522601718997772 0.828496856073799 -0.3228500815285601
Ni 4.752934440748462 9.501302979913627 13.150207115249943 -0.5005637035953766 0.43198544030534636 0.13391205150083388
Ni 4.285934778397354 6.2506722932405365 0.45366553865321413 0.18102134628381084 -0.008516265001127269 -0.41043008273207376
Ni 6.914954604455228 3.396739537338664 9.469615998719899 -0.801672022571471 -0.3646739595428816 1.9521283300387606
Ni 5.453978836110169 0.9417125041258562 6.026795616369044 0.5404633680037917 -2.090374490138574 -2.4736614367969523
Ni 1.588304295420068 7.696108964427618 7.493900590872423 0.2912090575845114 -1.9895466227862186 -0.2999878322184059
Ni 0.24244373715765477 6.757036415743958 9.357000760676996 -1.2358873806486006 0.19032102641818188 -1.178784207877705
Ni 4.4624547883739165 5.158623251797902 8.103053868155426 0.06504968131148152 0.9463086595786606 -0.68816835952366
Ni 1.6977168259532018 7.5544250924569685 10.992711515745889 -1.9736860016048785 -2.4556814552797643 1.4101192148144035
Ni 7.826387477299245 4.0453230387885535 0.4377412522670162 0.6058362369826469 -1.9561590484647082 -2.098217897442393
Ni 6.908331228701676 4.281397061391729 7.479696503210303 -1.0826123512401227 -0.09566354954259654 -2.278850235817901
Ni 2.4545103159554387 -0.3239976916312057 4.383054135634712 2.558739497514219 4.027907695971979 0.13265915293033928
Ni 6.318061618460713 7.630608005911647 13.630987157112129 0.3124443128142039 -0.18421748462360532 -0.9493731574365971
Ni 3.094206280578577 8.346834493780785 9.537226103131857 2.353055101266089 1.0137566659189896 -2.0081544676953933
Ni 8.38536281146208 2.8577564636064055 3.9862331322076505 0.03771242694910924 -0.8746183330222097 0.323987537567113
Ni 6.887859830450629 5.5034897442253685 4.059659593965745 -0.1674011843972149 -2.0913967607555013 -2.956375770915734
Ni 6.4613895907957195 5.760100929094166 1.2799518628560809 0.39566886526249917 -0.14022590953400366 1.376081151393088
Ni 2.832305789966164 4.271241218569617 0.6973710054047725 0.6249130511084399 -1.3458637472694435 0.8486064823394804
Ni 0.921030661028171 4.4370698787482485 3.733845876046366 -0.7341723370576 -0.1561513225150085 -0.7101266089623061
Ni 7.3411993674887395 7.102588732894842 11.477589595201973 -0.6603654783787789 -0.38580457087390974 -2.514518837132947
Ni 8.738750441206527 1.885040924038394 9.50726401809182 0.4959385461185395 -0.011528826575205951 -0.7638585512681231
P 8.917309135634893 8.597385994449525 10.527359711702825 -0.37281895724751923 0.02985205036442601 -0.22317226862024792
P 8.35083670381059 1.2803689946056662 0.3721275554403456 -0.242545273830221 0.5793680154887894 0.6387101048925322
P 2.7421715105625153 6.282323573969211 9.364852044531242 -0.5030872413481788 -1.0735769805107318 -0.46721186760780825
P 3.9873003882155986 3.2031960424465904 12.035289107482068 -0.5193286429077056 1.1534025345798071 0.433050391234751
P -0.1260808897699434 8.069742515801714 5.974241713350899 1.1462389269518325 -1.1214020704138106 0.865824903100296
P 0.9737583689419749 8.10934184743465 2.1409803764726116 -0.6745075742071158 0.2760737446049697 0.1271688192397294
P 5.559558264079545 1.5610216242309713 9.785707916313353 1.0618501789921067 0.3473925467546146 1.6897765630055737
P 2.669342561851125 5.49437673077722 3.7047227519351127 1.029173514694692 -0.29403804239287423 -1.9419943269285522
