# total energy = -340873.3515741303 ev
CRYSTAL
PRIMVEC
9.22824920622346 0.00000000000000 0.00000000000000
0.00000000000000 9.22824920622346 0.00000000000000
0.00000000000000 0.00000000000000 13.50647551902942
PRIMCOORD
 96 1
Ni 7.647911664042497 8.187450491614031 4.426490381081072 -0.8917776184103158 -0.48388032940242465 -0.19379998610571786
Ni 1.6172230170599766 7.82178111039209 8.818810400400917 -0.08694108206793415 0.588195126862116 0.16983344798779137
Ni 4.533728175691235 -0.18227176739949974 11.402491362962161 -0.8505263250700127 -0.21439195132445657 -0.46378792952792386
Ni 8.453307127667607 8.811400116158111 8.223620615013385 -0.5954839472140454 0.14749158995748146 -2.0152885076370133
Ni 1.4547689151790666 0.4371458638797692 4.487378370413624 -0.24241131935551802 0.05085204965486081 0.37411762145428473
Ni 1.3672943394162203 8.566473149672014 1.1067919336461778 1.0450526478187936 0.4814223547802354 -0.49771389285140727
Ni 1.8145045320571416 7.737038096442284 6.4046496102619495 -1.9215707689668775 1.3106712585287106 -1.2319700478720654
Ni 6.531441142458766 5.778314483256145 4.737761077926304 -0.8626465053723145 0.44769848016522895 0.41277749991832785
Ni 2.3759696801279393 4.307230023193788 4.667837709637174 1.3461877062677654 -0.21848437622627534 1.8371267422891846
Ni 1.0986969133002373 2.7875496019575565 3.467841380195325 0.29558224695154256 0.22111075810552885 -0.8398611320466824
Ni 1.4299726091262375 5.395535927705232 6.763043439681862 0.3668894791369617 -0.40878869047390887 0.4815200567003643
Ni 1.9397687889834918 3.6286860753863897 10.03993111547192 -1.507519544542449 0.16616782621074608 0.3616187176563256
Ni 6.401129033127913 0.39311696331830537 9.82976973283131 0.15887052121838446 -0.426452169191943 -0.44901308521159444
Ni 0.15320555036392244 7.739299017537536 12.303481338969352 0.7436440239934613 0.5425621595143494 1.0873866327003143
Ni 1.06797607115291 0.7670899233219125 12.682769770609143 -0.1255449104830612 0.4665454376684029 0.1380787812840138
Ni 0.08644562595827222 3.808267808095008 8.188381621975301 -0.3433672276453054 -0.5431123755908647 0.3386101725762943
Ni 6.964605939561017 8.24029144749736 12.234597994384037 -0.21817378696439196 1.037953060659535 -0.26525274273006577
Ni 6.226253707597168 6.035957977371865 0.4381572800105433 -0.9931320476901025 0.9775586187318778 -0.2086419362145568
Ni 6.601908054635693 4.584382036474256 2.2990725237911267 2.8174996905414056 0.0984169439180176 -0.5732266784777418
Ni 5.637675962882078 0.9557605588334448 -0.3926804671231811 1.5245983544016064 1.3827619058473735 0.36999537175579505
Ni 3.9035863958209744 5.402346375739095 12.66255067624303 0.77412548041177 -1.476455990368425 -0.14247716746202557
Ni 3.574405512601596 8.812830494810209 5.376063398713019 2.1353726521158194 0.3029394586475621 1.1062004229727078
Ni 5.263774983223544 3.9159983912214416 3.981695221299855 -1.846765550930529 -1.3719812702921017 -1.7036839171152853
Ni 8.124301581186227 7.673870729515743 0.76207713826501 0.5440454289280953 -0.8829379086314988 0.6131916489064536
P 7.517728750202802 4.323453285583394 -0.039863268796578435 0.7333729810847563 -0.5376528951381901 0.6691403963579314
P 7.719365998901842 0.5548097346263242 0.34273718154152444 1.2517695990964959 1.2313902641091954 -1.61842845027989
P 7.609568287916891 7.556081354577778 9.76951756988024 -0.3014721300734163 -0.030776361950908288 1.2680822202135902
P 7.483990270512016 4.974783126003448 7.2484253630101385 -1.0824663125805614 -3.047262467894978 -0.4358899175660751
P 1.2741997597880326 6.333735127990655 4.720391666965145 0.4203527411624245 -0.07569044885477932 -0.32894848111681413
P 8.833188012916848 2.039738414391121 9.680402211379695 -0.08201741951407165 0.88841487258567 0.8116761849720344
P 4.886136562570818 5.786001614980003 9.10819999516879 -0.7477493044110863 -0.07442186655500087 -0.21022316465874763
P 1.5506596543658726 2.4027962010418116 5.67016678325826 -0.0554574096373561 0.29134738293458856 0.030378355181541236
Ni 1.6612048535496617 5.881661647932599 12.55846986574179 -1.1890202837834167 -1.309456412285003 0.8160347190510463
Ni 5.249332772962035 9.075217309101275 7.548026015704121 -0.35071929713500244 -1.3913493904060683 -0.4864272641939945
Ni 3.8671440390652534 2.7768909739370815 12.87191473813821 -1.2352762294271629 0.1758382594209746 -0.6930516557578903
Ni 4.320112659312042 1.848824391458136 1.6711289129204145 -1.117431772912153 0.5757674426217245 0.652669909506734
Ni 6.889866347926532 9.15967424732066 2.121286608409595 -0.0897096459520068 -1.5444285017536563 2.0695606387170167
Ni 6.867598582200637 2.88880195402739 9.873490409863871 0.8981097312759307 -1.1066709348512231 -0.2936372074100298
Ni 8.564479847808444 4.009535926819312 11.092423107009628 1.6581910748898085 -1.3177729025704983 0.2293323746843728
Ni 4.134209575786086 4.082854368051067 10.463588047249932 0.6191057003980435 0.6973238007706829 0.07965329015726927
Ni 5.560629308905499 3.7435593235239475 8.347609527877026 1.814179646574708 0.8215772461358302 -1.7027737465961899
Ni 8.509424112076708 6.38159282921506 6.095013236379857 0.7617656732948365 1.5900061903834553 -0.9478832031546321
Ni 6.23932090870279 0.6534726399233909 5.2348665692521665 -0.24625254747847913 -0.10721654448751856 0.9354696599816278
Ni 4.102935038676656 6.037766714248066 5.305410998723788 -0.20154337749656256 0.18453115920928223 -0.8057312802425091
Ni 6.120202665855778 4.003426825737447 11.824865568077968 -0.16935316591726318 0.17106886305678923 -0.45698221946000006
Ni 9.232402080592841 -0.04550818893521469 10.335587614385856 -0.3823587784171544 0.09934896881398374 0.9848222422728264
Ni 6.912549384874002 2.118298501264115 2.1090905540443483 -0.36195758905298314 2.0774343850381385 -0.8044444431102855
Ni 8.894149828244347 2.6071188703070485 -0.03257756592024474 -0.1658487523084305 0.650770378491176 0.5671871571518813
Ni 4.571176411628109 1.9158214818725536 6.680384164439435 0.08144020685436297 0.84881371325428 0.06319540171156213
Ni 6.792065361120471 3.2423823285767575 5.643735231417355 -0.39065598542894014 -0.38322549729282385 1.3349710116163396
Ni 5.463621951545118 3.556096665854736 0.49853586997796084 1.21682702158304 1.1469410952251797 2.1466847346945293
Ni 8.362012056666252 1.6606050173407172 4.050308178178676 -1.3284522366612153 -2.14560744246995 2.748770246385492
Ni 3.884087104905594 2.0695641163497154 9.024973182590207 -0.1485830232494473 -1.5435813232620126 0.5813176830159924
Ni 1.1758266215211328 1.3194550946905537 8.486713390381132 1.0922107935618353 0.09532313548404228 -0.17387805037081022
Ni 0.2464117918094677 6.353963450606138 10.551717828717932 0.344196151304504 -0.5955376832701162 -0.053340877514985556
Ni 6.285425242547202 6.816344885208672 7.465650047717303 0.1527834344840401 -0.33904108946612577 1.0546287215430028
P 1.6593130624291443 3.143104821871757 12.423850932430714 -0.4712119899061369 0.2260745298687074 -1.0765180654169266
P 6.91836318197608 6.980921484444307 2.5273858729393335 -0.12640880114525327 -0.3236502088323523 0.22112901293797402
P 0.8129921585051569 6.5444806588162825 0.9619490228598786 0.5949237038352012 -0.40818062457626475 -0.07099278626879385
P 8.130872094736512 3.5311619360613813 3.3293465821495323 0.5014430208765365 1.6343381795316114 0.1854140760348678
P 3.050333230971462 9.5828909916038 7.702027041163598 0.17286169329115392 -0.633848920145489 -0.13364542810300853
P 6.730559079080238 1.2970858182216074 7.4643940829782665 0.4418625902097423 1.4559067054621635 0.32252072321359937
P 5.177878438102691 2.107086178281537 11.002118227165502 -0.534831109418679 -1.1218977791033067 0.48905030363913843
P 2.2337531291118804 1.0062759958759409 2.434123339172641 0.7727941631948562 -0.17560686013645888 -0.17689806814405662
Ni 1.767108243301157 2.8913858638505356 1.0579781857872104 1.8221030151868425 -0.5757023937117439 0.5650181745250205
Ni 0.17882593908534772 4.574544722647566 1.6243970581189529 -2.9591078251349163 -1.3252476136809888 -1.2267399098213776
Ni 9.319424472136637 0.9846818923539387 2.167870811221163 -0.5947498972614983 0.603025249896413 -2.5899866284539588
Ni 7.759425829409966 1.4963144938355002 11.765099733868611 -0.18700764577423276 -0.3474537390098532 -0.5085459504699049
Ni 8.737961707684565 6.1444729616946105 8.417734994827324 1.568593529035634 1.4302494099053755 -0.546272261376085
Ni 7.023888213503471 5.365424150016217 9.793045914469852 -1.0255755129307884 -0.17852506222451833 -0.6812088974866913
Ni 7.639680065605905 5.932564671448568 12.031474074711753 0.5610627894216982 1.0350862806347012 0.4891238371895512
Ni 4.635331201237066 8.57486162834787 2.2541364863167517 -0.5105064166303854 0.49471033013839316 -0.05717567788004346
Ni 1.8545459060665297 5.321063955302429 2.706035552461745 1.6465421777969707 1.435500888112302 0.05503549160858908
Ni 8.791633206011046 1.7410384388354918 6.614526762822012 -0.43778533481657506 -0.44627203213134753 0.12732411387067105
Ni 3.5256065299416184 0.39145956973174484 13.53011224173821 -1.9613652752559962 -1.4136197717684944 0.46178529727559825
Ni 4.946064813969058 6.0116230837874545 2.570471646415349 -2.1947381385583298 1.397497412285335 0.7500069900970115
Ni 3.469111187308414 4.070239351164496 7.923708970315688 -2.5639254125905326 1.4567986211488138 -0.9545837551032592
Ni 0.27161967778412655 8.073204764433523 3.061336995518315 0.3678251035773536 -1.2798910399230603 0.20141096568375633
Ni 4.024836364272081 7.984493603255314 9.240347603299014 0.6752693920738048 1.2955359455491688 0.5698238234437799
Ni 8.555103946450174 5.891203657779501 3.7356617877144904 0.842698858605794 -0.7364760454901124 -1.3260477409847808
Ni 2.9924905639304744 7.456028674925833 3.6333638749912205 -1.192595402729185 -0.42749757973732183 -0.3978936408279599
Ni 3.2261775226858873 6.933894325663058 1.0126370281655632 -0.5596011172745071 -0.08832047891396401 0.31965522874034624
Ni 5.5585806375457185 6.899860541992484 10.957871539918942 -0.5765845392063811 -0.8292170220692752 -0.5968134646587464
Ni -0.21034594762797645 3.8297880856220634 5.38951634064224 0.7625210634036222 1.0525831518678839 0.14477084859220873
Ni 3.6236013099844144 1.820752056879533 4.438565545379594 -1.3120084892828952 0.843255245329896 -0.04455824622634907
Ni 3.5404640114247052 6.686854090071605 7.445444795725241 0.7894906500139306 -1.0092127553020491 0.758935402934893
Ni 2.8365331496049024 1.6278447320829785 11.249976085650994 -0.4176127165234421 -1.0664539963127053 -1.4184069087444928
Ni 2.7867282877637716 6.667068723425803 10.739417652395911 0.8605320301324727 -0.5622033307840446 -0.15487939778112034
P 4.562870987196569 3.9953244227920113 5.8986693115185185 -0.7921113754662293 -0.3745444245790582 1.7641089551705615
P 3.7040993292247673 4.179824812413973 2.133753050481336 0.2745879040880626 -0.34781857854843967 -0.21344912779521302
P 5.369290786501568 1.2890572412711196 3.444745840501088 1.2083580648800802 -0.8519684568331779 -0.9183772232757151
P 1.9682471665343035 8.669238934638262 11.047851585385304 0.6843788105742407 0.4690921153496566 0.1588700069977522
P 1.7124308657935228 5.5938233218835505 9.014397608814049 -0.1376388655331178 -0.8012267075039363 -0.910017281346794
P 5.646590451771931 7.619396373494212 5.5969756918677875 -0.4905112044553811 1.2072226657240563 -0.12217033758387348
P 4.581069094951009 7.346996908638459 12.90175059117111 0.6939340583628436 1.6059809685451567 0.015769861239747034
P 8.919859730984646 8.83914946200882 6.019930353868866 1.1401071030224816 -0.510089897918257 -0.212247394177628
