# total energy = -340859.3841248086 ev
CRYSTAL
PRIMVEC
9.39492640271831 0.00000000000000 0.00000000000000

0.00000000000000 9.39492640271831 0.00000000000000

0.00000000000000 0.00000000000000 13.75042444408867

PRIMCOORD
 96 1
Ni 6.1495148595039995 3.8640298966332045 4.099565399706573 0.5678083356756479 -0.6664263398608781 -1.1924833026313526
Ni 8.900978778396254 3.3008886114685367 13.460854235516184 -0.8921434863901667 -1.3981954667936245 -1.2246508885028329
Ni 3.9710756883811933 6.2153169242225275 10.230838130560661 -0.02672558892030236 0.9059045447300011 1.7591639524604608
Ni 2.1789089174443257 1.0398116674639237 2.332856060918163 1.0835160940013147 -1.7292167712790671 0.2853893655789408
Ni 2.320631382646925 2.4224066206674593 4.955900730433266 -0.7657747944542295 -0.9487782041650756 -0.04698973848597714
Ni 6.931041209543339 8.200323955069807 13.541568866957688 1.1880514921122443 -0.3963967445674592 0.9723336228875125
Ni 8.590128847593576 5.621557573821184 12.423040868904007 -0.9747005804577922 0.8050514805666652 -0.051493025672969386
Ni 7.918184919438434 5.324555764576917 4.639434512610494 -0.4913516980788054 -0.5488320516834613 1.6476022436303688
Ni 8.049356882259692 8.874964227110473 9.667703421844497 -2.097626800825613 -0.5498967455025496 0.6994717003516211
Ni 6.972284936572799 5.813298627339238 1.6104773492066993 1.642783996306119 1.3708546128868262 0.5574174793596272
Ni 8.439838209486451 0.3001848103188873 12.144388290470953 0.02972709475078751 1.4628129456636938 -0.0969375311590137
Ni 6.153169485885425 7.356264974709719 9.159804304090587 -0.47786497644628023 0.10705816453278336 -0.6718433971113913
Ni 1.9810517668200802 7.656940200188273 12.614144006917437 -1.3026252482957823 0.5559969448630167 0.41951867529690334
Ni 2.072858987897959 0.2571485313265063 7.852880785820717 -0.1346910957587035 0.2896548257235141 0.5680777872869507
Ni 8.983259544073706 4.6651540632063595 1.4279132598258608 0.6339864741646178 -0.049321729053263444 1.816855393634658
Ni 5.465028704564272 0.2950692728775339 9.319913579810123 -0.6499113729249905 1.6779813701428583 -1.4376518730170338
Ni 7.696060673844463 3.046351869689682 6.1858901356572265 -0.6885100591337948 -0.28084442652073566 -0.36043626731245026
Ni 0.394194202152052 1.2843428125944014 5.907677239781117 0.31593895623102364 0.6138097421064267 1.7179872211118346
Ni 0.5283161718724569 8.615203906236315 2.77412072347181 2.122551846202067 -1.236409828810974 1.5941096710288676
Ni 4.553542337213195 3.8667262405187293 12.499424439261094 -0.0790267123168639 -0.1255603371020289 -0.0511955490372086
Ni 0.011100105577518803 7.252385273168775 8.413843387546175 -0.6192090587451271 -0.5161505022900401 0.2721726097783506
Ni 0.9273233948348034 2.713132619056219 7.820499292893054 0.44654302640454707 0.12747606606750303 -0.28061456989811673
Ni 5.076266648874278 4.977695080766511 1.3200407145519963 -3.213380414704395 -1.2040424682238617 -0.4716848157774974
Ni 1.0883928320355274 6.220042572217019 3.8809473406564274 0.03686113469240748 -0.20067820128278988 0.44645483756611504
P 1.0125475909629 5.123682842568512 8.042994638081025 -0.22722561275401512 -1.1799635728977873 1.3005958765705794
P 4.884271932342603 2.448703019746152 0.4568480270237533 -2.179998775465626 -0.8145625053808938 0.35502820892300146
P 8.44522150233107 6.657648850418669 3.2321196289832876 0.5867704786004475 1.2642263368026099 -1.416971718959863
P 2.837681158744045 4.3949183993623055 4.297228075353709 0.03352769944380032 0.3874487913455521 0.5423819251827433
P 8.994289187702996 0.2100245198442578 7.9597903511354655 3.1907130550138665 -0.3704995650857232 -1.7114285940577105
P 2.506744875233169 8.688296433864835 3.921428199659739 -0.22815249544365868 -0.10017943513507908 -1.0073957566979683
P 6.893066916911658 1.1651399860454734 10.782024371842644 0.10731861728302161 -1.016578965859133 -1.3566220142272118
P 5.925812266269721 8.11630512800273 3.3610433859097513 -3.0625476761888226 -0.07153734591835423 0.9513117692202068
Ni 7.834898896632929 0.5010577323272914 4.981682287543572 -0.44336565711783 -1.171123348898338 1.2620000185752525
Ni 5.288770489803518 5.120479172655745 5.937089935956774 -0.20860259833618913 -0.48082354485397183 1.4405389647568416
Ni 5.14098829705331 2.7599475374589066 8.000052308352949 -0.20697611847635966 0.16720989432201527 -1.1788744535986666
Ni 1.1983134712712193 5.922439487681206 10.59347853280357 0.0930713633353881 1.8772585773130634 0.7258285930785952
Ni 4.967069418973726 0.22571968393888575 1.8467372011078522 -0.03603221103320891 3.146446628996323 0.360611873658366
Ni 4.5614810500468845 2.645968290005282 5.369843067942021 1.132563743457585 0.20122944580056956 0.9721042804855259
Ni 5.9042790948912405 8.676562170753265 11.181254254561392 0.2670242328081917 -2.1227120259290153 2.743087851288734
Ni 6.553628224981269 3.144115474124435 1.4770571804906454 1.5151793750805518 0.7535810806015151 0.8663018427367144
Ni 4.275800127151251 7.589944979813082 5.529375495178732 -0.3938518666584185 -2.4717117692697492 -0.8036952236490867
Ni 8.261841933336072 4.60378640376298 10.01351281338734 0.20099033320656998 0.3088807638326616 0.30277156561113017
Ni 6.429380322939215 1.5515439152014368 3.595516322803842 -0.9207732343117174 0.31775312662162697 -0.8380436192219696
Ni 3.40802835248083 2.0243060081056465 9.597342938821939 -1.1815712837045391 -0.16714253141918956 -0.4480730898958284
Ni 9.32937802869611 1.22620700784308 10.11677902623238 0.7058179542846231 1.1261046180958025 -2.346415998683017
Ni 0.32645208512564544 5.895194201033044 6.259014606035609 0.05588781230655536 3.1496093429950207 -0.21892686308033266
Ni 7.698240296776316 5.309044741040323 7.455301591675791 0.41087822601308593 1.4787625270144145 -0.8352292897016261
Ni 4.939081933137563 7.517453727476109 1.4830934207221782 1.7529863628948392 -4.05979965958457 -0.0973818177852839
Ni 2.8622488913595436 0.4872049133056651 13.64717253749861 1.0790693710838708 1.4620236169931788 -0.6427603637025059
Ni 0.11873965667590934 1.2608085218862468 3.691493951724176 0.6888108782036653 1.4394274768602178 -0.975193460933811
Ni 0.5157579737129399 3.9092852572484458 5.656209820467074 0.19640065695335854 -2.4297595932076796 -1.02729815204885
Ni 4.334452652856244 0.29062735166124026 4.892029323096185 0.2692217546801428 1.3040344699384832 -1.183228359691988
Ni 5.322122478631442 3.131779935721318 10.32306248637205 0.3519359431509229 0.8281764966199028 -0.5368946768159268
Ni 8.96556889760526 7.143150463562502 1.176939074149414 0.3100310753870209 -0.45620343231244664 -1.0997412976109253
Ni 6.608569754746254 1.3696957192145949 13.419478979516697 -0.6179224787232197 -0.7664407101730025 0.5713549153763257
Ni 3.8172713477890983 6.331212736667954 12.522003265951277 0.7123745244562183 -0.47217872469478034 1.6078424472339277
P 6.539789498349288 6.836706753255681 6.265367455287847 -0.722777207846781 -1.6959731787345889 -0.7352342026632112
P 7.206096470646189 3.528584048435736 8.396476866039578 0.37835248547123873 -0.7598540580944204 0.19668399252173224
P 6.356860885822949 4.865397525143927 13.284587565321642 1.1842112924305475 0.47195015362374204 -0.41193006431636797
P 7.928275070424685 6.900798941363877 10.37194522808207 1.0136908456780604 -1.7465352079528564 -0.07023456794653066
P 2.1107487261917663 7.699226764051508 6.8441362610768435 -0.3561492099013221 1.164567292947375 -4.578967865655011
P 0.7293535050933931 1.942579543087588 0.8183563406317971 1.5894197217523658 0.645121921956147 0.2064770673527541
P 3.4706361422130225 8.595803383157538 9.572069647231515 0.3713454580257863 0.04131171426459337 -0.5938944912397384
P 2.8327206375887934 4.364760685520718 11.05943869897217 0.9976047387494755 0.8455031608238084 0.592379854367425
Ni 5.303379600402793 6.031862195816087 3.85216786252218 0.05907418045433697 0.9863345651522947 -1.4154012891489494
Ni 0.5788298728107941 9.246834205078606 0.5904373044155545 -0.03642070472087921 -0.1827666111096917 -1.3181295145789687
Ni 0.022934894401894966 8.360704744163183 6.13289523464862 0.8332194583604488 -0.40966337976937833 -0.22792803813767842
Ni 2.868581071773634 5.333584288876532 6.595638578007449 -0.17864359008025363 -0.008412906654043576 -0.5705033660093077
Ni 6.145559595476801 6.213325199819282 11.326912254445686 0.16864585543759342 -0.9917302822465695 1.9583635123151946
Ni 2.4639791701219833 6.883982023053459 8.561674433913819 0.057006242181714725 -0.9227555548490689 2.6217109561404333
Ni 0.9461066712471041 8.515392207839735 10.4465550363291 0.31377948668585964 -0.8286498367118954 0.22635143767917792
Ni 1.3506146236344503 4.738688152377108 13.294446601117706 -1.9965482509150323 -2.3129299511104295 -4.009701714486915
Ni 4.477142795481175 8.48904883412889 7.578504777898783 -0.4952464051475213 0.28253441262864887 0.05139352398062762
Ni 4.890622902609554 1.3514695619396169 11.571174704680255 -1.1949430770257548 0.40661482275104166 2.0136699981969834
Ni 7.209375299970398 2.883096233108603 11.77954853595069 1.0701512426586344 2.465977180778818 0.6286496353327367
Ni 2.4199263600898333 2.4580697613972613 12.119555620930118 0.029145254105388516 0.3161888674583006 0.06075028260517924
Ni 2.839860781675898 3.505228261329759 0.7565837598592674 1.7689346586939791 -0.7045933378489027 -0.9748620457363211
Ni 7.6807751285422 8.75823226621274 2.7362103163398555 0.4633032765820214 0.3471323511146925 -0.4633953220751955
Ni 3.0853220245229855 5.646482313641037 2.541105879159718 0.30486650046694597 0.12798514449343765 -0.03292940373816909
Ni 3.995793739819579 2.7009943741081406 2.8334261965637166 1.0782985543561172 0.1534984582731937 0.06591434330462197
Ni 8.13688941181174 1.343690562855245 1.508930407898424 0.24365753305779328 -0.09091677888623052 0.05200544653301367
Ni 2.880475048634522 8.161325615457212 1.2851573527159172 -1.98972917111067 -1.2846190415263488 1.3459272535175273
Ni 1.6239224284212463 3.1907894686306673 2.555983684654901 -1.8997490451060959 1.6363163863039045 1.5586153347769995
Ni 7.127968262450974 8.51855829804678 7.211740002952931 -0.07340139571028649 1.3156715399567793 -0.014916254990200117
Ni 6.021170769538291 5.0655282479643295 9.240161928327737 -0.7624488154047901 0.07861430736979363 -0.5137892011467152
Ni 7.347180080851521 1.4451087936714238 8.072516315403275 -0.9044670409525263 0.4427287948647795 0.23694026893861775
Ni 2.86005987350126 0.22847051839770716 11.250652697117477 -0.4186177607491887 -0.2812581170193866 0.4755993203405551
Ni 1.1062901668854415 3.8298041796472533 9.939412210152838 0.04248567996803651 -2.263797712360153 -0.8762882645254649
P 4.89217306547057 8.2383640121865 13.177375483375835 -1.8862119298516096 0.6130121859057959 -0.7098581857922677
P 9.06982439620342 7.870007736703337 12.821651625970988 1.0826555457732323 -1.6349454740983067 0.10317117077355134
P 6.103113317864248 1.001555527039331 6.18320882365399 -0.7796785490195153 0.5415064645563255 -0.036993546505213706
P 2.1875710396131556 6.01317568714602 0.6108017469460918 2.383001768226851 3.6531195308132305 2.5373525471980107
P 4.059115543960481 5.282410124610138 8.471746198122021 0.6154310797599336 -1.5810034726642126 -2.89147701335982
P 8.300859062801528 2.946474406808089 3.140197789802958 -0.9327208935918969 0.8909530656264913 -0.05363681148884957
P 3.071793330463208 2.2159061377272447 7.230523279365231 -0.5115867941787576 -0.4423783535038962 -0.021757960502381882
P 0.29708636358214097 2.603428063128426 11.486376098719454 -0.5167205158608973 1.5893330755758306 2.441714708687027
