# total energy = -340867.5756094631 ev
CRYSTAL
PRIMVEC
9.20799190984619 0.00000000000000 0.00000000000000

0.00000000000000 9.20799190984619 0.00000000000000

0.00000000000000 0.00000000000000 13.47682691814586

PRIMCOORD
 96 1
Ni 1.4867039619484526 8.714360695985073 1.6539036003154348 -1.3105208489937752 -0.9092233246905889 0.8147962186582548
Ni 5.549242379987643 5.631377668053766 8.159882124795995 0.0007677314039599681 0.6005641899504303 -0.34322864518491214
Ni 2.649341855713143 7.720588166328527 5.490432777092943 -0.41158425094117507 -0.707107362520008 0.14113762271499564
Ni 4.314717693181222 1.9699762106998466 3.1540622800802796 1.3411804828611613 -0.21275390150040135 -0.8664195992615012
Ni 0.9028850452555746 5.863999168324448 7.965532722206708 -0.5483527980541976 -1.0083491217501732 -2.5488960290612357
Ni 3.0044204407362223 8.957350395175313 7.599919273610037 -0.4960647872837586 1.0283664454123644 0.30114431442035233
Ni 1.0799961661421056 1.9730148480386158 10.46790950183149 0.08871925701427948 0.13627489530605563 0.15477243988961087
Ni 7.511207637703461 0.8239034944274158 6.946913347110964 -1.7550982670315192 0.46702443418735057 -1.6082191138470563
Ni 9.161132464703496 6.567830447910803 5.387119107574792 -0.6703711834412389 2.4176700090329977 -0.3064618699785238
Ni 7.518601655227799 7.741490308022485 11.345548074797861 0.24057375192614697 0.966472021900413 0.06157380694773912
Ni 6.824190151391628 5.2993927268053325 11.409791313733797 1.9273148705395067 -2.8558196691675266 -1.385832317242581
Ni 0.5587363466601292 4.7963785433438755 3.0683229839705373 0.3118449886673081 1.4100883615764683 2.8102646062455467
Ni 1.7735237027524533 7.035016334750593 13.222222465611205 -1.780763018787475 -2.7943818735770196 -0.026017764220000354
Ni 7.182878269253487 4.898080814273285 4.768061205744128 0.0773171858249249 -0.2317826359970782 0.01874771292114836
Ni 5.6198768861261215 7.100881101066398 10.531641697214997 -1.5374908940935585 -0.7820131106899628 -0.1156281655899815
Ni 6.710904226607153 6.913360345296599 3.5050258135073102 -0.2032629312908306 -0.20446775023220914 -0.6285668458109434
Ni 7.220621828197774 6.359223390608334 13.38442953075067 2.4386401835267613 -1.4403985825242354 1.2866095895938163
Ni 4.76718920890782 9.329997828811639 11.974807510894049 -3.3062548315376286 -1.1008890380621232 -1.3204424789828613
Ni 1.0508528716657286 2.969798391058125 13.296076085730393 0.04028970075798222 -2.3475948494824666 -1.2227004496446812
Ni 8.98808667225656 8.968841969111022 10.012554963829837 -0.5772635675512767 0.4568662627074261 0.15752891958882548
Ni 3.198073719135173 6.758666080777442 7.78662788449111 0.9229738415074621 -2.238562077721816 -0.08597203328644548
Ni 2.1255452344528916 1.3214757546548963 6.034923439429406 -1.3614371762276682 -0.3202213856564614 -0.7462202693610697
Ni 3.7384447258796207 7.598158705551937 13.456234372664174 3.297140013720554 1.461080022132987 1.3277544392632423
Ni 8.433645853834419 8.421316352632564 3.464891859856525 0.06301722426248502 2.0363797810896735 0.0488923548253287
P 1.5262338713282586 8.379502861252714 11.455046752499198 -0.29588486579362594 0.7866876333474967 -1.399788265202041
P 6.368440590535934 2.1592833169051646 1.9402988526912013 -0.3880954237906155 0.041598906487709 0.07358111582126038
P 0.7574549414228895 7.054463613718716 3.346390528439689 2.13521915725709 -0.5257324895515204 -0.5668074052149593
P 5.479114313405624 3.5744595974973787 9.00543176666577 -0.6392307532826927 0.07256193052812664 0.445227135806601
P 3.4468644532448813 2.025666145926743 12.153820082115294 -0.573858912745102 -0.2832167834076542 -1.8906578814381054
P 4.438316568933641 7.927077385485794 9.155563471180805 -1.7147077790296146 1.4815393184286034 -1.3828482949135925
P 8.840675929358513 0.9964244313340183 4.940025059138621 -0.11139201602144687 -1.9453683856071073 -0.2293550003921921
P 2.807378621304946 2.6829418182863813 4.372084403739603 -0.5482388981841526 -1.327101636170592 1.622204629492871
Ni 5.306225056821595 6.547094050071688 1.5004560979043668 0.5851884788253083 2.0826349554024715 -0.4030412464671703
Ni 8.482862570730543 1.9840552303694772 2.770040214005828 -0.8494886278341177 -1.2304230150999196 0.04660458723241651
Ni 9.068371153943614 6.696116191558477 1.2937081341737076 0.20373961381693298 -0.8679609756066923 1.6565224289381342
Ni 8.859441816923397 0.952760133575099 12.065345091601467 -0.464466186541871 2.145545221773447 1.0786955326842196
Ni 3.1085720375205184 4.133099260242183 2.945792235282655 -0.5696163354186641 0.3271445951388559 -0.17586165645974228
Ni 1.8387162856569552 2.0309239093220075 2.213420784691708 -1.4479267725804805 0.3316725649161965 -0.03974771221158316
Ni 5.042683119630953 5.767407332919332 12.522007164457985 -2.7403992487129774 -0.7971286261751627 1.5849526871199477
Ni 0.3529054989262619 0.5084082251373699 7.747922090389546 0.189415483884777 -0.09423273063334094 1.3210222627457315
Ni 3.4662196522936473 2.711735209069203 0.6334886667922374 0.5289741364172696 2.0016506051386047 0.01322935420608044
Ni 7.317278119546439 8.552999845304496 1.1675310206793026 0.7869907664102124 0.321814184064878 -0.6602456649714629
Ni 0.2515356365057295 6.436082499295322 11.09176568825983 0.690685726628875 -0.4687475875260443 -0.4409979282166017
Ni 0.715033722575285 3.4514684492127135 8.471910585122265 0.5529874686127315 1.2782126237793727 1.5998033789795352
Ni 1.7979432973658345 4.795641903989021 1.035198364575906 -0.054952444976479546 -0.2794796849627251 -1.0146660651071366
Ni 2.2174962419224333 4.635312348405239 12.037367528904143 0.46888771264833434 0.3619699303481573 -1.3445450284580198
Ni 3.383909412380746 2.997542070760281 9.659340076374537 -0.039181555295468004 -0.5941917107651832 0.723631071206644
Ni 6.40361511973017 8.918943860811659 5.092784724552096 1.1567148867824917 0.2320189203776004 -1.7209478464020556
Ni 2.488155956879343 0.18782001550770827 3.6179885377748437 -0.8971082865946097 -0.19926023788934072 -0.5192355689732671
Ni 3.702855837048279 0.6046529192465118 1.4012123608217792 1.2281954113209814 -1.6120968516349077 0.4843395284270304
Ni 3.9898229057232504 5.164302277117205 10.053375833679024 0.8489448395155056 0.3928079987749364 0.3033212674670131
Ni 6.455713938102158 3.4281538136316123 7.0081787214549065 -1.4923760040327911 -0.11621926220676114 1.1842192628503474
Ni 4.01560528314311 0.20716876896211922 5.1297382377883025 3.1729598447955034 1.1912216623101097 1.036635370289376
Ni 4.834251014175261 6.215541884444231 4.809690537285265 -0.36814109215587565 -0.14210435750363912 0.7429125451440753
Ni 2.3320712855779013 0.24543257945077135 13.180646540423295 -0.9735687808461942 1.7839095348362568 -2.3588737648303955
Ni 7.217748934713847 2.357384055409042 5.130438965974607 -0.05178381744051082 0.3889927387939042 -2.5573778412800023
P 5.479731248865314 1.6941139802992864 6.119301794331058 0.21540496597000322 -2.310218465716537 -1.305182210389681
P 4.007695618070374 4.996468208105855 6.589063156515251 0.03170838684687442 0.49900432952805673 -0.7707725047791371
P 0.14307654109392934 4.604594487307863 5.659256705237375 0.8768233110933287 -2.425572808819842 0.5095859616986449
P 4.264211857414105 7.832483684330716 3.2665940703252243 -0.7830479797123804 -0.33563154956394453 0.6964118304793748
P 0.03510270685713864 0.9381102184054575 0.9085525642919757 0.04263917482676527 0.4453806306653297 -0.735547877248888
P 6.802468498415396 6.931776329167927 6.1645563122972655 -0.07293499759682923 -1.2868785269844871 -1.7954141930417467
P 7.254958430125865 9.30007185502073 8.785138846797748 -0.370992959782374 0.16017612740368542 2.2773677377351036
P 5.931852860898356 7.772990848434391 12.881825102930348 -1.4930108094033125 2.1537660670213423 0.38587373354894833
Ni 8.194145983587795 7.406945545015937 7.74231534409992 0.3009303986373334 1.5934774367615074 1.0659899121920933
Ni 4.940897976774123 3.4545991664708393 4.895187663207099 -0.5966802815149918 1.4475508772983006 0.9287230852864135
Ni 9.087753976968187 8.079902427642011 12.840141444236792 -0.6083266075046685 1.1091263383702512 2.0391095213160106
Ni 6.543567389160329 4.173485512872006 0.5591875382649767 -0.6816732387176195 -1.076966465808255 0.2417284343558805
Ni 2.307366243214515 5.6771690119498235 4.492244094504051 -0.5058141533610385 -0.0643498270309795 0.48719396715668994
Ni 3.233607360014901 7.032594632871513 11.303446373270425 -0.1396813498844433 0.2532102097432349 -1.3760929784676301
Ni 2.188629187204126 3.784042701945029 6.447704826716517 0.051386839112408274 0.4840466797769599 -0.2773358991468449
Ni 3.9449247370449525 1.9986498975875047 7.4380087058108995 -0.5172581335319221 1.9552540201519355 0.004217637625773382
Ni 7.853017506347248 5.147424027899133 7.194873520348077 0.5920823777316642 0.30248951559433707 0.5035454119315199
Ni 7.650552179665866 3.102200107101039 9.236370046010613 -0.9504581629706598 -0.7794090974082126 -0.008746892954694612
Ni 5.324815992539701 3.3150704646697213 11.98494182681844 -1.072547510804953 -0.4425465036506443 -0.2552868897666055
Ni 6.583649778056275 0.851803709992478 11.048989961722704 1.7509701037957588 -0.5191885177854155 -1.4364637662462034
Ni 5.350736489838596 8.219928361007655 6.978570423385778 -1.0350628835959337 -0.06635220217298896 1.9467112727882474
Ni 5.668946275151275 0.038801557217694904 2.6874279519574373 1.3202105654777134 0.2556908100732435 0.34193743717731434
Ni 5.328517605297838 1.2564489156052363 9.03578130808572 1.0652584333427073 -0.7022418068975906 0.28163144119840533
Ni 3.018517876389724 0.6549672287813674 9.911262448541565 0.7896235760473692 -1.8712072289126613 1.2759778209115833
Ni 9.0331505847897 4.080328258458892 10.915704278453966 0.23009290699948115 -0.5120431649898859 0.5979144110324088
Ni 5.885085469857119 1.1464778679176002 0.03793048118058109 0.7680638475987224 1.2533443997827833 1.5543411328816779
Ni 5.38906015227483 4.68476847309169 2.7892315107981394 0.9356846042059112 -1.3125882730457652 1.246053265438009
Ni 0.6961637847015285 2.7568451615620218 4.572363753135458 1.284636782138162 1.5324875273416962 -3.0018963810553525
Ni 8.899901733488704 3.8109668703649113 1.3998652316015918 -1.2038396081844365 -1.4416465959987237 -2.198218898018079
Ni 1.4383712122781518 7.669299651246877 9.23535992929527 1.3477974739570464 0.704913697302799 0.20425666266266757
Ni 2.8256933172649816 6.5815319399110725 1.9840718047549613 0.11569707115470397 1.4678237686147237 1.9714069757627146
Ni 9.11482547325904 2.5670039918244347 6.573510858135915 -1.1557000723647322 0.5582456316878773 1.9706798677887027
P 7.540700835873394 6.246683313170647 9.655324471091394 0.45532205814875776 -0.13172275715899895 -1.1167198344467928
P 7.521437716743984 4.901653515144322 2.4585771243844095 -0.8847348526309214 1.7846487269951266 0.8712782129053833
P 1.9480611898929663 1.7097583585979796 8.367775562723452 0.8405864402484813 0.9870809564000163 -0.05159689824068533
P 1.91067674263417 5.500707054494757 9.709205035902933 0.22993092750032015 -1.0469380377669646 1.6134374248232022
P 7.298770055755755 2.7131808638031023 11.546041970405819 1.9461502580784547 1.285253075565922 -0.10000717122327293
P 0.9867652477935065 8.060676140480345 6.725785262374379 0.8928883349759913 -1.499281730013689 0.4711178875304338
P 0.1604971410370122 5.202257619876012 12.985151663637211 0.16328279135346718 -0.39306870863549076 -0.13434502527319442
P 3.974721798948761 4.930133834201331 1.1272534223543207 0.7047907985716895 -0.5810592871482831 -2.053385828729367
