# total energy = -340870.4385134452 ev
CRYSTAL
PRIMVEC
9.25764722371430 0.00000000000000 0.00000000000000
0.00000000000000 9.25764722371430 0.00000000000000
0.00000000000000 0.00000000000000 13.54950248922862
PRIMCOORD
 96 1
Ni 8.846672543352854 6.339211004891174 7.784758374213645 -0.5176286294974632 -0.027291745836417514 1.0357653089795966
Ni 6.714793755000607 3.1930366077087613 11.919524522556053 -1.4260148029987376 0.8551422265754692 -1.3640051940651605
Ni 5.305011454411137 7.593372254720489 3.645629096708639 1.0529387354350899 -0.7042035586096517 1.1588692141213333
Ni 0.6747352900480885 6.007389153469621 12.82379114194573 1.1051205596449678 -0.17325352941293387 -0.785068609686835
Ni 8.95058963405974 8.86308635197854 10.300304616044084 -0.903255022922296 0.9920712105257559 0.8002306621392541
Ni 9.092509366846963 0.07349368445387623 7.6710235485673675 -0.4750362487482336 -0.11404282338073263 0.44768588175973867
Ni 4.7672069510316115 4.2291895217646704 1.6394765645231706 1.103781014897938 -0.36217484727011173 0.36390519969765717
Ni 9.33920715153802 4.4138703273336395 1.29032902621895 -0.10677457185409354 0.37842293369785795 0.5243564351396002
Ni 4.250954250517623 7.430132160249706 8.830210594961319 -0.7104672801311764 0.5172221380876642 0.8843905819176253
Ni 0.29705383130050367 4.394568132756904 6.4293342011523364 -0.3489390653061281 0.07343944803707353 -0.8630694518423457
Ni 2.164493479716199 1.7854946577608106 2.507674464349097 0.6763525978356546 -0.8791133926790858 1.6304840958928435
Ni 8.40920242118324 1.5444718108517868 4.1458771766066755 -1.16911557443969 -0.07145198529339952 -0.4169077200366175
Ni 3.691672005450795 5.975857606837313 2.847441228665497 -0.7722264636168442 0.6544923074274535 -0.14184339053276865
Ni 0.3905449596417692 7.786949659324586 0.543036925621621 -0.8405956962198621 0.7997138704038357 2.375397987737664
Ni 6.976350063574476 3.1483684595875387 5.2118971123141264 -0.2574628143720018 -0.5973158582164617 -0.8317891536718255
Ni 2.0980143146056283 4.040555700807563 2.6386572126408976 1.2181421408500377 1.3347311276913916 0.3998618202979243
Ni 4.513399293230275 9.057728386019722 5.880416817979087 -0.10066897317698793 0.9969948730796185 -0.7047357769640379
Ni 3.0339809698080913 7.5156543058132 4.96133981447245 0.3426812573218744 -0.2959152048109291 -1.263978482457862
Ni 2.8339787579923605 4.8334361596656485 0.37337850429230107 -1.7240251997757983 0.944933890718321 -0.4279794044697468
Ni 6.204678874632601 3.733997968810428 9.523837040046956 -1.2643644050423708 -0.1219008859725707 0.4511213898038488
Ni 1.4661058266349676 7.97055657780919 6.743072164379071 1.4987307426062253 0.4488279657839819 1.4956230502151788
Ni 5.181116360876146 4.319007215665625 6.406137314365321 -0.5867771634686668 -1.3604159340520054 1.3843714164263383
Ni 5.178811206703673 0.35356343605630824 8.091478115038162 1.083125029210483 -0.5970808593875201 0.05064173341626762
Ni 1.3859346011987415 8.617925336735798 12.315630550918323 0.04742579758213123 0.016724768953848616 -1.9630812295058384
P 5.719504096034249 2.1977006605060074 6.84946289843891 0.6082299340258042 -0.7980873905440061 -0.21621974856181472
P 8.112559629421924 4.690396251557666 9.433962874497599 -0.3178076340086462 0.621158212051698 -0.9730540459933049
P 7.165789299844856 5.3354598563118 6.284259462172427 1.077234631867977 0.389376090275252 -1.4072035838295054
P 6.107482835850276 1.5801507834650912 10.512598206152157 -0.003626798119309883 -0.52277649224699 -0.7859276152530206
P 5.219933675917035 5.185569289217351 11.111906814994512 -0.2320423174163681 -0.03657831334466604 0.2821937414597785
P 7.28020456256614 4.013217868392648 0.24548873595641826 -0.16901583718250246 0.28169854699091484 1.3640507025911153
P 8.535958127727444 7.662128801061695 12.219428783453765 -0.7898781152603365 -0.9812239833986068 -1.0205389789481456
P 6.090411734267782 5.94886230737172 2.3359071509696188 -0.49003889280465285 2.221157251981807 -0.30904505732466775
Ni 4.080456160580097 6.350671972222589 6.789492785130211 -2.214742863815031 -0.2705075633711019 0.2904670372121642
Ni 0.7867778177717623 0.45142232238381075 5.2148512275608585 -0.3256975782796842 -0.6966727974502454 0.5623431987960187
Ni 2.8219160435878106 7.234027417938438 0.14639025065825634 0.13356289569153126 -0.5161834124105046 0.7759296235000442
Ni 7.432381768538505 7.046939624076927 10.08275360804626 0.4418047403886133 -0.43472906448875454 -0.805588841127374
Ni 2.8071778691196267 8.741533443205139 2.211766729781735 -0.8546012664703347 -1.4281981838033015 1.4444195307581706
Ni 2.6722106294389407 3.5981049644018412 6.9081730459529345 0.07310726150863538 1.0602103293958387 0.39167517072207386
Ni 6.014961908943851 5.984874555287069 8.080923471375364 1.177631839440817 -0.14201282623109737 0.8579154184452321
Ni 3.980418024083115 2.5882807992074373 4.4982315639283454 0.9068285992061672 -0.4615171312158762 -0.266308951908722
Ni 7.103439045420724 0.2587401322715931 6.051641633228016 -0.1878190859319346 0.8572533593812011 0.42138632463326137
Ni 0.6268723278508792 8.047543172581436 3.4058708444179278 0.6447701950436832 2.692471828904079 0.37840416464478055
Ni 4.9637838333541096 0.46675854086621854 3.1038660233526096 -1.2876948522381952 0.1785590007862473 -0.5157072441050344
Ni 5.123793008924517 5.769032508976952 13.302020833555371 -1.2884049909313424 0.24751958711636085 0.6414377882363405
Ni 5.347170780119748 7.441833826410374 11.21340580823212 -1.615417431367708 -0.6164021854239513 -0.054471134464686835
Ni 8.874843564022882 7.12498159063898 5.483280413474663 -0.8336007529592675 0.4391066247311599 -0.17971753987072275
Ni 4.073290741586143 2.3857605073318155 8.308636598791354 -0.21872426015122332 0.18260026073515648 0.3912524813623584
Ni 5.887539651795558 7.230815014332622 5.816502946929531 2.332993040408892 -0.462602650970571 0.49282571152117066
Ni 7.04633787700379 5.7507856861900235 12.198034360591972 2.370275064688802 0.12342117927183906 -0.15860904002688167
Ni 8.661621431892724 1.8732201233767087 1.793709893956204 -0.5238645831048462 1.0820302534844075 0.5104305690871274
Ni 4.3004734058130465 3.517896708376499 12.448944374794978 -0.3615667813724676 0.15613769566825367 0.14223805486802601
Ni 5.605838702742564 4.939001111588199 4.253947247882926 -0.9333934941788893 0.876376453363897 -0.5677476576410415
Ni 2.657139179668713 1.3573192134593217 6.2948418787770635 0.46957419719239774 -1.2805579840830978 1.9784705674777152
Ni 7.0656678445223635 7.4942506253041286 0.6281008176448039 0.43721840656951155 -0.285124027732696 -1.573360354296658
Ni 3.995350609144158 0.5127718251370817 0.5655172705092408 -0.6722843413035519 0.8372152097834032 2.040697691738737
Ni 1.2843967258425604 2.029683620039256 0.3928084544014872 -0.8939093200413378 0.9911841799351123 -1.0903521430865415
P 1.7758944775324772 5.963970787731065 6.200821213011439 -0.030890776041585508 0.07989960184012046 0.7560729937854335
P 4.0514704669495165 4.60639236014793 8.588582297920247 -0.17912130104762056 0.4836062498054316 -0.3335582119746836
P 0.7643530187678164 0.29983945736675777 1.6501663698362432 0.3550634330363111 -0.6485353185130702 0.30392753359244434
P 9.437338212695526 3.4233946449523653 3.3701946490988073 -1.5239910598349107 0.6282889095592084 -0.07904882380405095
P 2.794383800580035 0.3383225713408742 4.3154624625224915 0.9071422737918442 0.6616854827417831 -0.38563487806526486
P 3.0045601667553976 -0.028301553496661296 8.347848289606329 -1.0927538105494987 0.0668427686561623 -0.888429013653057
P 5.996909496749781 2.2221871375589886 3.3247766315479845 0.6901267688016114 1.8548264735617925 2.066742709652247
P 1.8617776713398526 4.299168077546706 11.91697681802487 0.8754148607815762 -0.31092273396335485 -0.16816325937422008
Ni 6.337776069562928 2.2157160421109605 1.249991605494848 -0.9374301261421083 0.41091370723671167 -0.860008553528835
Ni 3.019788996529369 2.9759447790159785 10.410597448432025 -0.4413069748165883 1.1606805562984592 -0.5920890625998835
Ni 7.541103578183198 3.4956598396123173 7.49360629305351 0.4598037480691952 0.6078879773053532 0.2738582250108897
Ni 7.90847479515615 1.576336632786139 12.944652504467388 0.9749713176206757 0.38823194936847977 0.9756632014813778
Ni 1.066036599472553 3.5349585523117146 8.627848608854169 -0.8884542104640377 -0.7590212777804799 0.6453834031476499
Ni 8.427967672217793 6.89328119453992 2.3564350580460958 -1.5305172909892029 -2.0937184669101425 0.4192379108316909
Ni 1.3444418260942188 7.697854061911394 9.328425695516884 -0.3072026047992903 1.8551540321045406 -1.197098689916177
Ni 6.92160033756641 -0.1948910647529894 11.903725421709694 0.2528955067162935 -1.0424414354481917 -0.510833975173133
Ni 2.01496396086563 5.7619596664557875 8.464617772030666 1.3276582800050103 -1.1845257383471728 -0.9182538103239734
Ni 4.893138726967984 7.663600766979058 1.4029427507797385 -0.010932330641787624 0.29678346634849534 -0.6309214620860488
Ni 3.7908028925144333 0.3518433651918682 10.32141482913441 0.5855852000430948 0.06787275258257344 -0.03447823628252772
Ni 1.44803489914634 6.042420090773395 4.007116153071052 -1.1562813987894989 -1.3699734958334537 -0.6015113843550479
Ni 3.1450171912725366 4.8244099535686145 5.03387070360931 1.018990146403787 -0.08771626967106184 -1.3428591561151648
Ni 8.109060238750459 5.262176320451157 4.179412078110161 1.13679655059201 -0.12289975955073028 1.3740762051479174
Ni 8.735154924229901 2.7401710181141525 10.523139889108766 -0.25996835440267485 -0.3834214153537139 -0.8443083691847588
Ni 7.330279176698304 1.504626896962928 8.651994404487281 -0.045573831975056996 -1.0237914244471722 0.6950092937048934
Ni 5.079134118450573 1.1133616923628518 12.346876036249709 1.1004388378985823 0.9705107107461609 -1.344681296925568
Ni 8.946192251602211 4.010801622452826 12.515811435326539 0.7032568784256662 -1.209713036246078 -0.699345459186402
Ni 2.7422725040464884 6.834958016682156 10.772451107626685 1.1285548794085078 -0.5666433688332693 1.538279708543441
Ni 2.6755063518702684 1.5478508521086256 12.165407634286558 -0.1411265669714021 -0.3672481480279611 -0.03529996085287469
Ni 1.299634813263811 1.1810258363251354 9.407026823974592 0.8332438838404811 0.057275950903333615 0.036399107454324404
Ni 0.5724864273808795 5.272359732458068 10.441544837521027 0.7267451913555936 0.6645548338697781 0.04444588901820088
Ni 7.112094945626598 4.14502825035119 2.5390273383889204 0.776054836223999 -2.0954182232100687 -1.3006197878299794
Ni 1.5589970594325533 2.799494021878049 4.878470910619121 -0.8199214556999621 0.3630551929925361 -0.3625024058128596
P 3.3380483946871733 2.866695283476382 0.9298982674110722 -0.3512916246987047 -2.0992666504218813 -0.38233152472364473
P 0.4428414091208964 1.1744806796988754 11.80648124316152 0.3369754651863487 1.2957236360799427 -1.0205351222934036
P 6.309105135939834 0.22676699586407645 0.6968397744561806 -0.6747610849788186 -1.1119172708518268 -1.1008371017782654
P 1.4807514246303615 6.307429501782333 1.7584410351173598 0.26774902678935825 -1.0884729237859578 0.38183607314446494
P 0.17088228229960503 2.142738008610525 6.970284453077268 0.4811834992965519 0.19751137351903403 0.10241500933381718
P 7.593066752360281 8.512073397747598 4.225290200730751 0.22302751551226752 -0.6270424387466169 -0.5994778988647869
P 3.4904848147833505 8.655316974095719 12.33542617809503 1.8085160205310271 0.04384373665782772 -1.7114324507124525
P 7.059733692616518 8.328771981623202 7.889021700928766 0.03728382405212288 -0.9753176452165009 1.0483791410888654
