# total energy = -340856.3142959396 ev
CRYSTAL
PRIMVEC
9.33226463448972 0.00000000000000 0.00000000000000

0.00000000000000 9.33226463448972 0.00000000000000

0.00000000000000 0.00000000000000 13.65871261233647

PRIMCOORD
 96 1
Ni 6.228194639061538 9.498845360713094 13.370828007396666 2.800047042282597 -0.12586732681948645 -1.8851433793777792
Ni 7.098848250033418 0.36058936571458783 8.210429199158646 0.7001383874013426 -3.0774045386959967 0.3896247159509484
Ni 3.0910979538172776 1.5824254198450811 2.114846971022362 0.9887280050851359 -0.23788746334323543 0.6022066106498597
Ni 1.9528603245443448 3.6599274682560896 12.137623388724814 1.6453368446349599 1.8824131249308096 -1.4058452700293982
Ni 6.638338328954921 6.771080458355897 2.509802400538911 -0.02171630863116905 1.405081138169864 -0.9783196652676184
Ni 8.367308297308405 8.969379337684105 11.912391052907417 0.0846970232287638 0.47835477159850515 0.9803066137906601
Ni 7.2991373094543786 2.8493269789585125 0.3365111902317801 -1.646251386029429 1.8429086390782843 1.4993408653863982
Ni 2.3971227732320166 7.116598216999157 8.134282587456786 -0.4668848232856927 0.5883907878126899 0.2898540862185137
Ni 8.165246107643759 0.8500209075204869 0.9246211630045643 3.4184621443715195 -0.249407548167693 -1.3982648865789788
Ni 1.8338272916063918 6.4895820337741315 10.431007926611988 -0.24880668135890055 0.9281409875306984 1.468576073399716
Ni 2.4902681046121584 1.8009683885115635 13.52107373198215 0.06547776998783561 0.22509776777773488 -1.4439004250299068
Ni 2.024812083380222 4.796923906358443 7.2106114489722595 -0.6895456994871608 0.25071521123552304 0.736607428861654
Ni 5.377306764174533 8.20933172486045 9.986595228466825 2.100587426115834 2.9228521852369918 -0.41644209325410864
Ni 1.2347892371738391 2.7629568715621384 3.2954922763655925 -0.8198931735651879 0.7498426966050054 -3.529413216200805
Ni 1.438521902173326 8.337753015825497 11.753062235342039 1.4751817516416916 0.9742568080521543 -1.8657973707509994
Ni 3.3158282138077793 0.7379544099873304 5.975699959134252 0.2862607124403005 0.49955017472919777 0.8185867960489386
Ni 3.0198927761366363 8.89440392516952 13.428795367968528 0.44364950690683597 -1.367100802271349 0.17743851402855895
Ni 7.484457416712855 9.065044380463167 5.912541993080611 1.3745215202154522 1.4192039507244911 0.042364581009139944
Ni 5.0925793760963725 8.30595799087688 1.2279468208861006 -1.1142533751841712 -1.5676149671724486 1.42554377689959
Ni 0.006951603781691982 2.879815486885466 12.843478541942769 0.7696553604555583 0.1501367408898124 1.29279103581418
Ni 3.302585730566779 0.8845064243072855 8.301861126787522 1.460788201924181 -0.9497122859435708 1.9633830770169733
Ni 0.17698266220737788 5.223763017335792 9.064522706880947 -0.10002002673907935 1.144660269610803 -0.8746414729506615
Ni 8.005412414572154 4.104908501305676 3.007593784830566 -0.551898606423927 -1.4968641217111318 -0.8240079670645098
Ni 9.021975980070486 5.514033770491582 1.2852795874760115 -1.3038969159193543 1.823275952449021 -0.08057965862628058
P 6.062210983723676 7.651458288874727 11.995040386471382 0.8292152222970623 -0.11482623851397644 1.0001341900395486
P 8.044085318413384 6.153723168826739 4.003450921988425 -0.3352870217403322 -0.35895274078838824 1.1391449962195284
P 6.881938427644014 5.26798861851909 9.518360058884522 0.2957506542086068 -0.5018459127419099 0.5564119209132482
P 1.8824577216055822 8.426932134818447 6.200181047664192 0.07494251494516126 1.4075020889065308 1.2745038074692179
P 0.7781568719703496 2.121867633560913 1.0804625133485444 -0.5670601446557136 -0.5742229809527402 2.056988972699593
P 4.060654903329058 5.558175381294915 6.691717015101413 0.539576080302832 -0.9871853431883645 1.434165714240646
P 3.7278383565892526 2.9254689245281527 6.364891782132378 0.6035998914529604 0.11484346490515704 0.824773898696257
P 7.415594637406767 7.616284984198667 9.450422106984481 1.1725544249179096 -0.2026594933788768 0.09722935136781966
Ni 1.8816831436570247 6.406291573643107 5.726743140656338 1.2426838347451439 -1.3401001053127888 -1.857324300282982
Ni 1.47853865209398 0.6459429487367034 4.299885635807132 0.2861817795732491 -1.3606992696203792 0.13715575524911217
Ni 4.798743697924331 7.981577811191242 3.839355183746866 0.9224963876504112 -0.024209507366667986 -0.22630052983658444
Ni 2.731647124364425 6.039832213595474 13.271037170508478 -0.7043819931690449 -1.0396235063834225 -1.5569831984902154
Ni 3.901978411048069 3.7128787366912093 0.7778787704900242 -0.5896611698846812 0.03180994542174522 0.11242688504386444
Ni 6.124102561492747 2.6524815251160785 9.974383960446493 0.9047604038232289 0.5589269740256181 0.9745483711506441
Ni 5.795410875635621 1.0448963203395414 5.050090509325443 -1.2570766131317062 -0.10602278128973353 -0.673508186408324
Ni 1.5824814134317238 7.107312613880907 3.1835181682503966 1.2584552386467875 0.9502517033868085 0.8134924122451668
Ni 6.37970395225226 0.6584556488984603 11.143009309190424 -0.8016918200658129 -2.302630883177267 -1.7746725896190212
Ni 8.582221015107553 7.837879603337177 7.619567141602374 0.2417073513099579 -0.4793094222022906 -0.11306169041438593
Ni 4.892579616873066 6.882526360303763 8.350854581873447 0.4436885876748875 -1.9988558160022865 -0.804229241775686
Ni 0.37411461656813355 8.062525872947715 9.680339239550987 0.34270105481621627 -2.722751967944859 -1.3403297048250917
Ni 1.8061477952760139 1.998999039937935 10.230689937171261 0.22001881059293077 -0.24749336186411566 -0.42517587358268066
Ni 6.46038137833996 0.8090755972880079 2.1719809603796913 -1.2904207358097906 -1.087890054699294 1.827358350048511
Ni 5.785630662502029 4.830800026277281 3.326224356394442 1.0586306436135444 -1.2488840500185847 0.7459667585893669
Ni 1.8072116734222252 3.1713087666829547 5.285429687531849 1.7322457879133781 1.1941938575645563 2.7828286215217815
Ni 7.525034102499937 7.479408661650571 0.026835859624961017 -0.6376060731950761 -1.0666488859323309 -0.21416055203994086
Ni 0.5831974687713308 5.238526659680587 3.5244939137904883 1.3064909018987756 -1.1173039890850371 0.1641068299166593
Ni 7.542513433796902 2.248711771835524 11.867249023356067 0.3711881065123156 0.7296669929880788 -0.9002342338181013
Ni 8.77875850422345 6.703934815706852 11.413329547425416 -0.1846748838759981 -1.3006768663201598 0.24788931175095374
Ni 5.059076546755153 6.263722569786335 13.51020071068258 0.3421883768458558 0.05412557819981001 0.556149668390797
Ni 4.05966568329837 7.5586862480722035 6.268229120284629 -0.4560586792044662 2.7443600331329385 -0.7266670298194905
Ni 3.996168956045541 3.3595498727112925 10.491380211730153 -1.2824510873407524 0.2614876192606787 0.7820647898635048
Ni 8.914272316163242 4.226890529806812 5.3243302986254255 -0.8567381103076793 -0.051313048451679374 1.344085058102466
P 5.188935006444029 9.404776135153348 7.696589119708749 -2.709087840194205 -2.0304449036624774 -1.7194897737992902
P 3.375993322655367 8.371927768206428 10.501624238406437 -3.113773564243334 -0.93880540922308 -0.2817332568835922
P 8.958656565842025 5.775626475021865 7.01463669540212 0.5850686654179923 -0.6304563495241723 -0.5679754573811314
P 4.592948602483505 0.9375846115387949 0.46069469991441814 -2.6696921120054022 2.515926773224067 1.5449933731181908
P 4.176860260141554 4.325905855519998 12.487545976183968 0.5500294144256721 0.8027508574579465 -1.0059924485925387
P 7.741393321287354 2.129324112848834 8.742450396191433 2.277497578444749 3.8349734003006657 0.6834179893228682
P 6.893482438756853 5.156561381100105 1.0210682495437378 -0.5407580164260751 -0.8113416844507512 -0.6692576386620861
P 0.7591638473811436 1.03390291282869 11.755398101131485 -0.3760786018353975 0.5649819219704464 0.8449873975296546
Ni 0.7328375293946311 7.811982569514925 0.0049731637203163604 -1.526258515712849 -1.2534310459593188 0.18089741911143686
Ni 1.499806882753768 4.277284757785248 0.9909119702308644 0.9581635020347177 -1.3520361946287425 0.5447488827530231
Ni 6.103683566897041 4.463510094694448 6.454451657514498 -0.5435121821324446 0.6706470628104451 -0.94906282528503
Ni 5.169038618656987 2.2830731695052644 12.260005771370444 -0.12575034162564794 1.1818456204118484 2.3275407590450694
Ni 4.365726627887402 6.52741503381572 11.029983454872788 -0.6160784835359454 -2.42536506368441 1.0867045190316251
Ni 0.38401148300723187 2.842430435537019 7.773965723863861 -1.2233846201958996 0.4487816859270788 -0.39616277417978224
Ni 5.067568907395964 4.166184149621678 8.56931262693352 -1.0745840816190073 4.275451194347739 0.7523726621157106
Ni 8.623180323736692 1.4010435281804747 3.3262383547911023 -0.7059382819125714 -0.5269416793682731 0.40563780354975304
Ni 5.401785293801837 2.8155161848907584 2.198192491513586 0.9139932352754065 -0.2248434856750837 -0.2155260649288998
Ni 8.944910140321243 0.5891785170512159 9.856877685970998 -1.1019514178883667 4.307243656267989 -0.45242211089314344
Ni 1.2183364549653242 0.6232142186919849 7.807948231597318 -1.4817555482044673 -1.2352512897264984 -0.47053887509851217
Ni 4.02368047161599 2.9050405976680054 4.1141950376503695 -0.038454704431772485 -0.04688303770478377 0.7825700116346974
Ni 2.68188749036794 3.064491667897552 8.336144133435962 1.1986842892357419 -0.06569914197002233 0.8146139274441196
Ni 3.941687196242188 0.9882308106571228 10.84034624208416 -0.2498865446866406 -0.00022445730598025858 -0.2151684244791649
Ni 5.488379375544782 2.264399308359922 7.805435052783506 -0.68703270325732 -2.6645727885009656 -1.9432364268657691
Ni 4.033833975327202 5.754386241155399 2.1990249295016744 -0.5221841100786297 1.7301297700116398 -1.6266847767514117
Ni 1.5937081275535865 -0.2877333104544306 2.023756604272007 -0.09249929288200198 2.388966470450718 -0.7184801231333239
Ni 4.143796047229037 5.683479695936852 4.594776793087389 -0.6740764002069681 0.08227170161672283 0.13173561267480538
Ni 9.444998194891692 7.622285630233877 5.38053572767093 -2.4582008792675083 0.40908693844061805 -1.3793233124794697
Ni 7.381774511074573 2.4788080838792848 6.525408596961023 1.91531321809294 -0.8699006158315664 -0.9203826837415181
Ni 6.329785669760288 7.196286423056168 5.883900340286423 0.13892107467965106 -1.577470776920606 -0.5443783867874818
Ni 9.240920236107907 3.407676360430698 10.348482712165078 -0.9635396787449663 -1.0221058092146331 0.023653377752881843
Ni 6.707817037714079 5.056202209307494 12.36495921694709 0.6161563879617323 -0.6039724443010308 -0.8413798826840542
Ni 8.849245097542179 8.05956754512009 1.8206380022727024 -1.2325865984101418 -0.1827367863130208 2.880339508685762
P 3.7275117273338365 0.46389566661749276 3.973701529405155 0.15232654945227958 0.4779377386657446 -2.044756178078827
P 2.6669838640565398 4.6049125654961625 3.2827761328390337 -0.44727759057772654 -0.7805743213609072 0.2114272122691778
P 7.229985229950637 8.605318369597668 3.8542429452087172 -0.5462856311125237 0.555451870992824 -0.8339671351597508
P 2.8935712446706905 5.005406693958119 9.760133833422618 0.8110480644697323 -2.1875853295636327 -2.01681754268703
P 6.7380442422367 2.813976361258084 4.292031602054049 -0.3318108902662737 0.8398202515064181 -0.2757616126811896
P 0.4251481046607401 5.300903515200561 12.897566480186736 0.2481793321875468 -0.022096574788723233 -0.8343003501294534
P 2.3291932203699734 7.243834310380265 1.1948686095769219 1.753088178580026 0.2516685762877278 1.5453710681725836
P 9.50761768928712 1.908522736187762 5.446042624684232 -1.9423630231218807 0.08872079967617623 0.9187389774905081
