# total energy = -340858.9149137464 ev
CRYSTAL
PRIMVEC
9.33325291222230 0.00000000000000 0.00000000000000

0.00000000000000 9.33325291222230 0.00000000000000

0.00000000000000 0.00000000000000 13.66015905669686

PRIMCOORD
 96 1
Ni 4.68168100873595 3.7685528737580083 9.18860152273178 -0.1585221367400302 0.009383240987112873 -0.2160109749851183
Ni 0.642555265495977 3.4400410366535312 11.582148773122153 1.1650336910608323 0.29932783003690383 -0.0722639396717336
Ni 8.377079845922992 6.537103694140198 4.939158391012923 0.470140611218829 -1.2118750768944033 0.054831603127899115
Ni 7.190786063795387 1.6118901163501216 12.450060097564837 0.06282259175317567 -0.507242658277449 -1.2824829690199524
Ni 5.285477141408259 5.432111878403215 7.166884536332439 -1.2119743214764287 -1.225825111316592 1.0544924530754547
Ni 4.344218582058679 8.564034235633764 1.4980001639820584 0.009252114725887292 0.8459621027380979 -0.03679377178958179
Ni 9.070689871670373 5.1597208912478605 13.089724854624219 1.0440879699126793 1.1583753052040502 -0.6174630225882979
Ni 5.390644235575349 3.7635409169273615 4.905882544293548 1.910002604513304 2.4474356703312043 0.8202580131037744
Ni 0.21295123245953143 4.488193341964744 4.9468079251253965 0.046256202754062274 0.10811385949080735 -0.11613004492706451
Ni 7.495871436011738 1.6471698124764618 2.6701102016114624 0.49285039411151893 -1.4963660990287908 -0.8346317653269433
Ni 6.117013979154332 2.022011917192355 9.731674578428539 1.079132363111322 0.4256708109412282 0.8633769557804357
Ni 1.258103830274711 2.8292076312618417 3.333925683987384 -1.0926679357039117 0.24675545525682666 -0.788503346399997
Ni 8.884855472312818 8.635433620651357 5.6921745717455305 -0.6101387210127428 -2.704121754438182 -0.20975470966276133
Ni 3.9245955297199875 6.727380721898848 13.344882923544738 -1.1589350343622622 0.9291833127522836 0.9645874032831904
Ni 3.384181517786826 1.7951485378952778 1.5582827114186772 0.06321545631622016 0.22798640217943963 -0.09023080856279944
Ni 4.417008621764851 5.840973690098079 3.6528084040300763 0.23527213720757545 -0.2058728581098519 -1.2570254481787964
Ni 3.8426962351409837 7.5593188895214904 11.016508845133364 0.6987451065982417 0.47553581409247125 0.24275121919343998
Ni 2.297240213242526 6.924293692500309 1.708640483012785 -0.22956480241015303 0.4528589413202459 -0.5071827515737911
Ni 6.454429739566884 0.4859208812973812 6.972800474698144 1.6046049141332366 0.11446422718886737 1.1036596588287253
Ni 6.15193901166882 2.1001779105939686 0.9090000372010425 -1.0760822634310885 -0.6427130554043382 -1.4924947889988425
Ni 3.160538110755248 3.85095616399596 3.984476747280037 -0.23676929057839222 -1.5522045461546492 -0.7026611538231964
Ni 1.2656730984118703 8.802041518945353 10.917677163064306 0.045994721562559494 -2.379655220352121 0.25507477375579946
Ni 1.1913804049817995 1.4116545077007823 9.73010379195815 -0.04417309497278844 1.7867994547895423 0.8743661078020877
Ni 7.750809240162793 6.17046551876162 0.9388505800901625 -1.0404871399352984 -0.4609635727052513 0.22830676163333585
P 3.785408728573927 2.6343853093197183 5.711598937771494 -0.7310253067881862 -0.259666764001856 -0.586045684619281
P 8.406199595106639 1.01377793472039 0.7170626237437479 -0.7828960275155485 -2.9128025143104734 0.0020396561378481
P 4.68970760626734 8.693309122153854 5.795267817108581 -0.24926253794939654 -0.067206065532852 0.7968023531839954
P 6.190046683437033 8.837526546636449 9.165078925338337 0.4949514996149218 1.0461499946480304 0.8451504054700799
P 5.25769204739553 6.5902379031474085 1.4352181714071766 0.6414123343150437 -0.7322411814731582 0.7446662946103885
P 2.5862350573843242 9.010387724402573 9.011989310607673 -1.212578273609015 1.0100398791890346 0.5029062356856242
P 3.833904310868229 5.588723862794746 9.757888885970878 -0.843148801659019 1.6321362867842857 0.3452621306751732
P 5.543354920236508 3.2034617410422954 11.577052817015016 -4.051527649383765 -1.6820282865187226 -1.428890838994952
Ni 2.825408997313847 9.394945745432624 12.955103880818106 0.40005156771122713 0.1747951628684409 -0.02355644716370137
Ni 1.453019484746269 1.0220938630930272 7.551048694088276 1.2867376305312483 -0.12928175181767412 -0.757669648848592
Ni 0.9917047915090685 0.9921434543974119 1.8375784391016152 -0.6594383385788191 1.373009197335984 -1.6529437104479405
Ni 3.621348808333501 0.903768748926224 4.151827572508332 -1.8164843834484847 0.7750490206673039 -0.4208865021787074
Ni 8.637888266175493 2.9728370608089976 0.31163451580678886 0.5345863403977246 0.8619847034185993 -1.2011600044697444
Ni 5.691725642278949 4.540291559895229 0.13511190291093952 -0.26251168964981886 0.5214482603538697 1.441823745006536
Ni 3.1907965167979984 7.9793339384838085 3.9010682657000726 3.264633813562732 -0.19814309356576196 -0.6966074914299487
Ni 5.76443168270863 2.596604301404527 7.2494054255574785 -0.5398216206547348 2.2303096079050366 0.3181827579598778
Ni 5.363605801798099 7.986707208309154 3.8958911102923266 2.9918446532463054 0.9163511939846218 -0.8886097622052955
Ni 4.365815729369884 0.9919754558444294 8.524444443298126 -0.588396958460277 0.04846735147276814 -3.437728963020932
Ni 6.832221152212917 8.28946860054258 1.6860054779742666 0.5509300718630705 1.4026028518327005 1.8961225040971021
Ni 7.071161760818852 8.519971948487612 11.362082801943812 -0.5844996802883998 -0.06841731223213378 -1.0611215283561983
Ni 1.4268023772280443 7.280543957352799 4.6242367035194425 -4.738626687102645 0.1585005394734754 0.18833304945387566
Ni 6.7282113814108175 5.767240991844616 3.1309358323944245 -0.03204751535384803 0.5955829346857549 -0.3044533241889273
Ni 0.3137858306102601 0.9884941524965127 12.529684878401515 0.41840307363522133 0.6761548800025516 -0.032042116037209335
Ni 5.542962923612882 1.5206389023217544 5.183743750999073 1.5231611077344478 -1.466694540106287 -1.3406500642789878
Ni 0.22847429875512112 4.515577106100904 7.555502522392903 1.1502565327516576 -0.7172683622134098 1.7096252223003845
Ni 0.4860963464527186 5.635007464141444 2.9975720477597982 -0.23193587374549088 -0.2566632012888418 -1.2941372654294292
Ni 8.675258610961171 8.015304295327967 13.126374672282662 0.5795220245681503 -0.016728625608590543 0.2140721060911926
Ni 8.151476455773285 0.5798498055952318 9.768298262978739 0.1286099225616301 -1.610948596963077 -0.9578228308658473
Ni 0.41319337438593123 8.209127959205137 8.054330359185817 -0.36047817629397916 0.6004412912193208 0.07755578419829223
Ni 2.2178608969582605 6.067911735418703 11.48334415748663 -2.6221611563039744 0.3310467584067396 -0.680028761135661
Ni 4.647969299104115 0.4406172715097475 10.464432933647329 -0.04163952991765732 -1.505738541382626 4.953989229870487
Ni 6.152405674315994 7.7765503517809 13.30423007369884 -0.8156595950998147 -2.094639178952199 -0.10412633559796905
P 1.7556128784267122 3.710556039967247 9.207411760714063 -1.0272783545545083 -0.16221578354153354 -0.481333651721171
P 1.5919356215569693 8.913275227525702 3.0928234939997394 -0.46403501254172336 -0.8161339636330719 -0.32293415660193414
P 8.00605504166098 6.166022890360526 7.139796636314588 -0.034339910932450535 0.7721102497539541 0.30123790257542316
P 5.443125116876516 0.8948508257387324 2.943162916400509 -0.41985703247292855 0.027941720715590587 -1.3839289295722812
P 0.6925731013453605 4.1874479323671085 1.354229802315456 0.29379610158539726 0.8311412356751815 0.4372775419422211
P 2.2960642233716477 2.347509113596089 12.642258842104548 -0.2849723326461802 -1.5555845183704757 0.4449975362942981
P 5.450666385254845 0.37111160351438555 13.002176142038529 -1.633216664332658 0.5224581896756227 -0.4145227647442087
P 3.7338425060612206 4.003470850345305 1.1002057236275686 0.1811920675337202 -0.46899158521605033 0.007325072906503513
Ni 3.0345391960183186 4.513691789006321 6.96905784026781 -0.48333062754654177 4.552190597561166 -1.540058654820735
Ni 2.1073178490957276 6.871383481563743 8.99362986874256 0.6116852395642561 -1.3149038085528193 -0.046739313038067894
Ni 6.034722687951702 7.654947399180348 7.382960541877446 1.6225661265973474 -1.7843669340886494 -1.765636704668998
Ni 8.083446375068286 1.2725983720959297 4.733887492400578 -0.22279328801427437 0.24383056830054783 1.96817432775803
Ni 7.796924842956509 7.328675542782305 9.131078818190547 -0.43169413431717263 -0.32127193840816287 -0.2626926953123734
Ni 7.6904977596420485 4.179430668088663 6.336360356530733 -2.0069149388613376 -0.9179046545146707 -1.3149940542737804
Ni 5.121127890326586 3.2756637858130273 2.659796957108921 0.08952761184818775 0.26054530995206737 -0.43562586527141106
Ni 9.217949936612541 7.76567711210175 1.9361226569800147 0.9027528864748968 0.8021322500373412 -0.11001004807225569
Ni 3.0854800905838125 2.602120253894121 7.631302536173345 -0.03707119382068454 -2.712354683870935 2.963519323939051
Ni 6.160226940282627 6.262099396160671 5.351749770584002 -0.1816216988719711 0.3812547467196982 -0.1591299455273582
Ni 4.153316226352817 4.959485282598521 12.032592093330793 1.3317044250499257 -1.7648301496073024 -2.1409840847653254
Ni 2.160694722679468 4.486774687517336 13.202584415867323 0.023512738409959502 -0.4470973562461203 2.1526687201921053
Ni 6.885122029896539 4.639737370007968 8.558089886834065 0.0201888162430491 0.31251167571702954 -1.971485908629766
Ni 7.560224215057007 3.856649448291481 2.097366734807393 0.096860140953859 1.5311109587091436 -0.20728207975255267
Ni 1.307896734728157 6.320562892598605 6.629179967728768 -0.24928079278184165 -0.16590043148197237 0.5048816142444402
Ni 7.1920553861957 3.997758899543898 12.135508006887918 3.846255400972389 1.8471812983117093 -0.4341896470455167
Ni 8.555130312325689 4.953810664808887 10.027294165509614 0.6733590624249693 -0.5682294823734665 1.1039959591222213
Ni 2.663262393926834 8.290196594272171 6.7662042541678264 0.6594892464214126 0.3937402807812187 -0.45502535284394535
Ni 5.982643136527105 5.962399310892705 9.939377722757952 -1.2175356176142902 1.5214443821536572 2.2859868468626825
Ni 4.2682552363517265 7.809244736841897 8.630229398810076 0.011103051891697007 -0.7767886290662299 0.6012023377550614
Ni 3.044572442932556 2.7273165088779114 10.64842214889796 1.1368258611680488 0.0693591073201128 0.5283444732530708
Ni 7.922466428299208 2.7758120911722135 8.512014417028006 2.161744457241128 -1.9597174552399281 -1.1538589053909354
Ni 1.433830316694482 2.9108362615054846 5.881942003893467 0.6552916634002972 -0.744691234311053 0.3561360972751995
Ni 1.0811640209722884 0.7917333139180295 4.838920187725284 1.407952289070072 0.06723049101288421 -0.21631796470257583
P 7.753553216528174 3.3497418144253985 4.1578792537168825 -0.15844834607930133 0.7633936958165626 1.137620589155202
P 0.2816029078105653 6.820311921457041 10.087371381381477 0.9597763550477922 0.5263750082315257 0.4099415731314295
P 1.476044619757825 7.3072557272770275 13.182641120977703 0.5513712731655472 0.37023114191568496 0.5272597248293243
P 8.483077599602051 2.407913926646267 10.638969430316807 -0.7970175545185951 0.41429033701842843 0.1371750385228218
P 7.867922898097532 8.155993750197926 3.640937439611269 -0.1886886330210815 0.44018931627237734 0.4857384656570861
P 7.09827486061965 6.261866064837083 11.973962464990464 0.8335472740135127 -0.02162066359356922 0.20308449673143733
P 8.931615069559633 0.9485664964043213 6.81243092267157 -2.160748926097079 1.8487044198244547 0.9620620657581753
P 2.6681996847339327 5.652479313651632 4.782968269654438 -0.9407136819893863 0.22662088929048066 1.891995626412922
