# total energy = -381170.1520321314 ev
CRYSTAL
PRIMVEC
9.24140191370079 0.00000000000000 0.00000000000000

0.00000000000000 9.24140191370079 0.00000000000000

0.00000000000000 0.00000000000000 13.52572583591924

PRIMCOORD
 96 1
Ni 9.006799834995224 5.573914691640002 8.647510757119356 -1.342411784165101 -1.152680568812118 -0.06128507206272671
Ni 5.861026571085231 7.417713025215216 10.466301856698857 0.05179564451505273 0.7649450994640826 -0.941102947008005
Ni 8.48032640058956 8.272903131175752 13.30163147336282 0.24475899365208814 -2.067734898362187 -0.3323839891609243
Ni 3.29711970557584 3.551674125535889 13.24843519063942 1.8828466129238026 1.8506600008889287 -0.33569634136360893
Ni 7.831616941031904 6.782782496140785 3.2548171876100698 0.9297366141525923 -2.174660136861532 0.05847177098364769
Ni 0.2228379280630484 0.9852258744578273 9.373098516339589 0.08880693163207931 1.9277360172373255 -0.21341261813032278
Ni 8.811233284434522 8.407735187346278 4.780235357843346 -0.847288020638373 0.7431933096092878 0.7325975363713124
Ni 4.838012603571799 8.325209466880015 2.568683746238284 -1.0537260072230756 0.29340066591919145 0.751231606532732
Ni 6.760954304456427 1.0657000036650195 2.469094700993867 0.22092178202317436 -1.1702730850829006 -0.5138856175152634
Ni 0.8591953296167611 5.295785455004764 3.1459756506152803 1.222669853517062 0.33237473318954375 -2.0770883145526295
Ni 0.22829774840475825 4.343634558547918 11.04568971106485 -0.055161475663492096 0.6580674263732215 0.3827274746104828
Ni 6.860548894542085 5.5582967221452675 0.3632998463733327 -1.2031832055473601 0.24494231330748786 -0.0428741736557068
Ni 5.348285860152452 0.11853391948359325 0.40299074411471647 -1.1787081032241313 0.3245038150818992 0.333574924145232
Ni 7.977991508385226 6.743229295290213 6.717592721813677 0.6383105554612685 -0.07744548387267307 -0.32721761446863645
Ni 2.815143622127068 8.345004550109437 7.4180087500813885 -0.45833256284030743 -0.07833842800058767 -0.105517816628857
Ni 3.0089080992845325 2.62809764427296 8.282681458703788 1.2329763776493927 0.5759780159706338 -0.15190694541635774
Ni 4.907249187864436 8.709744206924947 8.468525130148864 0.7778952318668474 0.35153767927123974 -0.21190415190559636
Ni 7.806471086005174 2.0263622314263934 7.427747339580531 1.498718401311051 -0.47843576134808574 1.0026379302980089
Ni 6.769641222400245 8.976876175099395 6.760915490567742 2.2903500089273847 1.25918826015807 1.1078646980490081
Ni 5.426551294265418 3.6574604550070338 11.113236967059478 -0.5567600482812863 -0.7210697382373711 0.3526743639788442
Ni 5.372100953281406 3.628959971029659 8.750455355454624 0.03294354480555617 0.6346536754349714 0.6981542670917782
Ni 7.144075109984972 4.409710583333337 7.292394992473584 0.8579439576903225 -0.34710149787675704 0.6486168224832829
Ni 5.2131673205178215 1.116047162130888 10.212788942751859 0.16107138552444517 1.7866765560584326 -0.40013075768859474
Ni 0.8922924869827049 3.3981097473737494 8.665513008347608 -1.6848282178613632 0.22513993386958 3.324869361315022
P 4.955692617504319 8.302290789751645 6.299309305557016 -2.5670320765403143 -1.5950758915968788 -0.4096340691933396
Ni 4.4153755628009534 3.894446969636023 4.221392988554687 -0.36288524307357506 -0.389530099354613 -0.47816013908919597
P 2.785977757200805 2.9421297279419543 5.882757728047876 -0.6163962718866803 0.6805630363725763 0.059235388622549595
Ni 4.43558650912343 6.205204108299684 5.452057563972796 -0.3022241777480924 1.0992247629858232 -1.3030507658689752
P 8.93510503775253 5.527606025877803 4.753697747665192 -1.4366044055891258 -0.07473039893435517 2.6522759734114842
P 1.7993287068245225 5.22855425496086 9.039283363263861 0.6852303599412586 1.0506892772792809 0.44284937960304377
P 4.5211988578803695 8.866404454779829 11.426357848484576 -1.1039774471794601 -2.086418590814619 1.4229045395045299
Ni 5.962709718038233 2.299695180388397 6.182257706965111 -0.6790861947167338 0.8011693719034395 -0.3674188692778705
Ni 3.1942444177560803 8.278605076251642 5.0508171414097385 0.871289525759293 0.6540706465090026 -1.5309510360925116
Ni 6.452947614935699 7.598511815271429 4.886668585459244 -0.5205427178204648 -0.986284942861282 -0.6186873819137022
Ni 4.456850975281647 4.166116466225805 6.499828323485901 0.2217090538111601 -0.530252488909061 1.230761372275945
Ni 8.158540780585605 3.2042713389997415 5.201385457021468 1.2623944258001936 -0.24450805398354664 2.360898251459592
Ni 6.616141534052581 5.070517038197861 5.2376755188018675 -0.03130986585687511 0.3701722636532915 -1.0352603443187203
Ni 1.4341454627097536 0.819453604164004 5.133053605991277 -0.3678932378111277 -1.2492805141260548 0.29943015994272304
Ni 7.150072779927034 5.217178089015287 11.286758152987227 -0.17352658056866244 0.2163650158904274 0.9902459843915591
Ni 6.592002991851249 2.952193614793887 3.686314884683609 -2.2293986660549927 0.31847406394805156 -0.027019723121953467
Ni 4.422676270434588 5.81783225781991 11.230451214327777 -0.31835579320263235 0.4283591564066688 1.6178370965527946
Ni 2.983503484999901 4.637113764017923 1.9813704654588675 -1.4221517204989054 -1.32396309054161 -0.18124117560410075
Ni 2.24530952921886 4.944760038858004 4.934523337787402 0.632417329905285 -0.16044043680866563 0.3785316913615803
Ni 2.9078441262700796 1.7625848922025893 0.9374912603565515 -1.1891177285932293 -1.8937151802071903 1.616960864595428
Ni 3.1684424231825297 7.630912170921454 9.694848094875478 0.1798512372351096 0.32171108282811045 1.147565873293372
Ni 9.24879518954501 9.224518026312662 7.106809156146204 -0.4748439302317693 0.30485441628208787 -1.086267945714839
Ni 3.007198439901973 0.7829001624246692 3.3669181671142043 0.8187104661109964 -0.3590874665940396 -0.8644776450437822
Ni 2.8970409272527156 4.111305710561147 10.884922584130997 -0.7395842521017908 -1.4956683016308177 -0.6262235423897473
Ni 1.7506265179267386 5.3379447312384825 13.144110850975416 0.12499829395097183 -1.608391120648546 -1.4213330812523521
Ni 2.7884729357591356 0.8171099845995868 9.937729699883574 -0.5424498023062012 0.22266730395937137 0.0177390691509759
Ni 0.6545093634954636 1.1837496736802555 2.605758403054248 -0.5536454139117046 1.1264265202115955 1.7708426743499697
Ni 7.817680906713526 3.486494516751056 9.48717438346563 -0.8955645962565738 -0.6083204368570814 0.4969009100318087
Ni 3.263619623079736 6.4542506526272705 3.283965493872404 -0.5588207874650569 0.7646689629845604 0.5958053351092062
Ni 7.671786892267734 8.808313001381068 8.99922003701914 -0.7849791352968223 0.8638950330674348 -0.4865205952387492
Ni 6.831826616915081 7.862788190206899 1.5195073694706536 0.32778222872285484 0.30873961026910696 -0.3047230329105462
Ni 5.479578459330974 5.791762262586391 3.2541139169127034 0.666064328535769 0.3536783797633264 -1.5206488828355553
P 4.9444735553939 1.744684296397085 8.059858316884048 0.21153288460910666 -1.7759290877339413 -0.4530255488050972
Ni 7.095271265664441 3.3975645046517435 1.133783260979584 -0.9072489745730374 -1.007351533723594 0.6204838116924927
P 7.773266728375242 1.045867954827326 5.269270948331779 -0.05392297527070068 0.422525323333711 0.0728969452700422
Ni 1.2512119087758575 7.775105767386753 3.3436945237175952 1.1736697694692755 0.619858519403668 -0.034942834623772075
P 7.286217115191199 1.3986399959649178 10.234362071739143 2.012965001710159 0.7352290604568886 -0.024388456146693483
P 1.2255115696250534 2.4807250054963075 10.798520095497253 0.8594534523563133 -1.4887867440196358 -0.6907898563069071
P 8.917684994854556 6.254257470476048 12.479132827217446 0.0996731849226219 -0.742263855816483 0.10886282184168994
Ni 0.7947846054839766 7.528609850029904 8.223249077864976 0.6086449100760356 -0.6726247553621062 0.47896335171678156
Ni 0.9927853413493619 8.381332501638315 10.360259540390432 -0.11642906422472206 -0.8024271555699407 0.5700169132911925
Ni 5.492544146432226 6.259173896376167 7.512648100378244 0.32309845009394034 1.375543019501431 -0.8467509171879803
Ni 1.323110016864047 6.712436943600001 1.1573183396258813 0.273453019152671 1.6981105367925657 1.3233516822098563
Ni 2.7291338930812095 5.706297776262537 7.086182346730672 -0.8459988695133044 0.5812132962276442 -0.002836441007530599
Ni 7.110427165055783 0.29198764317624737 12.162724779076797 -1.3453592968291992 0.6109864137250187 -1.4873929489959028
Ni 8.686280287074572 3.4177939337783565 3.0644017945620097 0.707713114424807 -0.14884681843379527 -1.7418835681134581
Ni 0.469907736488313 4.510830004760197 6.692529115265351 -0.07220429007839178 0.6149248295474764 -1.4335787313889248
Ni 1.7087075181467866 6.246698003584513 11.026036945427276 -0.6147211981771026 -0.22438557220205868 -1.0388467761183982
Ni 8.872300469299145 4.981078748984815 1.0833353712311755 1.3422071243534628 -0.6231384757065205 -0.3298416823550448
Ni 1.0056678558320016 0.5922500377640839 12.158992176781576 -0.29152761726619475 -0.38925139177192963 -0.5195811252381438
Ni 4.2335602185172725 6.50945878858085 0.9334481469518494 -0.2554385848531214 0.19470604285975499 -0.11679158977046337
Ni 3.8745964379941937 5.527070024557865 8.945400883796367 1.0457183064272506 -0.9588029353909293 1.9363422708490974
Ni 1.0904946854131703 2.0671260559478593 7.075076953865686 -0.04906050497207679 -1.3259785783097422 -2.2159795644356093
Ni 1.7558756343013007 2.790071698316881 4.026473336138737 0.054024533845571474 0.8096162171192121 -1.3676250502059348
Ni 0.9664473454558735 9.172867830155221 0.882394945367994 1.608119097934082 -0.850971125916915 -0.7851336585968155
Ni 5.432336411959917 2.271093040988275 13.102681645505061 0.9592821890201931 1.0657304878831193 0.7027711970384993
Ni 3.518488250710093 1.3678106786664344 12.284470085778981 -0.8396937532308829 -0.837588533962422 -1.3578499730970421
Ni 2.6014546821112314 7.771510861982343 12.513974761293806 0.9509009069350334 0.9459181090084613 0.09175958650250003
Ni 8.180840283775426 1.2909776618739912 0.5574127243887564 0.17706313296701118 0.4855322631835509 -0.3436757600246597
Ni 1.1072955543725955 2.712037299255612 12.921694330846663 -0.6996809881489499 1.356894036941676 1.4034320326022152
Ni 8.173391713708707 7.0153238963751186 10.141318711579412 0.9193550138079521 -0.2321096803191938 1.593751002137868
Ni 1.495914994131535 7.069524719503298 5.722424022871007 -2.291199501411873 -0.1795437332970198 0.1506563608387083
Ni 5.51671041283976 0.552336422232864 4.6416642303961515 -0.15123717304284276 0.23746503109383618 -1.0399613493388156
Ni 4.648757930623466 2.527532706970174 2.280328898214925 0.7598309181659689 -0.37591045168864934 -0.0671268755554844
P 8.716490430434506 8.551753197172287 2.474828990976993 -0.9354035826303826 0.9873699483953445 -1.1893280448318226
Ni 7.590092897987581 2.7822627135695135 12.033824778893651 0.22912925753463118 0.033786095311509556 -0.024255787223571128
P 1.2144034043394487 3.1977007021294717 1.7309950075139184 -0.007594010297174018 0.39534413493322884 -0.3553290279928719
Ni 3.7066894038226876 1.0638332404473057 6.342185714591201 -0.16459302552445848 0.21367949863846425 0.4035544386581631
P 6.52045605704164 5.565283222108593 9.175716954412751 1.182948366557724 -0.35992230379050916 1.187621603663677
P 4.98408220465688 4.450261855607241 1.3293516598207002 1.6371625363542837 -0.19175775886470844 -0.7088174032325794
P 3.0607708476895352 8.585863212204872 0.9861620284873046 0.9741585919113932 0.04370618263869892 0.949890720502964
Ni 5.871737356081916 7.315928222839467 12.94877256304579 -0.14019454207543597 0.7741326795006216 -1.9368035267562322
