# total energy = -340879.97258764325 ev
CRYSTAL
PRIMVEC
9.17767547207326 0.00000000000000 0.00000000000000

0.00000000000000 9.17767547207326 0.00000000000000

0.00000000000000 0.00000000000000 13.43245574703243

PRIMCOORD
 96 1
Ni 0.5344545832295056 6.22431779358894 0.3898970184231213 -0.08215780174667786 -0.8285413361584891 -1.0289061199659182
Ni 6.48347699078294 0.7204897341184224 13.22597184255913 -0.8496922592044914 0.08167314880077547 -0.3621069701466538
Ni 7.758687450890404 7.66407479546605 0.611218495587677 -0.038512297142585285 -0.98687681080901 0.7570294441614317
Ni 7.018838328339338 3.1552664380233186 8.292042548610176 -1.3954487572864225 0.6232845143660813 0.324247476096719
Ni 3.1858189193413593 3.9950604453906853 2.1581120087036787 0.049150750693037926 -1.0275493488277077 2.317775452128189
Ni 3.3797431999812484 4.2475658279389705 10.161867254019768 1.475572302211891 -0.1326972052571263 1.240110931811645
Ni 8.114799610728975 0.4615728275542812 1.7680204235626413 0.04234504062511417 -0.1380021624098075 0.8736153456789921
Ni 7.8576503244417495 4.664838016465862 1.263847580227661 -0.9500827819091121 -0.17547650520618166 -0.7083083248066446
Ni 1.963370914955557 5.387607485147036 4.033282710018273 -0.5365475778891533 0.552198654162849 -0.4574565879932573
Ni 1.2783033367082994 4.455522774224785 6.924269725756775 -0.6409266529278768 -0.33154400975813225 -1.7179481403437835
Ni 5.354219102138616 3.099824101092624 6.50834757327731 -0.30764020655734114 -1.513921591414051 -0.78329506272618
Ni 0.6313928615934794 8.378813798195502 6.270901838249233 0.4312753016121992 1.6279708425526866 0.49617868715380353
Ni 5.808293768912832 8.882980217157721 6.6661788099762385 0.19281962447031956 -0.18454607160761766 0.7546056652112875
Ni 4.94433494228731 7.806659160067153 1.1619129753904094 0.2248152035403096 -0.1837919670504125 -0.8547313642902956
Ni 0.8270241898528209 6.608908280111164 8.117730042475701 0.4373114805039501 0.3995730854129118 -0.21103254793392046
Ni 7.1185170605698085 0.8273261353726057 8.71466807518237 -0.42670850817712325 -0.687546409668945 0.19818705942981996
Ni 5.636827259911646 3.909148226220311 2.465446659467716 1.6473104234215632 0.3215375333647237 -0.5734753041534382
Ni 3.730110135036072 1.0583787017355748 6.857617776125013 1.4181860509829383 0.3243166387717576 -0.18814407337152114
Ni 4.66224073433519 2.69642855773031 0.6548041937034791 0.7187665440254911 -0.19040690126376886 0.8133594862117283
Ni 3.0687943806551674 3.1243284943395957 7.789937435536823 0.40414142150988464 0.19692361933636407 0.37533092503609555
Ni 0.9029134697479075 8.583613624152866 0.9790000696635224 0.7590593301072669 -0.24926176661844812 0.29331684795613355
Ni 4.34086607578493 6.324271856080613 3.1408308724285017 0.0022556288033961157 -0.1448801204765634 -0.11472185172562822
Ni 5.003163841430788 7.033669451742748 8.8104279400284 0.8649797814911814 0.38234206624660605 0.9021455919082011
Ni 3.4546054980020524 8.333476081850918 10.625945586950987 -1.034449675491967 -0.039830501733376565 -0.20788063256850006
P 9.156988893105877 8.39391107418474 3.7271567591009127 0.1874856138519158 0.5835422014711369 0.3455601215315661
P 4.395381467502911 9.142717607900243 12.691172178735584 -0.5347730024872338 -1.549800821809163 0.2309071753706604
P 2.350769770142039 2.243198237090447 10.113778988365777 0.21506969411777155 -0.44275784833050197 -0.5079139733128607
P 4.627595009800615 3.225650030461904 4.139976857304169 -0.48540087981200924 -0.6441477309683358 1.6172889373588082
P 4.219399542218014 9.423728850158302 8.808010540335047 0.38465374509891825 -1.5004117298530741 -0.3863339610148185
P 7.268544519898738 1.4644174156054277 6.437463797530874 -0.6987451065982417 0.7347518637101539 -0.4370870231979698
P 1.7668585298603692 1.9716124674408677 6.386004571712235 -0.11710115059108221 0.2975871931967133 0.08640603550007055
P 6.379576527880707 6.608366797264134 10.515933710017608 -0.2189939688728422 0.4529995806631682 -1.9161969062494744
Ni 3.458873117050682 5.604356644440566 7.631502307798325 -0.7737349298415707 -0.8130504396117416 0.49596477137078454
Ni 5.91969239259513 5.3018145757565165 6.855307755233528 -0.3996216792626602 1.3263922688083931 -0.17882562418407266
Ni 3.6100018974244183 1.7120861632319329 2.937946427321564 0.052310122257626046 0.5194098897676023 0.947961364690735
Ni 5.360496632094021 0.4244583083442616 10.767550693589747 2.1930430102440943 -0.46723140799183405 0.07634093795458466
Ni 3.06350803964009 6.925235217206056 13.188791244086422 -1.4058406420437077 2.4760265945950195 0.7260877602772527
Ni 8.329786656350812 3.3512006295699823 10.507390212012512 0.5351116167735752 1.041380598283845 0.19008217093449845
Ni 1.8921154433564984 0.4150310002007077 8.15579720438948 -0.07235778493712054 1.1427537966167092 1.1640888106490597
Ni 5.028319849629271 0.8587816999473883 4.744074394569627 -0.13039066861113674 0.4944696748824967 -0.37919709285972114
Ni 6.967030350856509 5.348299501522775 4.070195320370078 0.4608044214195677 -0.8494598314787113 0.6912814512313449
Ni 3.975089823778172 2.0335709538866746 12.039134136389647 -0.5041056553103641 0.8766626171457483 -2.1397849222509016
Ni 7.3652496853082265 0.5491856699713459 4.238503791275278 0.49556882148394654 -1.6767120165121319 0.08570463855767176
Ni 7.455622254710072 7.047270766646123 7.505344146580527 0.6745991054796576 0.5058594047766772 -0.10701676977188666
Ni 2.4776419545038864 4.669766428141377 13.499080188553155 -0.9463742227092734 -1.5210782570634902 -2.1095487490741798
Ni 4.433037469559961 5.367756173314378 0.9054510969886519 2.011056728943853 0.7158887082570639 -1.533650951522178
Ni 2.228165204828822 7.6829716290598755 3.2908041834727277 -0.9508772527859496 0.8145853881990294 -0.13121085051958692
Ni 2.1574145053753004 0.6902795800918099 12.430864854352373 -1.6033059928161548 -1.1465410315732834 -0.9651543315302539
Ni 9.21475318190604 1.8133342779512545 4.961411842854591 -0.944038118376929 -0.09831409979156616 2.2860259276307344
Ni 6.860229742536282 7.489524587539402 3.2570477756818343 -0.5212783104349087 2.4743638621806157 0.2854083917423343
Ni 8.468259422384634 2.672153606367673 2.776206418681105 -0.10634854006026846 0.4260305082734921 1.1054702296749026
Ni -0.16900505646604053 2.1494666385019383 7.721566507307624 1.7119147896655098 -0.5987459057947689 -0.666807891570013
Ni 3.367546069410003 7.900528423786263 7.302501001012771 -0.8157228442375822 0.8428999188730064 0.8661046391242437
Ni 7.796719737637765 8.431851584178364 10.596139250640805 0.016933285420228903 -0.2972496073516365 -0.11523890057136282
Ni 3.166307181497516 0.502815465147255 1.0481988242114022 1.0096308166760741 -1.7183849707708856 0.3890870982799235
Ni 9.318277360117964 2.238168870985825 0.6286661742400431 0.03902086134788764 0.5962077127539473 -1.152784184269518
P 9.103060872611794 9.049022720013228 8.553008830085199 -1.4446658424410215 -1.5530167576432996 0.01910432492961871
P 2.153128530975924 6.538845906310647 6.027021635016865 -0.16023217745260146 -0.17974813599834205 -0.10536226488759919
P 4.961901012951993 4.278191730659998 8.607141512740109 0.4422418279260319 -0.3127258486103647 -1.880122272014104
P 2.2596446313595755 6.105411831451203 1.772533086543741 0.33516129479574536 -0.3265604405006118 0.3690821159129063
P 4.848914651430095 4.051705057795294 12.318865092933116 -0.3083847980328495 1.2283134249560843 -0.3441493572269686
P 0.4552806133182799 7.621921732476035 12.21971958364184 -0.6176481420159105 0.40103295778789 2.2514936981818194
P 9.192267877241216 4.292582325645486 4.3954622310461975 -0.12339932489496813 -0.14911292761098835 -1.1688314675403675
P 7.009679008316686 2.306102024099714 1.2360116908201462 -0.8657210305325799 0.5362166769122958 0.9082524761368874
Ni 4.2310735452929755 7.284018080578285 5.344303541665198 0.12412334754518624 0.20823107392938328 -1.1807135636899342
Ni 7.848463471392979 4.102209805375101 6.095567856845697 0.5016237694287747 -0.21314085252617485 -0.015774489225437352
Ni 1.0405556561604368 7.998279844188319 10.370500594980602 1.030925207278476 -0.09880878003979758 -2.4935640892581508
Ni 5.731605113492722 0.5267297338677168 2.2086718223357256 0.6722604300441518 1.4290379060957776 0.17464809576761536
Ni 7.176455725202066 5.498464625982305 12.113012587610422 1.2809678179270068 -0.8168219908390318 1.5417296147652546
Ni -0.28169589684091395 6.486138516641225 2.6436817040567826 1.1264298626457052 -0.09213599600531229 0.7124789112445665
Ni 3.6723733792620283 4.690875081500191 5.430620496319539 0.5159728390615952 -0.24418563764712137 0.006609020676085392
Ni 1.1910787099595295 5.419692638252434 11.177857944275768 1.2008828395489575 0.9659446886420333 1.4536055681328126
Ni 4.121638944140583 6.232164706033196 11.326582173701675 1.6649232514073198 -1.4590280246999645 -0.24084628886124326
Ni 0.8567304895014339 4.256789391689235 2.016225147430953 0.4437088993898617 0.23609951820487726 0.485524549874067
Ni 8.76909444344923 0.416544398869781 12.635414129772045 0.03780215844943813 -0.25632510122313273 -0.6248377177858142
Ni 8.526592727057949 6.016076339366552 9.96532366482831 -1.5254529890924178 -0.3821374064349677 -0.9903727397774105
Ni 6.905989631948041 3.1823589357255884 12.71068942318465 0.24288363100624624 -0.3944141669197917 -0.5162088663318013
Ni 4.837515978616336 2.1648484224277524 9.353166293049934 -0.1065442010108423 1.567991376675261 -0.32386823838042933
Ni 6.160266797158 4.2879567772572935 10.346362390981028 -1.126347330234228 0.2727917314195883 0.809577907682109
Ni 9.269176796870289 6.396188120306556 5.387180723242174 -1.2216295851780057 -1.3574301119508043 -0.8641007213203376
Ni 1.2581491615883182 1.143070290081287 3.160763865571984 -0.8323360273142311 -1.86012371740499 -2.843579418347593
Ni 1.9015317382896042 2.9798718839623186 4.336279073633306 1.4631078511962932 1.2794984324703318 0.49222304494016517
Ni 1.463132541053152 3.0189963140791125 11.943427502060782 -0.4063201743287583 -0.10583534786927579 0.24796464507357943
Ni 1.3302030909448626 4.039260129988968 9.250972877767152 -2.3856785437280656 -0.1788240815221759 -0.3362707258098402
Ni 2.557808948890514 0.3811396805818254 4.941249407826773 -0.10436133442691059 -0.4758134932338902 0.1552871747425003
Ni 6.2546591883733935 7.583586582441354 12.368484194839391 -2.1855040215545714 1.473290705266566 -0.005219082307094238
Ni 6.888469449660226 2.7428125290674608 4.434120435254022 -1.6380050868602372 0.8587885650788047 0.5047965107298015
Ni 0.2595253864413976 1.2826994432121568 10.357887715714941 1.0182854070272787 -0.5370903377665008 -0.6412174446954183
P 6.411303751646542 7.184210860892588 5.428458236001566 0.6349400963271388 -0.8166458702724838 0.4395326565249849
P 2.6169774220228077 6.389222264698147 9.564190418445538 0.12413131796498622 0.1818862653872674 0.6473235575931562
P 4.173382677895799 8.646875340501696 3.1761575804757833 -0.6147391958992316 0.02371919799381076 0.7309918824470895
P 9.062624034916603 4.364544478248296 12.673535439970525 -0.6514859165009619 -0.702878412040325 0.3326069038050078
P 6.262166526828833 6.120371442309841 1.7894585554673608 0.7276867293332564 -0.8709028318438355 -0.4069580650230733
P 2.2374530123067005 2.3724199063478837 0.870450196417126 0.29050714642148034 1.1858485709236544 0.1274953493412127
P 8.499160655366863 4.649850872581104 8.038585441125669 1.2277889199111822 1.4761163476408192 1.5357289170971293
P 7.272105457943615 1.5402892579173049 11.089150205186659 0.04808605687394944 -0.6339759326416566 0.03502665258683
