# total energy = -340859.9714999446 ev
CRYSTAL
PRIMVEC
9.43577080076027 0.00000000000000 0.00000000000000
0.00000000000000 9.43577080076027 0.00000000000000
0.00000000000000 0.00000000000000 13.81020434924281
PRIMCOORD
 96 1
Ni 0.9407293816430585 3.0936684859083012 3.49402353041687 -0.17537006153530443 0.0558405040083877 0.3655180527107318
Ni 7.008079202609902 5.3422221445994555 3.4617211120671216 -0.07820318797430403 0.3973549947156705 0.8934838024681452
Ni 6.628978232218529 5.602017226805336 6.080177751604946 0.4843793805260303 1.499689764085385 -0.47470226244758246
Ni 9.104518797441651 8.530748436101616 10.379031972222963 -1.4062587034177332 -0.020622304236041902 -0.897728693787428
Ni 3.824893557478589 3.8125138259617137 8.452963714506716 0.4619393063549593 0.7689809600963531 -0.7225717767041943
Ni 4.005277191173785 8.390532879439451 11.626935329282672 0.13982584588210759 -0.34589565049411397 -1.860821514802963
Ni 2.045967655895954 7.47515930155565 7.1551772106199385 0.1284129760594756 1.2857271869888631 1.2270016481231965
Ni 3.832649761218582 6.556341667266621 9.387390001139657 -0.30372107400859305 0.576712065923181 -0.11232969734436783
Ni 3.2112948068605593 2.503243988800519 4.175708917223516 0.9311967436378866 0.3443383333093231 0.21109425440979132
Ni 6.67607216514591 3.4825166077150187 8.820604941051103 1.8039397140142543 -0.6829022260287143 2.8202109188249818
Ni 2.7192476579196496 5.879645916150618 3.181511739360663 -0.5738311448309601 0.29991198467514796 0.13862205538199351
Ni 5.378917857914339 7.79499419446418 7.8408265648124384 -2.0658289395887257 1.3436546554332665 -1.7436499159852614
Ni 2.7902423987222154 6.101716786005533 12.819446936421144 1.0419374992285797 -0.718182389387247 -0.8047234078032851
Ni 0.5211800918207501 3.759013004543512 7.55909803297929 0.5508202857580837 -0.7864369507892714 1.4386402050722322
Ni 5.418123486308101 1.3106663312652325 8.173611109804625 0.6154791593890497 -0.10653545926009395 0.6434411918196145
Ni 1.5533071818417847 1.4724709319141425 10.377402414575885 -0.15253583724960829 -0.00110094637366262 -0.022236957021329447
Ni 6.383478343037089 7.781680321620955 1.5145374860669865 0.4794896565338968 -0.468748873077625 -1.5420162927677379
Ni 0.5552639837302435 1.2488337240776708 8.061209375240244 -0.27244591804439533 -0.7118734164500837 -0.6809965243655691
Ni 8.190645507142595 1.1057025141847783 9.665706558188887 -0.1292329008576097 2.196311910803353 0.6965373003136455
Ni 1.6145547712290067 3.724525261636365 1.2558982858053263 -0.05182804041488493 0.25687197486553826 -0.245098636379694
Ni 8.362452025023126 2.012668820131433 13.465639670711996 -0.337150043091 -1.361294737112533 0.02560278816976881
Ni 1.0117127995204565 8.590165485920032 0.8863208390572325 0.15226407164546035 0.9884793794094394 -0.6710859501200765
Ni 8.311140302470713 4.428160138880934 0.080250288550205 0.5151963659068869 0.4540737875639535 -0.14050821666111285
Ni 1.3791511569889197 1.6922489094225641 -0.03890274014552084 0.3075949551417025 -0.6154588476740755 -0.6412534401396762
P 4.335340459817292 8.144089413160687 2.355026898353057 0.6372700300118961 0.2071542959254368 -0.10032958755969817
P 3.9471056631238346 2.414009902706704 6.550456576910619 0.33704848451612923 0.3289410249176464 -1.56946513300731
P 6.460002445629966 5.688505503545943 0.13796795601634204 0.7646111131634316 0.7573068661925345 -0.6337702443887536
P 5.530211009699073 6.882319247078722 10.737227048446051 1.5014509697508658 0.8290573565629593 1.2155252720524807
P 3.382035082621116 3.247584782023593 10.384334875509916 -0.4286887718319455 -2.810108797393973 0.23325407833628212
P 6.334016031595429 8.64804450506981 5.679391492362902 -1.6891764675277297 0.41352646226921036 1.1215938747096426
P 8.013347370555644 4.07036513934711 2.1274757327168903 0.25517556099972183 -1.1383168438912783 1.2945062187330738
P 2.4926476179975845 6.007236411250604 5.7481244788631845 0.08882055847883413 -1.8014873958190203 -0.5095761915066321
Ni 6.076042053187381 8.992987984538098 9.876644161872491 -0.49003375059833026 -0.4649390124132315 0.45936666053177666
Ni 3.084723375025681 3.520769223240484 12.525261299749141 -1.0751044728988517 1.6790182960478053 -1.7141976721624155
Ni 1.6885406514300856 5.674417897482914 8.615634518930968 0.05878981644469875 -1.1795858778433943 1.2636295837588754
Ni 0.7748523022421033 4.729680200330428 12.391150686906657 0.3141486970998203 -1.3937297177127868 0.2767399174340589
Ni 9.279920344062983 6.306303172247059 10.870398802076702 -1.8809398828193928 -1.1659387193736048 -2.1617370010419608
Ni 3.9171848333677297 0.827985128592349 10.31481400213337 0.5565661871029254 0.9157305296814875 -0.07585422812615324
Ni 1.2547782597908042 2.01353691106097 5.754408702331355 0.621820014005413 2.7717098859008007 0.09494724020186228
Ni 5.679050861030768 2.9528490399038496 11.104219093947481 -2.730847086248168 -1.6934162166406899 -1.902457188065878
Ni 7.102804907410135 2.450913202982998 3.8955410619093396 1.5370864595662883 1.684004950629119 -0.076383618267062
Ni 1.8789450738988491 8.00877102163363 9.903463453709696 -0.03722083202467138 0.31499896091525753 -0.021710652204214222
Ni 4.477207276399772 0.8823634767110606 1.5272427516824378 0.3514672310446205 -0.3505699160413317 0.1658731777884627
Ni 7.623225419667541 7.488114615101892 12.146517001500559 -0.5343287158609638 0.9234986036626804 0.2045996478243831
Ni 6.207869209454347 0.3751643667413421 13.378594683483971 0.9408728332750701 0.20085123652554443 -0.1676266701444597
Ni 9.336808607260572 8.082436085621618 2.8771213163811127 -0.942878550851189 1.1239850006496384 -0.749345959474245
Ni 8.46606622608014 3.5097010638888877 5.820517600923983 -1.4626054576385779 -0.3428216395544806 -0.28772752679381414
Ni 6.981083461855497 0.11343778221724178 2.8650925955444424 0.5509812368159801 1.1563500472439052 0.37699211478860234
Ni 6.167757747047156 1.5393611123433544 5.949049785967097 1.128327079668418 -0.8989815923579227 -0.7625650292676803
Ni 4.0754887629855725 7.198162808865575 5.175263725844968 0.3638985148294378 1.1311313818864326 -0.2741878404361665
Ni 0.6302811936986964 7.163014561990302 12.784921450430106 0.5380421601568088 0.11349235019390132 0.6600770006040826
Ni 7.3213656704630115 7.253126174784628 8.567160132710205 1.6194201247691982 -2.0187918928045816 1.8492618349898216
Ni 5.2816916738062 7.505070695540783 13.208521516731222 0.2239950216318594 -1.6933969333669805 0.6403011035287359
Ni 3.101896478196956 1.5310576338869137 8.251113701847427 -2.346831746064197 0.2165596483997367 -0.3978175361743858
Ni 2.435759354799994 8.508357351582147 3.1216446032668244 -0.46318217762312486 1.0823285014511168 -0.07894957922202532
Ni 4.992230527660491 4.307438885049457 4.685153740684863 -0.157058150599994 0.43362349012940166 -0.5997486360276704
P 0.5035701124534151 2.4519322662481065 11.981181535353464 -0.15984522642682794 0.5541370088361424 -0.30799013369759215
P 0.6138167169275113 0.6869439419700265 3.4305519298112586 0.909961231297878 -0.28156510673684415 1.9364281456946844
P 7.320724038036831 0.3350057254792847 11.430057024349177 0.39432392119883053 -0.23253905454712853 1.4668112681898091
P 5.339863201856149 1.6023731909025694 3.5139235713994075 -2.0225410754343685 -0.6931241608670385 -0.18428921840180518
P 8.648969210625188 6.067606473937316 5.356923075775745 -0.1605006006226397 -0.600851896394178 -0.33500857126796496
P 1.0828868199715136 5.760962788849358 1.1465669511156333 0.23011064761129404 1.5764382218910333 -0.6815480259936649
P 3.895463688587359 4.17870666166171 2.763283457474606 -0.11175608422908494 -0.9473684683017427 1.428346536455708
P 3.4557190181510515 2.6514044646221415 0.4618432460556072 0.7165805921177659 -0.4227150707470139 3.5532105757307195
Ni 9.067757033729956 5.951867307179704 7.510568919286882 -0.1391463033165797 0.8035604978434355 -0.5213819258923085
Ni 6.421259170013893 3.371674606092512 13.066800954598826 -1.581414592059702 -0.4779271971427833 2.63452944806134
Ni 8.63348511045812 0.9090119810936506 5.589666746178478 -0.008896531158681453 1.3496083019135403 -0.008629650650539977
Ni 8.571784604064185 6.7780728493665015 0.8533909419377648 -0.31521081981574745 0.07055852694485266 -0.08449493452028674
Ni 4.207146075375019 0.5158837935734774 5.331236076455326 -0.6661928836938333 -0.933066964077406 -0.5103068990250695
Ni 6.578459114427868 2.305658944621129 1.347323357919125 -0.11391863909804252 0.09545349041431947 0.8622700958695021
Ni 2.207753385002918 1.5723863107496516 2.1099780390241367 0.19802765103382025 -1.0822886493521169 1.0785412664945426
Ni 5.840855461679679 7.633066928792617 3.7195026007473153 0.994006736985572 -0.4520451871696989 1.656555596168915
Ni 3.8668921740804256 1.2655916533261233 12.770668718375045 0.6679062668405144 -1.7142174696567574 -0.6220938364920899
Ni 7.882124103630965 3.1319777160596063 11.289399873605465 3.121055442616728 -0.3975429423567605 -1.1575263269401936
Ni 0.35446417238027506 0.01538691172604255 12.3110240069562 0.3254512665968331 1.0206896455933971 0.6942230503581721
Ni 1.150748884810968 4.408392198692022 5.309816876346099 0.15852445073287538 1.3167377764377644 0.28245573687191355
Ni 1.5047695759555013 9.350103608561852 5.811223366515353 -0.015039153721309583 -1.1310259666568199 -0.28263674253446813
Ni 4.590417656536559 5.106988374236887 1.0557070816831309 -0.19774097303133686 0.2162606291020792 -1.1977967444244662
Ni 8.85995304958656 1.9619232438374141 2.2229459198469117 -0.7795047424458124 -0.5434823573357737 -1.801297134185085
Ni 4.2920302710501765 5.764189822522202 7.050744928219546 -0.31865789782408344 -0.2783838807953851 -0.5788602226144353
Ni 7.638473625560277 9.40497261677117 7.807695685771241 -0.7247592712738162 -1.1738386909469718 -2.137209448214242
Ni 1.1824530752810134 7.340907152148565 4.674988584615405 0.024909104536853875 -0.30497088725529414 1.4586251328345912
Ni 0.09671193459009819 5.789194615601256 3.403373135099973 -0.43824890471655487 -2.0015523889978435 -1.4236128784254642
Ni 5.795299559420934 3.6511527065485456 6.7853402801700815 -0.820958895825541 -0.31154236982522476 0.025009377560144024
Ni 6.946699512429055 5.11696198415559 11.758616231099552 -0.34377731859953053 2.517326481785071 -0.6590411031404004
Ni 8.249034057924927 8.27716209119612 4.913532423435383 0.02779696760761019 -1.5605973982040349 -0.19654849538513247
Ni 4.488822710467815 4.949335512816198 11.058134788514234 0.16050368594643327 0.628118445419615 0.4580425424037144
Ni 3.0901017644804214 7.192831598265702 0.9477061907006631 -0.7905486589647998 0.3428512072408353 0.15140095231421666
P 3.3491514207794166 8.88202331789294 8.593261362376348 1.358027893435803 -0.7807789811725456 -0.16786706829003994
P 9.534657853027214 8.335399669642882 8.168860199119605 0.22426884411853634 -0.5534986039211951 0.29494718447070495
P 5.736826086699843 5.311470966997707 8.616394098494313 -0.3185324279898127 1.6935316591726315 -0.6944459650022556
P 2.6239841141739415 8.834231137913541 13.048322884301955 -1.9914700650611765 -0.031693988669171225 1.4750899632588337
P 8.23471999335854 9.338903348416629 1.0030422695731573 -0.1919559909184436 -0.14895531898720152 -0.16991700884053318
P 8.689750612771478 4.654354440651151 9.387169204098884 0.10623643996243638 -0.17817076420889316 -0.22313575895535764
P 1.8850028388636613 5.973701681211752 10.841729155551645 1.5653858207316138 -0.011938917529431051 -0.30988400828619533
P 7.709251343630458 2.0513271738087475 7.550964398400367 0.8105729246055267 1.0803302400741652 -0.874610619712726
