# total energy = -340854.4134762848 ev
CRYSTAL
PRIMVEC
9.41085638961263 0.00000000000000 0.00000000000000

0.00000000000000 9.41085638961263 0.00000000000000

0.00000000000000 0.00000000000000 13.77373959014090

PRIMCOORD
 96 1
Ni 8.18080087464271 1.5517937308014724 9.085902208782713 -0.020452097206764778 -1.3295007325303878 -0.0872717259344755
Ni 5.704823416479249 0.6132452724565771 3.4513270698814273 -2.119780196994201 -0.9438784528706131 -0.15636858073213714
Ni 0.5459143603167042 7.6389708259393325 2.833450715063288 1.3915036565957457 -0.19098591369569043 -0.09060850361719233
Ni 0.3742161112575897 4.506454392218035 8.755980174645961 1.219242573003068 -0.5799598834365173 -0.9787297562218434
Ni 2.4500787817582212 5.248020454011825 5.578282220059272 0.29503383064724026 -0.17507181356859525 -1.2276274546326535
Ni 8.143119806210086 6.372617776114363 3.6670653029425773 0.24963869034189265 -0.12402847383853477 0.7569697945680898
Ni 1.58128735429494 3.6911542716905763 11.28260686115717 1.1206392241058571 1.50613809081389 0.1915243026976637
Ni 5.499949075875297 1.0232235785570276 11.918733689504627 -4.902289744613667 -2.188190824358115 -2.8057924294068064
Ni 4.444954446611842 9.015092103086511 7.363055813661007 -0.00468275018765 1.4543591584693856 0.48562533711798944
Ni 3.476878485690972 4.439994925367088 7.539125405449131 1.1106173210934809 0.8013647757436972 1.0042178731906188
Ni 0.19937087186783845 6.689641290672256 5.474372250753873 0.8203102064979486 0.0209892006571574 0.2571640521846603
Ni 1.5294994123407115 8.68438520353835 8.707743889841202 0.4548453756226553 2.0834073147921215 -2.4417126518044983
Ni 7.282760505948511 1.3628802024007498 2.0665845073218794 1.4784557944072731 -0.053713687473372004 -2.203666551396211
Ni 3.3288833602735286 4.953460653327228 12.957631990234825 -0.46916256357627584 0.3860891919938641 -1.4324664721613523
Ni 0.42697713574826474 4.094804718047246 5.184118857890145 1.0453005021635418 0.8564336916933831 0.527633049008343
Ni 0.919746508639216 6.979269802680856 9.752192713588775 -0.4756862236274066 -3.2381357672722038 1.4323127201923076
Ni 5.145667981416117 9.281353459021634 0.245941435116011 -1.3133783730472284 0.09677169500511076 1.4501939713481022
Ni 1.0309028372585811 2.07340926027576 4.5979495599559215 0.9606590147630616 -1.1384392284017555 0.3268733437553403
Ni 7.1033707640747155 0.4503913461030021 13.05875822826091 4.193685485833158 -1.7669423108542988 1.985323842954123
Ni 2.065673536436695 7.676350746971896 12.68880994031356 -0.016631952129726194 0.1616370282199281 -0.026648712935779913
Ni 3.858808675818248 6.05035241462416 2.9055294041822473 -0.5420379115797633 -0.3734997853646277 1.0602213851394322
Ni 1.2354477978937166 2.2291871638135285 7.080611549315111 -0.2904258995615837 -0.09173618946373234 0.8212106068250308
Ni 5.826326981547583 2.4562052491782107 13.686565859681684 -0.5903080594400608 0.5682644493764599 1.106762980344397
Ni 3.3481003287399163 9.28949384967953 4.547304095950675 -0.6163746746201256 -3.2698462110016067 0.3531538747184241
P 5.314348168875245 5.171594890390112 13.731399178865754 0.9689824470270926 0.2086411648836084 0.028370580722893078
P 1.4175666880805642 2.1014347901939305 9.705609916227472 -1.005269968604217 -0.14041128607193237 -0.5564597434320481
P 8.462778360518513 7.900743203442297 8.938082125291555 2.4765698686929998 3.8709955840315464 -0.8735996619497084
P 2.3235498194513706 7.218936078848098 4.540168784740481 -1.160330372047892 -0.5344670412110409 -3.2770103328502147
P 9.055737591238486 8.477760443671544 12.286589003021554 0.09865528518106881 -0.3383839154981011 -0.04081600557509745
P 5.268601996634739 3.9094108498847358 11.491362238879407 -1.0205225238879134 -1.0731982570150744 -0.8913050496492715
P 5.806752400543623 5.658343197451096 8.112650276923297 -1.1056476357930314 -0.4193155581471617 -1.3842989113171902
P 2.866320953779939 5.459190657448301 10.713090073360691 0.36314595293412943 0.9444870329888896 -0.549519564668789
Ni 8.372697644475286 5.990038236905707 1.2325087874862468 1.4674571293039245 1.2957596315242006 0.2271911599716539
Ni 1.7952243494694753 0.42298222726933143 2.109034997702968 0.7419648365188254 -0.06867519387921076 1.7438694881952355
Ni 5.6618158034080475 3.709750123644339 9.240773846863423 -2.987627272730848 0.14023336573317138 2.0745784036465817
Ni 7.520742238846662 6.237976655718372 9.382643445946503 -0.26741298360617816 -2.029169893604796 -0.3483924487740387
Ni 3.3720603687572646 3.2959077199668565 9.586384719457724 -0.8362808708945919 1.4695839458389401 -0.6728633537354735
Ni 6.892548762319561 4.375605846891561 1.0567488128688105 0.03941655412440954 -1.6664684844072526 -0.3623445400787566
Ni 5.020738864672089 8.651974214606792 9.980079420985506 -0.942686746555357 -0.6086076290801969 -0.15818583644653403
Ni 5.4708224757756545 6.119155184681831 10.210969132612222 -0.9087576979080801 -1.4188319120970532 1.0609160972136116
Ni 3.520478982706044 1.8809854824930772 3.966961059122005 -0.2476975074551218 2.2595417652972762 -3.1622170044567026
Ni 9.176149496981598 8.805531156069112 0.7154311728966273 -0.7467735707613784 -2.4378027752271305 0.19460705538804549
Ni 0.44591930721209727 1.399168464108092 0.43952180713205286 -2.254537884324782 2.179955580932517 -0.037413150541135566
Ni 7.067138967504884 2.3508413025818924 11.516925888802078 -0.14567304869150396 1.2683622133478543 -0.9238526445679897
Ni 7.170310184594509 4.670664422957509 11.985026584199915 0.6124686546975 1.6357312032243956 1.1444378691873516
Ni 4.858938013133102 7.413872555250038 11.915524587522727 -1.6771920414723438 0.9270498113490485 1.0483346610041753
Ni 1.6070072244313935 6.12923421172762 1.0219173517092632 0.2505054092175621 0.4824163432623885 -0.03152866673590054
Ni 7.45885644813414 0.9055464676407181 4.974798828792794 -0.017084209175796384 -1.421446724012081 1.300636757110844
Ni 8.184471108580953 3.0413534692091027 3.5743401362925664 -0.566936731703972 1.223633760092228 0.5172455351264318
Ni 0.6092578926626454 3.876849287253148 13.578676039267355 -3.19329624236001 0.9972728093313535 1.1967364214807519
Ni 3.4695003743894794 2.1369513616886167 11.449117846250235 0.28323606668136386 0.11475296207387978 2.5392798461277106
Ni 3.4240835821177904 2.6971984560769706 6.037898087460389 -0.910440999147774 0.9460114400532159 -0.6021222784661695
Ni 6.59416815399669 4.876978624568003 3.2979837548560265 -1.0226706805791679 0.19618494139812664 0.31288679966826116
Ni 1.2386004347381045 9.400532542595746 10.997766592809539 0.021030338307737977 -0.3132858348788927 -0.5537747404007173
Ni 3.738641452337684 6.888963226087585 8.847147844586281 -1.1136453092865273 -0.6742905731003033 -0.6423636424847194
Ni 5.95452166541102 2.641053287678111 4.788110026810021 0.6967794982314387 0.04984083478152706 2.747531231772068
P 2.293915033114125 2.9642691456497565 13.217101531212949 2.4575339351074708 -1.5217781113439919 0.20538871938458178
P 3.9883397012694557 1.5394560982552261 1.7952412890107288 0.44194075174584535 0.1480163521126999 -0.27369058908477384
P 2.1101680647956975 9.294829805174361 6.598544202153825 -0.548033724151882 0.9720559437460937 1.589679917392288
P 6.148187676218955 0.7596339647118207 9.254933421180038 0.40712415828729237 1.5858610578668302 -1.055010273252138
P 1.752386131810808 5.712229760349499 7.60475671694991 0.40626900937584864 1.1014222848577742 -0.05196302333085244
P 6.958867066326728 8.365366587455053 1.2798406890051985 -1.5149004103875523 0.38162627112650405 -3.407465021930067
P 6.911417529104628 7.644400889996682 5.67858218490644 0.3284753981351375 -0.5928542229006822 -1.035939372663616
P 4.317663204948587 4.1792483311955815 4.456025377906582 -1.0861167648489551 -0.32558342129932316 -1.1473339597882242
Ni 7.334190835365168 8.38951484459744 10.834726331502175 -0.02512790541587931 0.18548143893769348 0.09101550924762389
Ni 6.462670259588834 7.823724755876714 7.923412073981884 -0.041336911075573975 0.29412803100351925 -0.5485160631049392
Ni 7.708949953028491 8.482277654672458 3.0289556071828447 0.8047231506929688 1.1176402893785333 3.2045023954884746
Ni 7.793337101039316 4.862994092177672 5.492030781424945 -1.40763630049155 0.6240738430365961 0.21351674780835483
Ni 0.3224046421627317 5.941845242039705 12.498911095263262 -0.5726636068854202 0.6873360934303517 -0.5080109039020412
Ni 6.687919103978158 7.261275521125413 13.236577298226265 0.9679311229444427 -0.7991091469403012 0.4235964449107027
Ni 2.174670073546248 3.8531245186420975 3.307404963049808 0.5388219757456268 0.7317413590186043 3.3334699584998395
Ni 2.8060914737677525 4.040071178086172 1.3332887060022627 1.0488509385189615 -0.5411585942986035 -2.214080804751
Ni 4.6688857711258995 2.147980885215848 7.783264661592902 -0.12899764491835206 -1.3440819727786721 1.8151340400681772
Ni 5.555106104367707 2.913789312714543 2.795077007610524 -1.5710841566679716 0.5585058273277993 -4.538232078498546
Ni 0.6674470990394187 2.447048486045108 2.2990298334870345 -0.31686995268572526 1.1638882646024793 0.2920297537135938
Ni 6.79557929949994 1.5324638320600614 7.067911598803167 0.2064935224129863 -0.10129426546581265 0.5047638577196533
Ni 7.5174672608709985 3.7800398089898106 8.436428904098806 3.508706836891389 0.6121590938768812 -1.049944428693456
Ni 3.2879743681465015 7.3733682299418435 6.302835335920869 0.4806733924293528 -0.5619315651798967 1.8479559716942042
Ni 1.0646972220591688 9.112118031043643 4.773151470797621 -1.9393643455048728 -0.6829608471807915 -0.6535335430586099
Ni 9.106537393286263 1.407892327853607 12.08298512801161 0.6264264024291728 -0.7709470826837884 -0.7875846912404695
Ni 5.157422140874744 7.832533317328496 4.178236664148502 1.0660847858987446 -0.6595334693957867 0.31081500474089696
Ni 4.289289473349096 6.948900969555963 0.5279593876736963 -0.5164466933742202 0.1761575904336063 0.5212415436597023
Ni 3.1815093513687103 0.8596036085045474 9.47903225893538 0.30734247281126426 -0.8099342625802631 -0.7943785742338513
Ni 8.957384732549835 3.1017805772025793 10.576483025093676 -0.07319673589864813 -0.7191743209868711 -1.0073422777522136
Ni 5.87247782060692 3.8758893799154537 6.6210775563633835 -0.30526090769188713 0.8518231895045651 2.025529468638731
Ni 2.2974629259210926 0.7698334507176344 13.389920613251666 2.6353658279197063 -0.7582129229465716 -0.8949315906582652
Ni 9.1576195210216 0.23726086130925467 7.074165112782556 -0.25015471074636275 -0.5795243385609955 0.13879406218348356
Ni 5.467698071500022 5.705952719229478 5.293675340946687 -0.06698469355066528 1.6332007234930583 0.497553198903827
P 2.7127357797488645 8.389656007441218 0.96157964685018 -0.14108491510018928 -1.951113258510685 -0.5079975341656026
P 8.81164821263285 5.115948497372603 10.493895232798215 1.103047993386655 1.461185951583232 2.780928062064959
P 8.872075320626324 0.9543172890805857 3.5737896012018298 2.2343989474830614 -0.4928542507662609 -1.8301929912838286
P 8.035101998150731 2.606487212664867 13.618949798597379 -0.38566753107541324 0.5065831703165792 0.4611324941829477
P 4.808740505885447 0.9547595993244252 5.556229760604184 1.486665069690943 0.15314673136072982 1.7160699494844638
P 3.333221765005656 9.309209593527271 11.557420803254024 1.318605939994755 -0.7768017416923525 -0.27493088924977815
P 8.40375347010657 3.046849409260215 6.592153289673157 0.37589039708399136 -0.6939589980635081 0.06383997727409652
P 0.25353976045379834 4.847390892512016 3.086254546558188 -0.7288938622674801 0.199148909122457 -0.8327281205463273
