# total energy = -340872.22639265936 ev
CRYSTAL
PRIMVEC
9.24174574252314 0.00000000000000 0.00000000000000
0.00000000000000 9.24174574252314 0.00000000000000
0.00000000000000 0.00000000000000 13.52622906415848
PRIMCOORD
 96 1
Ni 7.095581154255994 0.2015855738037952 5.638543269078646 1.2110623511851206 1.547181124798129 -0.3070550234778325
Ni 2.614083166250833 5.247749591224427 7.759619052202139 -1.1592849615025131 0.25147908598474106 0.42170437009431244
Ni 0.8920936792222077 0.01079990379585628 2.908990961978449 -1.5469682374563742 3.5481920394702056 1.2148346737433593
Ni 4.873079986750862 8.423462873492703 12.339897437025725 0.8903169747043891 -0.38912875015113624 0.5193826360740926
Ni 5.618796431460465 5.419793925525011 11.033817919607262 0.7237958789192825 -1.1697943456742692 0.8975823980175509
Ni 1.5510975983923794 0.8395210857487283 11.169026504678405 0.4637776451152787 2.2598580109861146 -0.8388044086473941
Ni 0.2515723268852837 6.003474846314754 8.427056988319169 -0.844800478329829 -1.248894848651862 0.17725596570410762
Ni 0.37028901710471807 8.948911555862379 5.389850670092378 1.6005086325766757 -0.7823663802643236 -0.28468256931990327
Ni 2.8768999248907106 9.04500722561192 0.238924998163198 -1.114654467277332 0.22127530870785117 -1.2559694961104562
Ni 8.789195710063998 1.227276077681265 12.781298913259292 0.36564480809658323 -0.3275264039583069 -1.333198750207265
Ni 8.136996488108348 7.2133025084846585 9.880950831676088 0.1256796362887126 0.5976241334854998 -0.40030096471787185
Ni 4.723326742605684 4.111412289301528 5.206123845300317 0.3206687576065252 0.5129438224272843 0.5878002054165425
Ni 6.434463647889081 7.09784538190445 1.594985723615845 2.5936231967652814 -0.5667019899853466 1.0398577338814154
Ni 3.551094501145641 6.269332139225415 11.892462949327209 -0.24795513199188265 0.5736969332459411 -0.21025504633794756
Ni 1.063438413388145 3.223927468562115 11.731988356222958 -0.11857285004060225 0.44603009132387056 -0.9426620639650087
Ni -0.3773497106696968 2.4287122349336285 1.2319255998442766 1.6023631692869114 -0.6175684378179107 0.2975188018526231
Ni 4.912449822597471 1.3130487177029508 7.7686815078432625 -0.6384329399717457 -0.5980550503753312 -0.0906666105486374
Ni 5.822891139168569 7.582639625802475 10.230306371039926 -0.6671431634222447 0.3019765805136606 -0.4058020970417592
Ni 2.4979976009763587 2.2475647813117057 8.680416668784908 1.301798895739745 1.745258655233278 0.6503677437361186
Ni 4.395327952926807 7.263023099295634 0.852457681105086 -2.0320793539421067 -1.7086168356405287 -1.0855914884731046
Ni 0.9887096592436182 1.2164077849686796 7.333609703105314 -0.7541359246637206 -0.3487698867181155 -0.6015301534081253
Ni 2.179342216001924 6.077547436528504 0.4489094702809366 0.7724097832722439 0.6382822733264942 -0.25909546487941826
Ni 5.952266334477651 3.5217704426617695 13.124431985375354 1.2475216224534194 1.569221135317304 -0.6687788992534547
Ni 7.907357595827467 0.2950944789867949 1.3687052816510812 -0.45928412812029934 -1.3234645536386367 0.29404781258488716
P 6.413845313669881 9.06192886162956 8.526028689269523 0.040543211529685014 0.08569718235850401 0.6521006672668253
P 0.6358200763990907 8.908081524226153 0.5015218032600828 0.12811987029908903 -0.8937622529405124 0.052309608036993784
P 8.254921160738098 8.912489836831513 3.79739441222095 -1.964468082551036 -0.12122699983399765 -0.5169537149176258
P 3.330503277713077 -0.574066732942038 6.578846513721944 -0.2062094155136642 0.7848896609068096 0.16268963785415852
P 4.094888048340557 6.208262684935651 9.60208023692139 -0.3493239594493726 -0.26583201227230346 0.16509284797901244
P 8.881890417468105 4.033504374703661 9.648069935072442 -0.5641216308526801 1.0616478331733135 0.8788547397010605
P 7.982483745028661 1.930101581507274 6.846476373420251 1.0646159146627021 0.038244645303495424 -0.6223545463526443
P 3.2748310027975904 2.476233290314677 10.776035139743358 -0.12702560879364577 0.4955084005596563 0.7824206305410267
Ni 0.9226977194583691 4.207489475560061 13.93566778483485 0.04731266904303465 -1.426773278431317 -1.587192375083744
Ni 0.15540641986991308 1.9037533650756582 4.92109917221457 -0.022324888749445423 -1.1462867494706324 0.1816407250353646
Ni 8.645736094606976 8.746230835216371 7.363800637317451 -0.036309375953995526 0.9988260127510862 2.2477450297726644
Ni 8.254274238552826 6.699637051632452 5.090352499372975 0.059409195196252526 0.5024655486037798 -0.4903086015262717
Ni 4.714704194050546 6.369466451760159 3.8115832640930862 -1.1291470044665521 0.039013405148719905 -0.052127316822858615
Ni 1.9547678002571802 7.669558242266644 2.2020704407196625 2.289550652954541 -3.0471277420893266 -1.694769902455107
Ni 3.4813747730642275 3.7690148601275775 12.767894685580439 -0.9436385689456651 0.16538286841560548 -1.1607733731225813
Ni 2.571192225367238 4.529213120041791 9.998398630237839 0.10799893117949788 0.16635114586614577 1.2256258508215925
Ni 7.334997813279999 9.36077918598914 10.651472121318157 0.8917817321753738 -0.20547793666427838 -0.26460533895405397
Ni 7.042884721392762 2.1729007193857064 8.860816465195564 -0.5528751114045832 -0.487763980727547 -0.8428130155861548
Ni 0.2763670058976941 4.061488380089466 4.7246030276597715 0.26534607377482045 2.910774171026535 1.5247521063706515
Ni 5.342893361187068 8.142892721739834 5.710056819962367 -0.5042432093294928 0.21218928724618297 -0.3567323360983018
Ni 1.2122582412374294 6.931604863780316 4.436913959345252 0.7580532574402558 -0.9300659724675531 -0.029626307506865106
Ni 7.157999903389327 2.942229823857772 4.631664338174363 -0.6576709622657512 -1.1931980693101902 0.4647991444012576
Ni 8.16345560548601 5.529059082617607 11.481157217327086 0.9890604487238902 -1.1985565054086262 0.019263219104986178
Ni 5.077599814752145 4.682746238098064 1.9031942394726722 -0.35016908105848726 0.3361221160471179 -0.9907553199278099
Ni 6.091410054784353 0.5285335770188785 3.248066907818299 1.0809089953957707 -0.24763477253798644 1.590441735258977
Ni 5.141081364618427 0.37947438796104316 1.0898624121328926 0.9263676976803594 -0.5746361572307588 -1.0024314707141575
Ni 0.4310562663165046 3.6482160046461143 7.704377442627133 0.5397015501371029 -1.268479712762325 -0.3831589057209466
Ni 7.825614356845481 4.885768903327715 6.808048271440488 -0.2630292527161857 0.36905357666781596 -1.1184527579774994
Ni 2.7198457017974524 9.152470242331257 8.712744294557545 -0.5562419709942872 0.21467425845156574 0.5050693047752141
Ni 5.031455779451178 1.5860036711606054 12.41476481735281 -0.4560666496242662 0.3688977678162421 0.7251125408481771
Ni 0.5070391253259104 8.181125822889465 11.531056173826288 -1.29134324762406 -1.534526412148596 2.2571015312868994
Ni 2.158862507965284 2.970398664153656 6.023121873081493 1.132806198485694 -0.40003665531289173 -0.08879484744722127
P 8.365138217617597 6.524589150043103 2.655103577844439 -0.7654932586580687 0.034777512690501396 0.1943039223253299
P 0.830299672084938 5.392355183123935 6.389357460608201 0.11766190819055865 1.312471802072559 -0.8424240076778524
P 3.121686038052481 8.786072000083681 11.434735929661002 -0.35749312552372625 -1.0276089984210497 -0.8159524437498851
P 2.2955848909499648 2.2722772087891316 0.6189862369637388 -0.5906669854413763 0.6493814685634492 0.14430239359622243
P 6.836377918108141 0.2809185655583643 12.808675735965494 -0.8871365200938787 1.0717874927104767 0.5978719878302478
P 4.737143152134013 8.231400918430674 2.723357565088934 -0.14545759024658822 0.1813162518164103 0.037599555520328794
P 8.492138284332174 3.4547585460129984 3.071969143939707 -0.36481999820244265 -0.5911351833270465 -1.7154436287543746
P 1.3312919233276475 5.9531258168095125 11.924682446677451 -0.6653781011020218 -0.5289124299413988 0.18773603929982507
Ni 5.060447135096909 3.4455999762186345 9.689067242302288 -0.8112851201812028 -0.5115978499223512 -0.49472935630178666
Ni 6.556648765196128 5.038608890471196 3.660481649278889 2.1839608454371677 0.2315476371681367 0.1874457617529159
Ni 7.668310606623618 4.374626442998074 1.0884641360381528 -0.39494972770828757 2.014954264226046 0.2904932624644094
Ni 1.526893466917668 7.58314792180519 7.29878033682477 0.28700427547454443 0.08163175403987877 -1.0689803622789846
Ni 7.176317042978054 7.208783294933252 7.468561367651447 -2.0946615475497024 -1.635997569511905 0.12336924298798109
Ni 1.8009389463447825 7.0313232977673845 9.920690337342855 1.0063937977960151 0.06291515146698197 -0.029372025404213933
Ni 4.707301555901923 1.5145372531789552 5.12672431297812 -0.6562324300470117 -0.024898305903576473 0.014235683983407741
Ni 6.541972873335936 2.349732277857308 1.8675663863805916 0.42063196296574007 0.8186788415421127 0.25587670083180447
Ni 4.760497043022365 0.8028350527964512 10.361848755669671 -0.17043380057595164 -0.5954075854501553 -2.0771284237619456
Ni 3.251199859544121 8.304161180782872 4.29395524649454 -0.6228461412770822 1.5208314311600066 0.6094517222480472
Ni 1.7511629050607833 2.942229823857772 3.0123718997087137 -0.2111698448427331 -0.276194329343234 -0.4934566602369502
Ni 6.960827263063644 4.9126438992530534 9.036427189086101 1.8951819945607036 -0.13336312097589934 1.3888510494642468
Ni 3.0676033433636647 0.9870553867984203 2.256188254041394 0.24497908008269426 -0.3664138250521238 1.2175222478778516
Ni 5.203250586623154 5.3394923988416325 7.783033014436267 -0.9449791421339597 0.24429130998705026 -1.0838048288863271
Ni 8.834175285431474 6.4607194468656575 0.2965491297291086 1.0924401359638216 0.7250032689638223 0.6355985558467441
Ni 4.418441558432058 2.600830503198242 0.9787322707976089 -0.8818122796674878 -0.6301832983684438 1.6589122693265494
Ni 6.195601493595309 3.1923576659207966 6.828202670035393 -0.719704225348412 -0.08964099749760046 0.8111092567249708
Ni 7.164755619352677 2.340795509955038 11.126621679608315 -0.6004901421793852 1.231213115101383 1.017916196613318
Ni 4.6047459060451565 7.7863646636904225 8.099154312793534 0.6676015911159019 0.006665327835317553 0.7716968163656194
Ni 0.035065030790893285 1.9628450858275879 9.553574935644177 0.7323296274219064 -0.8917192543685547 0.4446344965279246
Ni 0.7277772925119856 5.118549989079921 2.4396720209267024 0.24483072743028803 0.990441645342133 1.1774138098927398
Ni 7.010021074380898 7.413367815153062 12.667502528346134 0.5275196633589302 -0.27173989311630625 -1.2714218261097845
Ni 2.6032980492477833 4.843839103976525 4.5648178687701115 -0.43836177614533534 1.047842551859105 -0.7585340537314162
Ni 3.682262595082478 6.559171761718692 6.2409609047029955 -0.34883287874556695 -0.7946215434825927 -1.813292101763432
P 2.4003493179821627 1.2658233981780274 4.404735125675226 -0.6004852570833787 0.3734856442972407 -0.03773685242914146
P 3.05358361543425 5.376265304201646 2.3825367776979482 -0.6362187059292462 0.3319268470188477 0.41899134203852356
P 8.238082700429995 3.4601557253872754 12.613397653468109 0.3814720049368269 0.19201924005621124 1.1849833947098818
P 0.39360409266195423 8.95540850295162 9.494438854513827 0.2964191410305411 -0.28130131155249616 -1.0662958734682861
P 3.8238553779477136 3.5927285646407054 7.385564023804583 1.5481717708461724 -1.9786374320728828 -0.458469602638804
P 6.257816924327557 6.185343156085981 5.586223899431975 -1.2777505965412899 -1.136546639364733 0.6852900095346004
P 5.885245196083376 5.697277334279575 -0.26217630567645733 -0.7622935207738485 0.11762051342966194 0.5925233219238246
P 5.141044397636412 2.9511018995415155 3.420607523852441 0.3191253243788052 -0.41536891479458793 -0.2702144576107153
