# total energy = -340895.24408280774 ev
CRYSTAL
PRIMVEC
9.02114448993136 0.00000000000000 0.00000000000000

0.00000000000000 9.02114448993136 0.00000000000000

0.00000000000000 0.00000000000000 13.20335683228002

PRIMCOORD
 96 1
Ni 6.390506400537032 1.7741343080599652 11.30985001338626 0.4952194085643278 0.26984653274833525 0.6654770885737313
Ni 4.489228085755974 0.19033982836741664 5.963269520566291 1.0112413556963036 -0.20833211828362186 0.009041798487294105
Ni 2.82516977954153 1.5347672671675645 4.871893296334948 -1.0749322089870454 0.04032929574666603 0.42954597762591834
Ni 3.20048546391959 4.067462529758294 4.685171848916575 0.5375685629545001 1.0729465460155845 0.04929550380101833
Ni 5.059644056309504 4.372332098875604 2.6161661058849637 -0.05854144787931854 0.37982932712708134 0.6624143904880077
Ni 7.084665406438459 6.2324288902650204 2.695742521216838 1.3196958306248239 -1.8117707800228988 0.50722466055532
Ni 5.179183238448089 4.5172838442988 11.68737317175642 -0.20127341166462756 -0.7189110400231554 -0.6204563008886669
Ni 5.721344985285821 8.08159205485254 12.46848428050889 -0.21034092118353448 -0.5364635028157793 -0.4269867015391743
Ni 1.5735581873393185 6.607645342056595 0.38998586911836386 0.9037214210357533 0.004705633005785444 0.5853643422815403
Ni 2.6461541935209976 1.488669220172759 0.3068488081604914 0.45083985400768806 -0.7243203839641849 0.19637880257648763
Ni 0.43774831722286434 9.280502122486523 4.7658443332719065 0.5708509791567137 -0.4484685255620341 0.567234722560365
Ni 8.676022311335654 2.53579853620447 1.2804810579542223 -0.046573991104797215 -0.8988278403888778 0.43682219957235735
Ni 6.9221675354957135 0.6052123280620173 4.745470981151932 -1.0188176253816648 0.6031126674038968 0.3987608739242616
Ni 0.8986268482411653 7.819401519068386 2.8629232681272954 0.20171075631236227 -1.623756547361023 -0.4547443312684168
Ni 7.610462797650246 3.9613919159491116 3.7464000067553345 0.46922761248625644 -0.12888554482051995 -0.14913092533311734
Ni 7.762586352733106 3.8619338008575794 12.552708389345995 -0.050173021309965204 -0.8590798710669785 -0.4108597140703246
Ni 7.916865961285974 8.848741138686446 7.05044730427486 0.23979136523416766 -0.18663149338173662 -1.2495576790468415
Ni 6.8686992136682745 0.8340345534686592 0.5503736944266507 0.28417606199712997 -0.6152284768308244 -0.76927072342263
Ni 1.8214051038041492 6.734482629874005 9.113629898708593 0.562593881354244 -1.2552637282926835 -0.5066682738312177
Ni -0.09116317297573516 5.034592338793932 1.278583911323497 0.01172603018767658 -1.0250558929818927 0.7464493546527403
Ni 6.312861412183942 2.1593101030770314 7.02761839669657 0.7574878718550889 -1.7888491382297191 -0.015058436995019226
Ni 3.5539880215592077 4.3321429013488215 0.5736491486441259 -1.449123106881427 -0.3021408740056668 0.2030281895722052
Ni 5.895660555164613 5.675391276598632 4.887406958060381 1.0346476504353859 -1.1782923558429512 -0.2790906770544226
Ni 5.470088076303567 2.646713504463009 9.191582508079788 -0.6883146552935371 0.28966202481236564 0.3489390653061281
P 0.35729053610011074 5.507850586033558 12.239312936820703 -1.1247285636838824 -0.4212248593547327 0.09086407127142415
P 3.907183860295142 6.009805093056056 12.603105011564484 0.0902169246057285 1.419327620786549 0.15280477464027878
P 2.4243603415808237 8.474390716740567 1.4002556919571054 -0.522668763024532 0.871301609944151 0.40517140543629576
P 6.3391490264584744 7.777146479513852 5.730864096673086 -0.12629927215058248 -0.5846871137088576 1.2432754455825554
P 4.687630110718156 1.1011479276569354 12.5064831442176 -0.6276042247873579 -0.9259756044482633 -0.4439341280267903
P 3.9414100814885455 6.178825251274192 8.14183615810812 0.16777785101034332 0.07586682653164353 0.8853048662017785
P 4.753177744664194 0.962050904836406 3.8754231178187015 0.8316850239937934 0.3420099422864626 -1.1353047965378318
P 0.2722779792576551 5.741768855813461 3.4071391295052855 -0.7201996769275919 -0.1915124756231218 0.5866609496057767
Ni 1.4558322551901577 1.0968267995726864 2.6932869657585243 -0.28117018529127064 -0.08038862566139704 -1.1807616433190502
Ni 2.0376058463242095 6.400592039781688 4.699140188636096 -0.6592884432645162 0.8447590835689323 0.5437461525201216
Ni 6.0463768117482175 5.5590906852371775 9.306174494724843 -0.6318216053028152 0.32391297557543575 -0.2526317115319456
Ni 8.680839602352334 2.4694660627107705 10.15518956029518 -0.10309686589219018 -0.23808800938981578 0.656436832748334
Ni 2.3959617795574095 5.168989345472721 6.9232067713105465 -0.6273599699870356 -0.4341400247545039 0.2916291758410655
Ni 0.4911137980061268 0.022930846508042276 9.206793059359232 0.11455138758603499 0.175375203741627 -0.260254518184526
Ni 1.4929001368147479 1.1433217769134354 11.180747516253705 -0.23211302275330345 -0.15792152704155382 0.9135170669699364
Ni 3.820075691648989 6.743224118628989 1.586000149455803 1.4893721842094607 0.8235109728234333 -0.13859994389480645
Ni 5.654823067763377 7.876821102066808 7.8897980180358935 -1.081179475448338 -0.6628013415137811 -0.17504815941951143
Ni 5.087041271323835 2.741363349682089 5.101803471735243 0.4883519920205331 0.2394717771112198 -1.1199745939386647
Ni 0.9073917919711365 7.450905819725174 6.9324750948883285 -0.5981308979185892 0.19570825887202423 -0.31662672632666766
Ni 5.188754672471864 4.561379197275436 7.173594944103839 0.1153620564127884 0.3030135064186072 -0.17277916087967662
Ni 8.112263945220903 7.059730963797825 9.015700867563366 0.3908724723151204 0.05762047872694592 0.458955541136287
Ni 4.670589169275263 0.34814760642707054 10.250095606010277 -0.4103460076586997 -0.7602173549711101 0.36057742087600486
Ni 8.25411241703036 7.223627112095599 4.951562629452349 0.376845304798093 -0.009727511700409053 -1.2034295172302114
Ni 7.248841210207239 6.122100296381172 6.919112976060793 0.12727449157965823 -0.6427709052254672 0.28885752663319925
Ni 2.2412762195143707 5.32394553984254 2.5678813335297788 -0.3568423793136048 -1.3736144350201507 -0.4760590335857931
Ni 2.317748459118082 5.363647595581119 11.193977024261118 -0.5746502982981458 -1.273602121590555 0.49302240091300903
Ni 1.1651709882287815 3.223263853090213 3.7042938160805288 -1.2657646278240073 0.5329012393858178 0.1611012103211161
Ni 3.463145099203495 2.4371072183721467 2.745374150404964 0.9717677230817136 0.765773508902649 -0.7331737205897567
Ni 1.145450766950769 3.3097405416405468 8.154274511766912 -0.6445503657233932 0.5849907609922054 -0.13564574636248897
Ni 3.712697011927038 2.807172596810681 7.159150287969186 -0.9020892847489691 -0.7624866106212611 -0.8954136725010062
Ni 4.045820804760146 6.670360336715674 5.9856888681967195 0.47599938399245123 1.3766102844236807 0.6208013429329116
Ni 0.8419740625019523 7.4007302155402215 11.221387770991786 0.009406638025880574 0.15656732700650455 0.4659643683539524
P 9.31532373919884 5.582834336839982 7.758318449399789 -0.2856768149123725 -0.7789712385398456 1.2900602671465784
P 8.425667516775999 1.7305982660253407 8.09606016596218 0.13560538004285677 -0.11607245221625172 -0.6931722404961546
P 1.8591315289572365 3.343867530247464 10.258506018772167 -0.7246682542219068 0.005135521454352447 -0.2170869816581165
P 4.055590703956892 6.062055560412987 3.832498709362599 -1.0021735890670804 -0.5909667760699823 -1.2116850723707842
P 6.79315615191984 3.762701214371697 10.440461595695949 1.2339395128936104 1.3866252454575216 -0.397487920749109
P 6.26223475078769 7.66934380601328 10.10027695327716 0.13289363753864855 -1.1413067797575376 1.577154788342084
P 2.311334425573404 8.528959618163576 5.74759290652576 0.4625160047940357 -0.4081975938571292 -0.7341761937123421
P 6.881346857873111 3.9225739323446795 1.4337521025826263 0.07945017300752769 -0.30448572008875946 0.9174647387637748
Ni 5.104109276199406 2.6653962941550327 0.6527880384810397 0.48777349380924384 0.7249122519119128 -0.4645556609318838
Ni 1.2698703881156137 1.0540485336530452 7.043819469612024 0.49774397475839444 0.5115230308203577 -0.09126670602648154
Ni 7.033533560965552 0.4055635809678022 9.114065619974708 -1.0254240749545889 1.4653763355154956 0.7604821785967226
Ni 2.8917187604966528 1.726899596892685 9.085308918525522 -0.5731937683572774 -0.768749046591205 0.7881253942352877
Ni 6.3449857067726905 2.0154950218263097 2.5739814312553926 0.272879148927072 0.0725148793402751 1.2400319989445936
Ni 4.025261617069116 6.809304000084361 10.558473498117074 1.123830220239329 0.940275051790071 -1.1951513363818191
Ni 8.131298559537742 7.025631038623585 0.31132058935331436 -0.9066794752228127 0.7183615952775886 -0.079760762269411
Ni 7.578527947090245 3.858190026003794 8.11883675090396 0.7661964553726803 0.5687609293969044 0.3686005482907974
Ni 3.150318880878863 8.15048653330642 12.558649714933232 0.3667763505978651 0.536540893020934 -0.9594855632802508
Ni 0.04060417016117796 4.908711292264477 10.045324653224545 0.24432293455593407 -0.0491630919882121 -0.39364617840551563
Ni 8.5950575419074 2.272678822565039 5.824753459433915 -0.4075077668789563 1.377358475443615 -0.2627441173755991
Ni 3.563189588669717 2.7752377462506788 11.348033810551605 1.0565979294542318 -0.666711989422097 0.7271054029084897
Ni 1.3629776176720496 3.2235976354265743 12.526142923829301 -1.3572467922954046 0.9594549671526316 -0.18337904788271
Ni 3.013702672720481 8.589085544429796 7.87528750754839 0.6899251943137666 -0.9609035266736999 0.3608147336977915
Ni 5.501472637065784 7.760511489561127 3.724032981761416 0.07336437182476398 0.9373280533466051 -0.7678141934817615
Ni 3.2264212535693093 8.36567690767317 3.6346460720837785 -0.661843348475886 -0.0879147588351131 -0.21924593698264822
Ni 3.7022866114902464 4.2250709405305535 9.227535376278048 -0.5223676868443456 0.9747208921727665 0.24422163309137943
Ni 7.255534899222923 5.905926617293789 11.464897321312762 -0.014196860325672325 1.3222162830538324 -0.6985864695331904
Ni 0.4177556573892268 8.959024626849166 0.39741929196057907 0.37721888608742776 0.778270355818079 -0.17438404347295128
Ni 4.597220203285292 0.42504383980940363 1.4831464756776083 -0.1930397109009256 -1.5135948042022513 0.8567021148634214
Ni 5.969453514933207 5.574110890373451 0.45826781187929966 -0.3320705716855636 1.1178261801370941 0.12527417332017782
Ni 7.973870571650001 8.723329191656743 11.328439885292756 -0.45634612853789797 0.13010501904991786 0.3558920995851935
Ni 0.19449316316906212 5.068466735362522 5.6033060194320194 -0.541781315484267 -1.5828022164358482 -0.08388943972580391
Ni 7.776839760610168 8.648228165975382 2.6026849079536456 -0.06427732192183123 0.4356394921181659 -0.11505223848185346
P 8.387381780680899 1.6045007120344619 3.448082494689361 0.28785248240745265 1.0582331510648098 -0.0890576141903047
P 1.7630292795177724 3.119232017876104 1.5264001558979594 0.6149232868855797 1.1054398906575995 0.1675809045081888
P 4.775640393786909 0.9384606126854438 8.065375645991901 -0.036641048261801416 0.22320055075502207 -0.23310289747039853
P 8.401806590298257 1.597545409836224 12.363860658233556 1.1300695162808216 -0.017033558443519052 -0.026565666303670375
P 6.211382560785788 7.641161751451289 1.4767423653915785 -0.6959575165507755 1.2085059033118541 -1.6061426909340015
P 1.6929440100260613 3.1271525825065223 5.980698371210901 0.31061523002526503 0.19759776258525322 0.012688394100945891
P 6.873227828069721 3.921247824143459 5.89537819335034 0.6345554592942104 0.8270346697059756 -0.6255648257598259
P 2.4515951759990857 8.546532807115804 10.085859360575183 0.6100538746084203 0.4842006888563209 0.8275967128570327
