# total energy = -340894.82574465225 ev
CRYSTAL
PRIMVEC
9.05764520467559 0.00000000000000 0.00000000000000
0.00000000000000 9.05764520467559 0.00000000000000
0.00000000000000 0.00000000000000 13.25677931785560
PRIMCOORD
 96 1
Ni 6.370513656392977 1.8250068326380335 11.451086382966748 -0.3051336380854035 0.37013292577492385 0.8133653997489991
Ni 4.446189743234634 0.4601030189335381 6.138896080056901 0.2550583186955672 -0.07108740286512918 -0.9794463226728939
Ni 2.449051419651963 1.7212152753482732 4.772082914726898 2.1183007842351973 -0.5439173879906632 1.377218607431641
Ni 3.3460028590212882 4.390856588205125 4.917178240268429 -0.10060803803206543 0.23482836480193753 -0.2852824076874313
Ni 5.066049698128146 4.650955930131364 2.5538257314548516 -0.380128603535055 -0.10821104719030396 0.47049413790350586
Ni 7.3717367082520235 6.381627387154347 2.3689465105399194 0.6578910486963573 -1.629399604579413 0.7625976822778285
Ni 5.121808562485922 4.302010145631144 11.715797877870726 0.11058880339386114 -0.09579596135540276 -1.0168023947238487
Ni 5.437856979320865 7.8094655318092485 12.376158187879469 1.025984575443749 0.2614811915027755 0.9435285257303622
Ni 1.9373488070742757 6.345605131866679 0.5357108071629251 0.17081098140971226 0.0991193693016809 -0.41146135221006563
Ni 2.431298434898675 1.4032104071323561 0.43213391606635504 0.7814901483069573 0.3816825782857362 -0.011043145188039045
Ni 0.7994024112081188 0.054015267640936004 4.779254758261414 -1.5276155439613757 -0.7725632781309727 0.43293700558533826
Ni 8.58706437929384 2.275343898428207 1.4853297365551814 0.37539365995323093 0.2668864216787468 -1.1474668858216626
Ni 6.7347578037749845 0.7541205251483668 4.810235528184959 -0.23893673054335626 0.05472233124354447 0.3920299829583313
Ni 0.769119985735839 7.54741879614732 2.7193632566339825 0.6590385320372392 -0.34196957596683036 -0.8128498935651612
Ni 7.6108132554780665 3.9143519851944166 3.9243778927573834 1.893058263349482 -0.7097062335954358 -0.24272910770625292
Ni 7.6124889198552905 3.862170890723144 12.67944709980525 0.6745803364265801 -0.27593567636520866 -0.1686276006051483
Ni 7.966506985713592 8.798660030733416 6.655817707846243 0.2244925300935682 0.7375237700283362 0.65952395631409
Ni 6.595261008782437 0.7691371952618753 0.40176000837672393 0.7635603033014139 -0.10028330770279503 -0.6347143534695778
Ni 1.9768129675692128 6.385033061780488 9.269352342766478 0.5438412833370891 0.9716229699737332 0.0016884434460164468
Ni 9.256732325594665 4.64227870595093 1.4483826956841925 -0.8735801215656825 0.6203719687049768 -0.1531421033750395
Ni 6.359562963246688 1.9656539485814315 7.046468514284238 0.1988781719595736 -0.46294306502912524 -0.055348909083949835
Ni 3.468643376143494 4.099318159504059 0.43753770724176916 -1.3918654108105386 0.9346312232407322 0.07797256002073669
Ni 6.344337061527159 5.6343535360748636 4.601335431981394 -1.715715908579155 0.9135970282782523 0.5834118465408598
Ni 5.403908924802842 2.766050889241546 9.505150928164861 0.03935767586201609 -0.15889288981588764 -0.4789417544502268
P 0.24590057718171995 5.529819251871955 12.581651703692366 0.5691378531203488 -0.9985899854808802 -0.20909470748125922
P 4.0819274805620624 6.0154177307460825 12.614912282933462 -0.6732328212597503 0.4353263317531212 0.8175264731052243
P 2.5058519132172035 8.550743221711857 1.54693349941362 -0.6514792316327426 -1.302698524735879 -0.3123820921177007
P 6.344608790885628 7.685085946792844 5.605908001065832 0.1587468511563266 0.8458119503134788 -0.25086124989508407
P 4.463009790523847 1.0601068038392136 12.746857719054164 1.2760752657213958 -0.04669791827717119 -0.4400239943391067
P 3.990680761988274 6.183763125962723 8.15036088118257 0.11676150786347633 0.32784084987493217 -0.13485127548565162
P 4.687005358354877 1.0921708681385198 3.9095432813140487 0.2546587692643033 0.9883593088918076 -0.1872722122895291
P 0.16468791805165198 5.541802516580424 3.5113764408208095 0.9196874574467064 0.29670659036397284 1.0078194744989482
Ni 1.3143458492678095 1.0234595710270684 2.6196585088955913 0.21370546678039323 0.6890193946700456 -0.3163081666449843
Ni 1.9643949358871933 6.615713171829848 4.8131919436051 -0.4197487890298384 -0.35068175902884763 -0.15690465574126525
Ni 5.875812244010148 5.835940489477507 9.142564329869511 0.8894998781197326 -0.7525670375147039 0.04257875390247506
Ni 8.297111038517174 2.5470913721874693 10.146010127880832 0.8581398757512124 -0.4673216537127952 0.2521069493767271
Ni 2.2967742871661048 5.3306597474049635 7.035173630617223 0.6907770007911006 -0.47517894497368496 -0.009560904215557728
Ni 0.6600867691212174 -0.018454952262665733 9.224199981034262 -1.013575403146119 -0.3022720002668923 -0.42987173639645326
Ni 1.3250882165726054 0.9268688417367287 11.375403416281516 0.15701495606688445 0.1753086121697497 0.1411859594544278
Ni 4.1945774149379025 6.885422675400595 1.592948148976709 0.012695078969165233 0.616323509667216 -0.058281509349712525
Ni 5.675294092750813 7.944243293609723 7.698238553507257 0.04287751608981648 0.08377296875259765 0.7426330662304436
Ni 5.335315377080061 3.1300233072650845 4.792670036689015 0.2882363481094326 -0.8940461027295185 0.11264028660625118
Ni 0.751760102787802 7.366057564660029 6.944126180239644 0.5277384642379557 0.5018194303793487 -0.10869749990841926
Ni 5.054410623940404 4.65893571562506 6.78706027069304 0.2697110356117355 0.2884042411458646 0.5356960285221355
Ni 7.951371660446886 7.341692498850668 8.826893616842842 0.6840291405443059 -0.3449551409577156 0.7220719542496402
Ni 4.603367061818211 0.27668207890905405 10.53797338712023 -0.07498699502985151 -0.016874664268151582 -0.452635255345214
Ni 8.227974032077455 7.312689918656776 4.484913894110009 -0.04595769767703698 0.03586766043088662 0.880213053501168
Ni 7.251405890676802 6.218426734458047 6.855120323108694 0.46685114183427984 -1.1981369013727043 0.30767105979527654
Ni 2.3671521910094975 5.307019293218187 2.65595611659984 -0.10144724610390915 -0.5017608092272713 0.24167752651328703
Ni 2.468235512359853 5.14098359754853 11.467670931478619 -0.3924375028093951 -0.365182523748184 0.028928252998575987
Ni 1.1121429759859691 3.2816935775170295 3.89778464620858 -1.2075368545303655 1.5406464090034049 -0.8654549213553869
Ni 3.58673695533399 2.7507978145861696 2.8253911465439403 0.02340398074623711 -0.03616590839759578 -0.3496589741912881
Ni 0.8229278332998106 3.2313421273927796 8.3449172903171 0.722958984840284 0.7034070308502853 -1.154613781279089
Ni 3.750082530354806 2.6528937267298978 7.009190869360446 -0.46772583112974925 0.4637066826680272 -0.045405167607676634
Ni 4.268976913286632 6.937748692196385 5.82557220292287 -0.22645068226120355 0.03969577592772519 0.387388627531578
Ni 0.8932984910269774 7.294973164484617 11.537149411145482 -0.07616533160866883 0.1812100652558492 -1.0692917228718166
P 0.311825742604339 5.560896032835491 8.06106336787353 -1.0610099424789985 0.4934008672983503 1.0688782894834816
P 8.456253866127009 1.5916728325209626 7.987607676163215 -0.1113537065843437 -0.9701163035212196 0.4734843308800813
P 1.8225612684118153 3.2275560316647827 10.25931583577511 0.26101582183058275 0.27731867275566435 0.620804428256705
P 4.145530265734303 6.190438610535771 3.79214170622312 -0.6368928491781354 0.05239625421352912 -0.4292009355816737
P 6.90537666795748 4.182204671482294 10.433284217182996 -0.33617045278655006 0.27925779875990614 0.051319219099266455
P 6.318241985468882 7.710347719485151 10.294751155648486 0.010545893836646354 0.8222380196482808 -0.27042117430488266
P 2.5315393952377776 8.547083933017813 5.867596053974583 -0.6523328378822894 -0.649248799640327 1.3164210165282941
P 6.9674124804958835 4.04002681348619 1.7889229853624469 0.7177175339356864 -0.23071614240577684 -1.2058877489627167
Ni 5.376446144306939 2.9936513998949272 0.5839029146518768 0.9080532156418877 -1.3618994605760675 0.07839036428444562
Ni 1.5410134224571153 1.0374626906334887 7.176570719589995 -0.3349208966501651 0.26646424653966366 -0.8659634855606894
Ni 6.920267436801564 0.5472203570231309 9.191787197391589 -0.43027668514435574 0.09166908367122277 0.18259588985978228
Ni 2.7918380053602254 1.4977269356530516 9.195445580321106 -0.47629506085599904 0.41360822334973923 0.6247790966337368
Ni 6.538288419956833 2.081945056360752 2.7242281179151004 -1.3848709817705764 -0.4681176672515293 -0.09415019822186364
Ni 4.153356071258201 6.866483139115326 10.520977621512543 -0.5949404160057497 -0.03285766995996922 -0.4042792326393295
Ni 8.05462881666499 7.155304274231706 0.041640712656271506 -0.5739239616550825 0.32324191765034005 1.0766982997485328
Ni 7.361012456237792 3.9319238170420587 8.21480240430795 0.8888218782161015 0.3283980079299828 0.7723961564254891
Ni 3.019972917085262 8.231886934839405 12.606573814686586 0.4729783377779403 0.05915079932854329 -0.3739098763188528
Ni 9.358087376303487 5.009720202117585 10.291211427872165 -0.7376065595501298 -1.0947867818191275 -0.15229389644213126
Ni 8.73273848836891 2.2463141452984674 5.8391342152040435 0.0891116073566917 0.473207937290243 0.19332458913119607
Ni 3.538776723564265 2.462628829930116 11.417215318433625 0.11242405683038703 0.5666397692888434 0.05760530921829434
Ni 1.2651084895132814 3.060696090274438 12.440678512518804 -1.2262999940704815 1.6575783810064744 0.47586568662806433
Ni 3.272219280551754 8.353096344007009 8.093847514972778 -0.5549296799407669 -0.32584824492493564 0.14004233276828784
Ni 5.640204774927222 8.09607660147675 3.48089927597496 -0.30441090098676604 -0.8082702446142789 -0.2449088889663911
Ni 3.0307786879070338 8.594527879006447 3.7221460350106397 1.3829678512105923 -0.41268648286641835 -0.6301015372879147
Ni 3.674695748670307 4.269647179037522 9.227302224543447 -0.8999087321578824 0.3273911639320233 0.16925572110745044
Ni 7.379345130289147 6.139797315762488 11.373547504763176 -0.3976326738570894 -0.7836336770125213 -0.7478475205518476
Ni 0.6439224953504429 8.635432205101267 0.3117478468549113 0.5619696175066838 1.433391297968467 0.5127337632990072
Ni 4.542979740721185 0.5460591668979413 1.6434562963643424 -0.3135041215372859 -0.4777590469960353 0.7177208763697961
Ni 6.019303460572185 5.512799936386532 0.4042082898965269 0.0033771440023490223 0.8497969031031558 -0.11409681654711964
Ni 8.081421331410004 8.914625063282573 11.545011447250507 -0.6242147394898346 -0.7395639403868166 -0.7779093729342345
Ni 0.134915438008765 4.957747433487805 6.001516056766825 -0.6409397655539995 -0.9528865699064943 -1.4095957382107658
Ni 7.960981822091395 9.072771549911355 2.2456456910766343 0.07086500244167795 -1.0899466801180069 0.22868522801867713
P 8.501650784281846 1.4999913469736241 3.744165170691886 -0.07341168012293163 0.8534566113429302 -0.31712706300185384
P 1.7806968319170713 3.19641584718427 1.6179635537173374 0.3840266530378806 -0.58674373912757 -0.005884740915551155
P 4.689315057901861 1.0951961216628046 8.282610654184756 1.0403133333615953 -0.6771748366266337 -0.08010606142397171
P 8.47872588407237 1.7650814514504034 12.328804818343656 -0.39401281771631497 -0.2059859866489485 1.0710732402522716
P 6.346918490432612 7.773977677593237 1.2353233287669994 -1.234126946314068 1.1565037992129503 -0.008539919150211099
P 1.8198620901176927 3.34537788149681 6.152007021603015 -0.36405072413658596 -0.6765238333061961 -0.1033910000938413
P 7.0464857238102745 3.842207840520977 6.1278267317574135 -0.7136351363361968 1.172023492115104 -1.5963383032490701
P 2.4367511373586135 8.405377072576385 10.27572738326209 0.41677916487855315 -0.08835853124075106 0.214000886533625
