# total energy = -381171.1974955404 ev
CRYSTAL
PRIMVEC
9.26681220930938 0.00000000000000 0.00000000000000
0.00000000000000 9.26681220930938 0.00000000000000
0.00000000000000 0.00000000000000 13.56291637205503
PRIMCOORD
 96 1
Ni 1.55267290082529 6.910799257386761 9.384208708158631 0.7333914930275176 1.0561179044940199 -0.8580956527768383
Ni 0.18889191778404593 0.3582605158377471 0.5486406836449055 1.567885961445648 1.7065509542504351 -1.177315850862295
Ni 4.284380838640907 4.033315098440494 0.065684090839499 1.1065565207605457 2.5023935146243224 -0.651256316988659
Ni 7.0134477350082856 6.898251993804604 1.7576862916181075 1.3941166687385602 -0.7194399159434319 -0.8061156601651213
Ni 2.402921444540208 2.5010569846694803 9.33682008444635 -0.172082134812652 -0.3106327135267618 -0.316967397495538
Ni 7.602538980146892 3.7772452797065768 9.651086409843707 -0.44742928566424234 0.6920460973115113 -0.80692864298472
Ni 6.486481198181921 5.370497550713744 13.42180785383253 -0.4537691118393411 1.5756416941316669 0.27617761717268563
Ni 5.760676674145568 4.9389791785079185 2.0044364774239782 0.18231486828425375 -0.7789552977002456 0.45551977598186066
Ni 5.706817962225706 1.4660189408867796 9.633956707678555 -0.5755329580134152 -0.21903690629563566 0.2941627408961966
Ni 3.8693944592198424 3.630051236324768 2.4365238318926874 1.0181933615341043 0.23896732667097556 0.6967576438545678
Ni 7.970700158031296 0.9346506683133519 4.125486518302798 -0.7378269030910519 0.2426486321773047 0.7532041568780706
Ni 0.4879310175401934 3.0843472054340615 10.809739093622104 0.06518954932345548 0.0782227283583298 0.19302582694385467
Ni 3.0277362503207725 0.15955041063472442 9.029077594766745 0.9263142187346047 -0.7462236117951794 0.7076750620980199
Ni 5.509944539180722 0.021895623627709575 0.9420011036703433 0.45286536907814906 0.45624688395587226 0.6907345775889395
Ni 2.27357528126123 3.3583761060159976 12.77770510534894 -1.3312593670927073 -0.47532241253008456 1.253189362262158
Ni 5.491559183976144 9.099101333712243 7.584870876198782 0.5434803004532447 -0.22173527906340523 0.6414457586561405
Ni 0.8322273742258347 4.3451803928229795 5.366954848448266 0.46507476666014735 0.33954862523016366 0.958474348406917
Ni 7.864595159496814 7.716678304771277 4.027413065814589 0.02779028273939085 0.23244623772300615 -1.458711264790494
Ni 8.829316633071686 7.244867833558645 10.639131522790757 -0.8863068251037316 -1.1156553977380206 0.5950088073498397
Ni 7.578195064762604 2.0003896605803093 11.71085965571735 1.7054674913782695 0.7622883785675258 -0.6851650539209619
Ni 2.952702872754511 4.913893918155705 10.81239774201333 -1.1180547512081327 -0.8830672351205113 0.6829937573012561
Ni 4.7877077378025135 6.839240934357654 0.7113204967254896 0.5735454952697412 0.6932627433274319 -0.06513889859117813
Ni 2.9545191679259304 9.117116016432858 6.678610940113386 0.5839710614784395 -1.3080122236393088 -1.9060364207767042
Ni 5.4675488738274245 8.047086490164025 2.8910035111176167 -0.5061581669640186 0.5079602531697639 1.4462452711129994
P 4.1940201538627635 5.98692589154464 12.300439261853576 0.9191704086009718 -0.23371173469899104 0.1414078456572468
Ni 4.13686245683563 1.6899792556973792 7.470575869131133 -0.4077854460203751 1.5139588724098894 0.38415443686499645
P 7.023214954960718 1.8787164177193705 2.4216042644131663 -0.6960243652329691 0.6726149851700932 -0.6755005342480044
Ni 0.9898530679875799 0.9999538931755787 5.132817720590455 -1.0530384942377478 0.4379935941726392 2.5269094974878157
P 2.3968980166758054 8.022937177833818 2.096284485544024 0.11573152393706519 -2.742404452068464 0.23406886092809365
P 9.26378185152502 0.41094604934586454 11.831270758770394 -3.105612625699097 0.8234289546325883 2.184485093371754
P 0.02709059849045462 5.733024506841909 3.8904820168325127 -0.7561190165320204 0.5957672827824191 -0.2891231215897601
Ni 1.9337056807153195 2.4637302655343802 3.8180285197546344 0.9047382923360419 1.578992355771455 -0.7860230031803043
Ni 1.174716702552155 0.5872675365175066 7.7584493869890965 -1.8726449898004525 1.0566804618657093 0.5062484126849798
Ni 1.008090154198572 7.894749366067225 12.98066033717455 0.09927003594693225 -0.8716343106932215 -0.814156785302043
Ni 5.133841703327403 8.376197321862902 12.382141964087548 0.6145751595175416 -2.1885613203236565 -0.7853843411550409
Ni 5.718003004429297 4.058252089799121 11.270281121322252 -0.8393448545318963 -0.0749222032301871 0.11083742906955751
Ni 0.6280118559547477 6.883879168238929 1.8314547493328452 -1.4549669672567136 -0.3162593156849199 0.03751933710169667
Ni 7.115002728802119 8.977687561590079 11.111392361071402 0.1421364962931552 0.9487941450046756 -0.5093486488768583
Ni 5.496424260328162 1.3769370761783097 12.254338725023066 0.1909308920880389 0.0875334642362944 0.11294676210307644
Ni 0.6115326839989512 8.172985399342146 6.1064186535186655 1.4729124959915407 -0.5871291474914468 -3.281397149064
Ni 2.99386605209863 5.671112935207946 6.482924595698294 -0.17671603404023759 0.6337021101549796 -0.5030605018753014
Ni 7.880228271507964 6.533269332470184 5.8986613596633095 0.0005121637497281502 -0.38685280963276597 1.3860752864913226
Ni 2.9340395131869608 9.1883222006022 4.115735051930934 -0.13986852619458492 -0.18900025072422935 1.3642810734343667
Ni 7.80472228652465 4.916136486683683 11.763063314996314 2.5019217171942265 -0.4305242823787876 -0.9279638385228858
Ni 4.263799248968847 1.9079532098919723 0.5502938829233815 -0.7738498581528802 -0.030803358534101783 0.34005076167756276
Ni 7.852529770143811 9.039979072520104 1.815003377813346 -1.1541237290165478 1.1201000637729355 3.135171570303136
Ni 4.41488535343227 3.693241628028404 8.856991040724383 0.4801820546152311 -1.667713155447631 -0.4925647445503
Ni 1.0167638903233123 9.012651243639912 10.275862295013455 0.6581126777888601 0.3480237525807103 -2.666850271681233
Ni 2.966788427145114 0.6583115514751142 2.020074222841178 -0.3649184714535199 2.303222751124995 -1.0287626524095186
Ni 0.558996346165629 8.930704824247735 3.357133426513511 1.0439144204492925 -0.8512274649020953 -1.091461059880004
Ni 8.431724059960597 3.6187457255638886 3.8862776641831593 -0.7460215230867023 -0.4098163604074749 0.07255421721864279
Ni 3.8830630070659877 6.098572443714374 2.8360327817458653 -0.5295248667144171 0.5302974832143835 -0.4185935923794726
Ni 7.3918116730137795 8.488826156115138 13.279383438638119 0.6754159449539981 -1.2751902920132812 -0.6356324944084731
Ni 1.901994649712263 4.8554852014951955 8.374042788049865 0.36388385954141844 -0.5418106260603056 1.5131415187149166
Ni 7.270370100455318 6.507998735875988 8.721836439621699 -0.9315330439313827 -0.15757699921794152 0.24715449046745822
Ni 6.62218439456087 2.38423955134846 7.4216276409425745 0.01099480844860687 -0.677153239360079 0.9487663770905338
P 3.871599960499424 0.2253707236120799 11.100609498512911 0.0561220398045485 0.9536049361297576 -0.8790712265872409
Ni 1.5217495488506552 4.664755674871902 2.5957248837112763 0.13166979243387647 -0.06195073067118363 -0.006883614493710726
P 6.119672974863982 8.317788605202391 5.280694728023966 0.33221506768322784 -0.4795115109107677 0.20497580021687925
Ni 6.766060919211208 3.1160582364371177 0.028602015543814797 -1.296563615482735 -0.7769498372344426 1.3384931658369852
P 7.1345835027674775 8.708347667930276 9.061248259649915 -0.15845760205068193 0.1453323775226336 -1.6598262965003867
P 3.3952116841098463 1.8649459349401356 5.233034586717181 -0.022373482599193726 0.22089632810187765 0.8639785939201765
P 6.234164438348133 4.7323663359468 8.01050204267806 -0.33921438181919644 -0.6242165392620476 -0.18839141349563684
Ni 5.2370647232990715 6.827814955039487 6.909450936226344 0.3417610595004501 -1.1430065360574637 0.5744050150565592
Ni 2.5524136573225897 3.4368289372468213 6.829348612441884 0.5368823355207528 -1.905620159174892 -1.1030338523192682
Ni 9.042082638866594 5.3543918312855405 7.627689108183798 -0.20507684457111777 -0.3102624746715366 0.11324706695231464
Ni 8.260408504684879 4.743467976841499 1.73708431495943 0.2356284921057297 0.3580381993939189 -0.35607876167470287
Ni 2.6801473952963275 6.002503402683197 0.6492597294167315 -0.9544600850412013 -0.11831316862131236 -0.47676762961704344
Ni 4.854419518103802 1.2939342402068377 3.31184744246651 0.7164957457134434 0.32614880688448994 -1.6249089157979113
Ni 0.40785464082961104 2.8282773867001443 8.039812042666247 -0.721207806477132 0.8455836363527567 -0.874580537805739
Ni 9.002012943350167 3.3364508285895713 13.411811743621252 1.188300889118889 -0.5285748440963219 -0.11698982182419852
Ni 7.180296686852246 4.108960085605296 6.006161013418704 1.4744896106706735 1.8186423103317517 -0.42433486573862406
Ni 4.219837492370805 7.383499342560904 4.8252920743139684 0.5122555381110081 -0.4595558937244473 0.8116227060262796
Ni 9.003124960802056 7.893720749924228 7.930101327544011 -1.2485904300375659 -0.061843515669358 3.4036538757140926
Ni 2.7822213305677095 7.441870991973017 11.40841963592084 0.45846214643963623 0.09648193167883384 0.021962363203704108
Ni 4.506765795394663 5.772779130746967 9.499358115301817 0.9939442591787527 0.9109032834961732 -0.8659200339172636
Ni 0.07196050267420685 1.8858796634719603 2.4087196888706033 0.1586733176059138 0.6958081354571048 -1.0334849975858524
Ni 3.2459233411936443 8.946134066392705 13.456461097677044 -0.6522793589365348 -0.7465953933123014 1.1836248237994582
Ni 8.14065349192845 1.5205355964656755 9.255483421290291 0.4817504275436155 -1.6723151729960168 0.10116468186648385
Ni 5.388753170548934 1.1466845959524339 5.492479378417582 1.2468747328980396 -0.10328224243011891 0.774805280087614
Ni 0.8668046302111372 5.273501828472659 12.414245907923606 0.5707527630159526 0.42949892643806675 0.678996720326721
Ni 6.324571457186771 6.6811213195110275 11.04535427800972 -0.14617569935953537 -0.9998667953107748 0.6650775391424675
Ni 2.0490589577246854 6.829733185143997 4.355391493074958 -1.6029051578333104 -0.37627837655102936 -0.6327598008463683
Ni 2.0404500892846382 0.9706985673787786 11.96588325136528 0.23661193906492153 1.5062797585980767 0.697075946425935
Ni 6.1220082115129495 5.7664591648953945 4.309100986596416 -0.3942578438475855 0.5137154104859862 0.08422162625424204
Ni 4.94380718761154 3.8435400534634057 6.137233583791741 -0.5524328816608421 -0.131922788984947 1.20481431339288
Ni 3.4585132775586716 4.631877025544361 4.605397109971236 -0.28711740401364094 -0.8985658449767427 -1.2440953703806896
Ni 4.79824410315917 7.919677090613755 9.792548003261025 0.5505750025164969 2.113649658616431 -0.724738702448526
P 0.6765912650217623 5.247740090837213 10.291418492484183 -0.9923756291400523 -1.19992767472454 -0.5330565340167595
Ni 3.7801643255177875 2.583596480035999 11.284712327804153 0.13523128453288968 -0.23667081732731496 -0.869302320125935
P 8.394100802838327 2.3371919463214237 5.915533444452107 0.9231365923375715 -0.3074152350307286 0.2855688285795985
Ni 7.6903883588461825 0.1990566839755283 6.451770500102392 0.3550328369086918 -0.1553601940722808 0.3082253896368498
P 2.2398718856568705 2.738222506721271 1.6107999063979879 -2.014372937801279 -0.43805812886198753 -2.0253325221365768
P 2.973136193432985 7.2406699676777615 7.783920146724632 0.9103013882461162 0.9796041884069968 1.162868050868081
P 8.646723367471386 6.556871902886543 13.404189790669758 -1.384150558664784 -0.7787436959100716 0.6416655879764305
Ni 5.925709330818108 3.439127106647393 3.978694654566088 0.11479487105540874 -0.7244605090864749 -0.7337231653353234
