# total energy = -340892.0949051352 ev
CRYSTAL
PRIMVEC
9.03468302408677 0.00000000000000 0.00000000000000

0.00000000000000 9.03468302408677 0.00000000000000

0.00000000000000 0.00000000000000 13.22317184551085

PRIMCOORD
 96 1
Ni 6.627102769736566 1.9151992540565692 11.47272863182779 -0.7973865078222396 0.5534574662706145 0.3966469129050524
Ni 4.694827964385002 0.393469489126098 6.183076096752446 0.19537452968168934 -0.7100849570910931 -0.18041379460679896
Ni 3.048356328168819 1.539799131380201 4.672077728556468 -1.0877339887374042 -0.9994664745485625 0.5798899494305303
Ni 3.1693849446491114 4.287544444608085 4.601042531700967 1.2062086226372453 -0.8275260075200974 -0.08599054522920674
Ni 4.98521171791539 4.604472097453126 2.5778309292861694 0.5861333592370809 -0.46985547587824245 -0.12149542300403592
Ni 7.433565698437695 6.026061433519193 2.5651100953055592 -0.7017802938801397 -0.6001013913813987 0.10005087997701478
Ni 4.786891386446376 4.759163943629265 10.995848236764772 0.05530494321989185 -0.24732649726894823 1.7286359590749327
Ni 5.693973582222828 7.933264992921757 12.311486939184523 0.22634398148001017 0.37613953698031993 0.18593626708692496
Ni 1.958863878082342 6.401018856717543 0.5120397683009046 -0.8182780065592682 0.2408419179858691 -0.9116918408357395
Ni 2.8327345783241893 1.6053005847604729 0.512547517498142 0.23278973710535394 -0.0484984618210197 -0.9086916205568351
Ni 0.812218925383691 8.880144968303739 4.387038893621911 -1.0644629340246055 0.4134472722918428 1.3754846554596698
Ni 8.593095012883326 2.1650353492737624 1.5737162356746672 0.49831758787367736 1.012414035848166 0.13288823822200985
Ni 6.960410303268288 0.6630282978231717 4.784116835228021 -1.0960723333997702 -0.7643213498371547 0.6748166208071024
Ni 0.7278395014050638 7.400507792517915 2.6548299205384045 0.02291290004243151 -0.10165113458459912 -1.775235918321659
Ni 7.534257242978816 3.8293595195422787 3.9728230614065563 -0.4922718959002296 -0.037254256365768096 -0.2356968834498199
Ni 7.797654397716532 3.803972059680408 12.699164292895158 -0.08865703631777636 0.27198311947536385 -0.367444066088851
Ni 7.708247172523268 8.9312541713068 6.925160583198154 1.897092324209539 -0.5247017342941609 1.2576196301193696
Ni 6.78685403851863 0.9405376277581269 0.5669173376770573 0.69605419002964 -0.9478058129494773 -1.5007670563099638
Ni 1.8366426834163674 6.479069485097152 9.153674520278141 0.4682727047721548 -0.6909130121483326 -1.4220108240456673
Ni 0.1655415972608799 4.653548496730593 1.27007769838508 -0.2507481213559875 1.007736684977155 0.48368286867963795
Ni 6.530512971379534 1.9641853065017874 7.108407449174802 -1.9809210859007367 0.7356273243365717 0.06166276711711961
Ni 3.404584853042023 4.348754423456546 0.4537913586135546 -0.22084619159023255 0.5095347967457353 -0.36873784519961006
Ni 5.85117707033548 5.647047437552879 4.597670787921448 0.7368457701247052 0.11788585127590666 1.3620712102672412
Ni 5.345081220128215 2.8458619730499186 9.43497118942096 -0.23942601147494896 -0.09804027730488922 0.4356582611712433
P 0.350526736289992 5.815553314379838 12.342138908961523 -1.485915593119428 -1.9088674624675963 0.9925625483398777
P 3.9356887064157156 6.202472658167908 12.526231421288019 0.7833081753523026 -0.9333541563005215 -0.6204329038498992
P 2.3839908972283674 8.456761643020112 1.187286571717384 0.34763397334145935 0.22820340328625213 1.091828984742384
P 6.268136735846228 7.822039007740443 5.9521595316764415 -1.521220181957993 -1.3108553495150586 -0.7098656419914355
P 4.843836994812701 1.2119846852491973 12.6674290645995 -0.2046646967343637 -0.27882251099470046 -0.5326927229194374
P 4.0294777529730395 6.010142321676981 8.100634306599027 -0.6163965289969965 0.8220724406046939 0.6460932847304809
P 4.944880891999592 0.5988179006757335 3.859526326830103 -0.5473541815863541 1.0693212905581713 -0.9370544879702442
P 0.1671181494836189 5.528286526562028 3.652650150347143 -0.3582832255251894 -0.6629669205573678 0.17087731587127344
Ni 1.6266856799537284 0.9966249412180892 2.5191199438177065 -0.21865149793175892 1.2079351184100486 0.13710459029620262
Ni 1.6982223017282099 6.57288563570415 4.605498437467471 1.6867254348840757 -0.3387407846168876 2.2057067217546917
Ni 6.096604240138939 5.715973035875375 9.408167994697752 0.606950038872116 0.08173665504885923 -1.0428021612217202
Ni 8.628637456689946 2.270135819228618 10.033967976824545 0.5221576277160684 0.598448429159008 0.9329034419163481
Ni 2.5849312868325907 5.072107301172142 6.722422291632182 -0.9065979712526 0.08853927979298945 1.1288932365845332
Ni 0.6829597124855467 0.13380998283850887 9.087321096269765 -0.03453762876555342 0.2655108814874588 0.39890536992192593
Ni 1.5530530116710781 1.314447027702392 11.506910452340744 -0.3120483629273658 -1.6963529306715106 -1.2482361320219404
Ni 4.085167540371108 6.949153087970105 1.4506611397470377 0.5072961372232038 -0.1735839161691591 -0.22219062143326895
Ni 5.4434147123476455 7.7308700193183295 8.262472587206036 0.02143965793101469 1.4978249429625043 -0.7823288421581688
Ni 5.344765006215344 2.561450145131167 4.847482489493935 -0.43503682553716044 1.2857040470604115 0.35530203140967836
Ni 0.8431283836325992 7.492589283945739 7.045067995490241 0.15887720608660383 0.1849379077293976 -0.9597298180805729
Ni 5.026355665321424 4.216161412448426 7.588818598442099 0.6714109375596631 0.11615524173804513 -1.4404006394067643
Ni 8.322018377404476 7.347654895652454 8.932027540190848 -0.7630255138438666 -0.020205785523913587 0.5580839092990324
Ni 4.4924691295144745 0.7169870399153558 10.577677923701891 0.21034297806606356 -1.7509608478243779 0.11498821801313745
Ni 8.105655783535408 7.172345902357172 4.965380588236811 0.12977000430800228 -0.12235648545275057 -0.404140135958304
Ni 6.976772114588519 6.133574163895088 7.1661788275878795 0.4602588333287428 -1.2673057470588818 -1.0155716076405412
Ni 2.3733841791223758 5.158460803435402 2.5946245984645486 -0.9584051857318784 0.4824536242582272 -0.5056889406370839
Ni 2.3013958231866507 5.122665388498486 11.372628859037897 -0.39400484729651497 0.6097990782851369 -0.20017143684970043
Ni 0.8543783711842012 3.346627360154514 3.6485637631245367 0.5441801547337466 -0.2581387573931038 0.533205658000114
Ni 3.735272328438534 2.589304073513426 2.7277551731245473 -0.2930471392345147 -0.04194471986290196 -0.6339440509624567
Ni 1.1690789746143133 3.4611329353464537 8.10645264259584 -1.290069780228275 -0.0659595947202606 -0.7513575905876351
Ni 3.538289130086801 2.3486110777197955 7.028314078918051 0.5153650302742673 0.9570620414404226 0.024998321816550494
Ni 4.058045421330063 6.933604398140113 5.9858254717772565 0.01260791857199764 0.36108624219162333 -0.2465137715596658
Ni 0.9679488566623674 7.3337595528526105 11.088608232902782 -0.8991674831164836 1.0263208757372455 0.45549637894309297
P 0.13815295506470152 5.63429046483937 7.917731662053246 0.26843782532626675 -0.7758396348893992 -0.46182206405080456
P 8.531957311500664 1.678662212546377 7.963311638922691 -0.21028641379651525 0.009093734771152079 0.4703753529374544
P 1.5088553413350383 3.343456186342586 10.330801590709164 0.5905762254997828 -0.22821240214731664 0.1745416520967381
P 3.9725411792899403 6.171176515476977 3.6615628653484724 -0.3859837767642514 0.8195301337988143 0.8388419467535488
P 6.858119619796366 3.9525474253133135 10.635330947764723 0.1699252363706493 0.40633405828582925 -0.14406533788475187
P 6.609629692379677 7.788402882094271 10.19127084645267 -1.4226451151955564 -0.7670965985894467 0.2975697096952165
P 2.386249568034583 8.652507089770038 5.770341049117645 1.4933352826222668 -1.6372844066441286 -0.1347430320425615
P 6.987324624595161 3.9137524955457432 1.6381398513462124 -0.22486071206626437 0.047007736208106145 -0.06775602449905106
Ni 5.126758099999351 2.9314113885061657 0.6948403209262441 1.2659199224549489 -0.2789922038033454 -0.1403680915388228
Ni 1.3728020466517954 1.0817135878298683 6.885477544069579 -0.3503380025361837 0.8048087684282399 0.2386647078288922
Ni 6.797415583208497 0.8027451565540975 9.342502110082789 -0.15691108349916846 -0.8550332118014307 -1.1630901941812162
Ni 2.734681161284729 1.7518160426181093 9.209344431373115 -0.576562170608878 -0.814616755657597 0.07043742798595612
Ni 6.394685543776912 1.9181535954711 2.7009257778199887 -0.3087198127747651 0.5868851498014409 0.27013938139840576
Ni 4.013856785677248 6.959877256958021 10.14086363833618 -0.029354541902717187 0.6817781397266001 0.89117032384362
Ni 8.429784078910664 7.173276474729333 0.6716591307078854 1.3846596370907183 -0.9139215014972065 -1.7201675165926054
Ni 7.548766944237951 3.8020747762031863 8.454156040378061 -0.3156669335165596 -0.03452117370532119 -1.5540079179119752
Ni 3.301146764800543 8.2451422578441 12.367315860704252 -0.9642811848966812 1.1106779991280873 -0.018416297723658607
Ni 8.779299834147794 5.078015984001203 9.967864813541498 0.9844219215106143 -0.054206053728758266 1.736180861301726
Ni 8.535173658728716 2.4050597785087526 5.914725225202536 0.6916020677955572 0.1944944410695812 -1.1212380340321204
Ni 3.5123144158153146 2.7395689249093813 11.339729963542874 0.3013867694484616 0.5537207472343303 1.0995494933150933
Ni 1.418815688316033 3.240316242647527 12.688744592731924 -1.43498563903878 1.3013098719184686 0.47424846273961546
Ni 2.9999846341828915 8.508891765227583 7.968839058119663 0.3161533862346749 -0.3405487843599039 0.2703316999148699
Ni 5.700333999213133 7.670816479922652 3.1474189193244966 -0.6552865211939747 0.07470931588843263 1.066173488957809
Ni 3.072804180975304 8.24375091662747 3.394203098548331 0.8385370139186203 -0.01014197353000834 0.34233415839510073
Ni 3.225101836096854 4.1467118024988885 9.20642171134987 0.25809581997031034 0.9976862427196883 -0.13029888022827882
Ni 7.088359487098827 6.052451743219024 11.582057333531882 1.2714182265653589 0.03463121692062423 0.5221974798150684
Ni 0.5403770522356938 0.16372833633764952 0.38530032855417506 -0.3620457778914152 -0.0269022237074827 -0.3546898517469762
Ni 4.641740165755695 0.36921407507230286 1.4586477997178182 -0.2837721416904919 -0.7894924497861435 0.9238356752871252
Ni 5.8320687153148905 5.459550656587255 0.4040635586755748 0.12625890583095029 0.3816738365349879 -0.3011918798288361
Ni 8.028897114856953 8.954663035542426 11.234869816161801 1.4770051780036757 -0.29236219735234814 1.0585406550028997
Ni 8.987395692866112 4.740986160980838 5.938499994108768 0.18985745651820207 0.8397161218283862 -0.3058782295609119
Ni 7.693656159115111 8.856727069384888 2.577037684099026 1.388939495412995 -0.3640841484776826 -0.3738132028399885
P 8.565051356153345 1.4957731200254338 3.765139184243293 0.8077436826868477 1.1558641087464223 -0.8262371135053448
P 1.7927160535770734 3.257888701519889 1.648639056721828 0.9154572214154427 -1.2872305110072668 0.002076680023370617
P 4.724543037511583 0.9678856138797934 8.404119254273791 0.6764559561827381 0.30678402920463294 -1.0754001497623995
P 8.633181902352053 1.763416575878836 12.416281133378055 -0.43895390120337946 -0.3704993079754071 0.7248685431581711
P 6.535644671451257 7.607275552802176 1.135681364605277 -2.237577088100727 0.5560008015177585 -0.08853696580014431
P 1.8309960064008268 3.0569663812821157 5.813646996219391 -0.8080573572725245 0.5819560879309397 0.33215618942083436
P 6.595788557679184 4.031953256176653 6.048596643886974 0.7939584559772971 -0.14101626664578293 0.06278196832322736
P 2.430935111264766 8.65252515913649 10.253525234681927 1.0331782649787111 0.31312205560751877 -0.27599249774507306
