# total energy = -340895.061090333 ev
CRYSTAL
PRIMVEC
9.05265663828687 0.00000000000000 0.00000000000000
0.00000000000000 9.05265663828687 0.00000000000000
0.00000000000000 0.00000000000000 13.24947804669421
PRIMCOORD
 96 1
Ni 6.486871284774811 1.9960836507184794 11.471239637449623 -0.7715312373220325 0.2522092792825463 -0.4842706228623079
Ni 4.5491048487029175 0.27950168176572976 5.867398890092342 -0.1742652585068999 0.2606594669324285 0.3661999092691048
Ni 2.835762825593387 1.7830384272641526 4.776383564331853 -0.6132986067979631 -0.714933029212014 1.262154798985562
Ni 3.4808732493973404 4.262153735715103 4.890554765729135 -0.672102564310049 0.5396159324018319 0.20819919225018335
Ni 4.8990352945526245 4.4404367573310415 2.70091897729034 1.3861909861335804 -0.36915590657363523 -0.5485425454675004
Ni 7.350440420756882 6.408529593444237 2.695314477509572 0.23216033105147116 -0.40164308056806314 0.046022746587017514
Ni 5.257411869130253 4.468943573369866 11.374305599729547 0.35388329668528085 -0.9162290665844608 -0.35716479565003006
Ni 5.4863445051435304 7.567314918007469 12.432608245135034 0.20982104412432248 1.504672047791325 0.3565870687696891
Ni 1.9406632862250917 6.403786001318373 0.38034737245829603 0.0872059056935466 0.5793603021793055 0.30111191852052016
Ni 2.6623410806407852 1.5821599744532615 0.35334148690509865 0.03519865938832002 0.8622950355701666 0.7550998312388866
Ni 0.479693037930909 0.1299608452635617 4.829778849515021 0.5150282157601388 0.29192228160145206 -0.06982524832325394
Ni 8.677152527638366 2.2794408589849824 1.3707777240400054 -0.022044895615181387 0.9955758812449047 -0.07313580075372567
Ni 6.81612546265606 0.5026940281473089 4.7354429242760965 0.5822311959691973 0.799208648632643 0.16097934003127115
Ni 0.9076012583106949 7.482201839443791 2.8531031895573014 -0.023593985269856142 -0.26232271356746434 -0.619848492101339
Ni 7.574529885420279 3.859745038808851 3.6737491536600193 0.18701124531865856 0.5425035383622722 0.26554482004918784
Ni 7.637463954998527 3.9684402881509135 12.397669516490437 0.745429398028658 -0.063715021660458 0.5058457779299225
Ni 7.942592802697666 8.885571843504303 6.9170490061964935 0.07960263942499193 -1.0164840921524816 -0.34184204925003064
Ni 6.988424678174297 0.6656400387334053 0.2539713792593181 -1.1445299146805257 -0.1783697675935767 0.6173650635578529
Ni 1.6831876235460754 6.525987814499725 9.512330721587743 0.754744504781997 0.48394152165766335 -1.6966558066239101
Ni 9.08280207565351 4.958103879707697 1.306917567678407 -0.5631862635226043 -0.6507066151327762 0.25972487093330104
Ni 6.477936312583537 1.8541742038386448 6.904396107886724 -0.758969598606938 -0.02068529626349341 0.7125578441116179
Ni 3.2790985835703035 4.173989911833838 0.38784116169835264 0.30721417476351603 0.1529523559617366 0.18892928827697786
Ni 6.114444986954168 5.625465733750911 4.826917304723064 -0.7991304870965399 0.24236323972640192 -0.5304594627135445
Ni 4.9881858580173235 2.7929890225500587 9.379928374804436 1.507509774350436 -0.06660468450342723 -0.048577908908703435
P 0.2560009848979032 5.819916800284392 12.37207131905856 0.2120501905651574 -1.8052010972251813 -0.3115837645861214
P 4.214319497560405 5.839769276490533 12.469667105985506 -0.5528152047009254 1.0344630452284056 2.4296842598850543
P 2.403643309303388 8.334174522156337 1.4302283313090312 -0.21317556241885222 0.3848776881842662 -0.03660633836912405
P 6.204790501107061 7.734182539488457 5.796527451094328 0.18089587644954006 -0.2149791912864943 -0.11044045074145496
P 4.680784793479269 1.0920219811887244 12.589958808597093 0.5242512770203036 -0.5443814721112753 -0.23237090440038047
P 3.8760217156071373 6.329662848023394 8.185129771242904 0.5167112598895165 0.1136234764551269 0.3994303891874605
P 4.679961001716952 1.0295405444469141 3.6716951058482667 0.4045651393108645 0.5882933430028772 0.5742931720690433
P 0.22986777545335693 5.599022923446242 3.671562937060027 -0.39695081729871634 -0.5071961213102297 -0.46943895716611406
Ni 1.5788376494338114 1.1048133851464437 2.6289883774550633 -1.0578603411064234 -0.5802388481295169 -0.43174221394628876
Ni 1.9993788177677432 6.421927525402782 4.806499942737048 0.44467486284755675 -0.029045238192414495 -0.05292101636874756
Ni 5.875807902927675 5.741031949550092 9.245459306489959 0.0041484749507347905 -0.17282801183974106 -0.07723748162692504
Ni 8.679053585551403 2.3099754701310453 10.11773890877643 0.3794336343505595 0.2938873757476229 0.3049508326506361
Ni 2.283242974811056 5.280369406594355 7.113009150606657 0.10304235850517093 0.3044726074626369 -0.16724486132500874
Ni 0.4729759666381789 9.058993588456905 9.280371782430043 0.7366519089463442 -0.36663211171051696 -0.07680399363393225
Ni 1.482037591033322 1.0526791350455909 11.468549187869838 -1.2304129877975907 1.726463634013962 -0.15923638919823543
Ni 4.255128874093596 6.672333063176646 1.4486314771729005 0.08074832299366094 0.6207974862781696 -0.10211444737426285
Ni 5.713883032020581 7.995279264858972 7.939842605583473 -0.9432960980045819 -0.12453189583751455 0.15006603555287704
Ni 5.306314320778943 2.865111538707984 4.879955009965446 -0.08024130145025536 -0.9132692126251885 -0.6965249590184714
Ni 0.8021414284834865 7.2908196235413545 6.8577314729813805 -0.5200436666968592 0.7762677235657535 0.08179244798745913
Ni 4.8458780942414235 4.495015224748657 7.267021094267153 0.9690778349543763 0.2160055756684796 -0.9510384609541621
Ni 7.93808457964675 7.308752936521002 9.043564240328429 1.0149918238776714 -0.34383259731749816 -0.25305697199482224
Ni 4.795961745039114 0.4062062864039613 10.260290189018333 -0.7002558868158134 -0.7368084891288665 1.5846636951246191
Ni 8.073412745084786 7.300451650300742 4.9422409093219155 1.0501462602916174 -0.7462632067838632 -0.8445996751729326
Ni 7.227514395037229 6.071462972806079 7.015399784694618 -0.11739579901336555 -0.611844647960256 0.14213598207252298
Ni 2.313976744405151 5.1639612937194 2.5522073641445244 -0.14151274666622726 0.01207030090097276 0.37189258877850784
Ni 2.435762135376982 5.302141046026991 11.444753374392654 -1.2229110229935907 -0.7898305498518526 0.1226123102172985
Ni 1.0186139877753166 3.2400182644723037 3.7763927019789145 -0.16628095474984264 0.8508335718977863 0.5572249037328468
Ni 3.427037099831483 2.5951794203702128 2.702138370151702 0.6798549545619582 0.6913184751168675 -0.5995771434468127
Ni 1.3123183826827776 3.3970999640295174 8.35906932816039 -0.7255506568268602 -0.3656298956982478 -0.8949220775765684
Ni 3.580461526070284 2.456972510092436 7.133439186312092 0.725192759266809 0.30947134622880895 0.07848035289509064
Ni 4.193063859561307 6.878489214860397 5.961880563104598 -0.49661526047058985 -0.33877832272304237 0.008695985112101153
Ni 0.7724595776012715 7.678209962934616 11.391092846367336 0.13451754629531673 -0.3755299284207791 0.7596877077198853
P 0.13237247301609983 5.727072752874364 8.128303529159542 -0.08642326189125117 -1.4400504551561972 0.18902544753520992
P 8.590989340894154 1.4843007552155087 7.998061146271716 0.5059247107969739 1.7964392918721515 -0.3207132376912154
P 1.965241249243639 3.3849331933860825 10.365014037853495 -0.814608528127481 -1.0709827374209944 0.996850119971638
P 4.074465003757996 6.088119861186972 3.7140144655238125 -0.5150482703647968 1.1132221057061795 0.37313391738477675
P 7.016859072959291 3.9498732892002537 10.192625201033641 -0.13387811293910493 -0.09152741588703592 -0.3428470934757773
P 6.247944515732996 7.797134714380163 10.188318852227777 -0.6503044945983509 -0.639587365291163 1.2279490996381304
P 2.3585882367644158 8.406767776464157 5.805046906341752 0.14922579903976882 0.7788349700722974 -0.7013308650475469
P 6.819855157228304 3.7454190369815077 1.5364621632865476 0.5242229948855295 0.7622680668525517 -0.35586715988452905
Ni 5.085972656001246 2.6170868496537802 0.8627009862017837 0.16747368950636318 0.5725250244250268 -0.8334392876807388
Ni 1.5712515230951216 1.109448345391562 7.065151375544464 -1.2307045508960806 0.20148784166827882 -0.774413443965834
Ni 7.098450668055485 0.6513621885408258 9.326944080236753 -1.588708297507638 0.5524056279673325 -1.4070354336827575
Ni 2.63456752979699 1.3572648233410052 9.273733469250853 0.6074722299241732 1.9821248764008508 -0.3552148710125108
Ni 6.548610403664864 1.798971103106747 2.64246235173013 -0.9178941129917095 0.062255149285479885 -0.371650905081347
Ni 3.9755828343098947 6.933972947950886 10.562616334194253 0.42781176854363095 0.716652840116598 -1.0702168057892472
Ni 8.221523261823812 7.175742251205526 0.4006588183605852 0.4798413834463607 0.7832223005067157 0.00989206230273135
Ni 7.896460464007972 3.691881625087699 7.942955814232488 -0.25424790697912986 0.7445374823420081 0.9666537988939158
Ni 2.9022907998929477 8.620609633710613 12.497835352662674 1.669538381581828 -1.7028061424960224 0.07986103529270118
Ni 0.13865592205152297 4.683491537841164 10.281157468043766 -0.42230472268247266 0.8904072204253505 0.20539129048774304
Ni 8.62835870787042 2.453595869132613 5.868472535180371 0.534731350616021 -0.05124517132822142 -0.4646924436200642
Ni 3.630821455452302 2.640189229625542 11.463938669797889 0.1331566613920481 0.22207749289417236 0.15519127259458435
Ni 1.1044693841907514 3.327240612053779 12.540988462022936 -0.2733375766207293 0.4006722320143616 -0.13688398964496426
Ni 2.9743861580806867 8.443476299499226 7.893813467180487 1.2042831234797582 -1.201031706421996 0.7395991645001262
Ni 5.518934069367019 8.079912552616026 3.3480372803567287 0.14956081378168434 -1.491382786881586 0.5389777845972007
Ni 3.0487718384207994 8.49437033562824 3.6224070110229323 0.40525753739219883 -0.47242169394352185 0.5024915167457088
Ni 3.4318350078977193 4.456233643322705 9.236608524006263 0.0681216353685859 0.7746325019551755 0.31566436241339824
Ni 7.353500218731198 6.2664300407730975 11.41878492330057 0.20805701024536424 -0.4602873725738331 -0.6226592220772567
Ni 0.4630777917709672 0.09656287879419619 0.3566511382051285 0.9169363770641304 0.06874358522330097 -0.1601445028348016
Ni 4.544198308755938 0.34279423655043584 1.515461810207201 -0.2512320029709415 -0.8952308670662389 -0.4579864923547983
Ni 6.387527429833544 5.616675604067298 0.47255230230327355 -0.8602219550912217 -0.4939055748489107 0.17694794754538556
Ni 7.845448743341485 8.877985717165615 11.316471796952275 0.19020892632034986 -0.12333504731593598 1.1815730834767522
Ni 0.20944679240464995 4.945439212944182 5.77967412006242 -0.7449833116301751 -0.25236508813412023 0.23213796245396795
Ni 8.262052005998411 8.982842640054686 2.4705107582302763 -1.149981167603084 -0.4800614698769668 -0.19978217183108174
P 8.475676599483378 1.7282064854581332 3.6076873911819898 0.5079427696682671 -0.45724164376897386 1.387559841456649
P 1.6226344026874882 3.1996253101486354 1.6342435296764333 0.3964520232854269 0.42486579854142953 -1.0894566278554658
P 4.883500935606095 0.9872284268967516 8.236220250022933 -0.4421050452378515 0.4119048675053874 -1.634397829124953
P 8.550632597197401 1.7728813464144986 12.406281308836496 -0.06827667288921144 -0.37686253118927354 -0.4060684633292684
P 6.387961957356524 7.900036263415828 1.299680873889447 -0.4605090016663359 -0.7341903347797292 0.5814133280535922
P 1.8031805884856142 3.352262155252035 6.119960770698994 -0.1575381755602061 -0.7198592628690377 -0.8754894227732535
P 6.74872843331054 3.9167134076028542 6.035746620948482 0.8856445089293844 0.4875387520906184 0.3326277297406142
P 2.478191937464618 8.618853418305237 10.271856768520653 -0.14576997928068441 -1.7948981726372766 0.05319998106174709
