# total energy = -381172.51468652237 ev
CRYSTAL
PRIMVEC
9.22485167927827 0.00000000000000 0.00000000000000
0.00000000000000 9.22485167927827 0.00000000000000
0.00000000000000 0.00000000000000 13.50150289492907
PRIMCOORD
 96 1
Ni 6.8191670671851 7.975373057486611 4.6008660993194965 1.0896260635537944 0.049154607347779856 0.9962816490626778
Ni 6.3575093727905205 1.1983727866063887 10.481459873298839 0.09980148297037006 -0.23951985674033588 0.4732002239807593
Ni 8.937395923260079 2.165626143192559 6.245903429142536 -1.2564338373413846 -0.5670730001715202 0.7937923627130781
Ni 1.8000083779885472 5.572474508308979 8.926883282466152 -0.8419015595154791 -0.417772639140074 -0.7940415026094066
Ni 7.288389139827328 4.580858318854467 2.116454917127389 -0.2797267679765247 -0.03312609313000747 -0.2758495444093056
Ni 7.7970013284664565 0.554667259860328 3.349547277405331 -0.4526275420357302 -0.3247519265369633 -0.17111642846527303
Ni 8.674552228857346 7.524240918678087 1.5204584774803374 -0.7495007398845543 -0.14215397979465194 0.3468040212409963
Ni 1.5737688944232144 3.240773363174454 10.265678603903456 -0.27221271898766664 -0.4056748274352755 0.3428008136188741
Ni 3.9044922052964575 1.4054153541554335 11.65937101674534 0.4007005141491357 -1.0306542130052765 -0.3485462007430836
Ni 6.948914603835311 0.22804663197839897 0.7066466886774069 2.3191993290589092 -0.8911420417088459 -1.354418321707674
Ni 4.612250488582207 6.959596981897233 11.538019939950019 1.0398286804156929 -1.558636417822922 1.1819080982186678
Ni 4.236097942940616 2.3622354036707627 0.5231625469440253 0.8268544353743694 1.7848251046719907 0.2572524981334086
Ni 8.70493888976924 6.2648826386629155 8.319274599723808 -0.7472708221127711 -0.6310011662840488 -0.014703367648445646
Ni 8.78923558297291 1.9459547539105504 11.431519951619197 1.0371066534988398 -1.4706080162280804 -0.18448925022775323
Ni 6.737997598647226 3.0652152138683646 6.785167031932226 0.5543164718368001 -0.02931031892834307 0.03287721034399499
Ni 0.6482838205561922 7.778339453838417 10.297420395503861 -0.043166508085145015 -0.34736760705395014 -0.1426538022492059
Ni 2.624433358466989 3.398822744292694 12.557032093453145 -0.5663785452076567 -1.6203544636580092 -0.6976243627302373
Ni 0.7493568287369026 5.333596978159161 0.9705364812426803 -0.036695555648820675 0.9452959020434301 0.4279575500928759
Ni 8.185376802374066 2.143486499540906 8.72604811750594 0.3482998890602324 0.03647752610074363 0.5714747287836416
Ni 2.7232407431140135 8.269977915677945 11.940634894666248 -0.11105211618352488 0.5682737053478406 -0.9184319877730506
Ni 1.4315032342582987 4.539660131959349 3.1642928866649696 -0.05231115069889055 0.8966007508305721 1.1826483188188022
Ni 7.1181076055915495 2.5929858396301197 4.481324015907546 0.6854733291900001 -1.4234295587700647 -1.0403148760234922
Ni 5.858066686563785 4.242988907027194 13.271261610081243 1.2682326297485256 1.2399240126118194 0.8993885979883544
Ni 4.875656898927753 0.9097889890031522 3.8696121192084294 0.8127064260087616 -0.10657376869719709 -0.6325237735761623
P 8.319912036963945 9.054145644116463 9.499738259586314 -1.2770175750300072 0.6607033213341719 -0.2753489506238032
Ni 3.0759713907424593 9.170498696357424 7.922451929277942 0.05173548070107864 1.205998563508968 -1.1658554156311791
P 5.399951335153469 8.845903845869621 12.421004277887082 -1.086729715842606 0.5979491209250863 0.7358931764034489
Ni 4.176523851814626 5.338855143526428 4.530131782822768 -1.8099985186138248 0.7832719227977284 -0.1898767397919117
P 8.687513145245084 4.149808681808298 4.725579634494412 -0.8331932331082038 0.8923334909137859 -0.033153346823517095
P 2.0560256822653535 6.533473415563557 4.889110422386741 0.4264015184596656 -1.6077437168725341 0.07705133375804794
P 1.6415623282548812 6.282123886156641 11.622336927827035 -0.028885058465466382 0.009481457127873993 1.010152750617815
Ni 0.6873104774031441 4.618117494149895 6.6185173217404705 -0.18167723470025485 0.5753560661159188 -0.31811153840231016
Ni 3.9466221021952492 7.708710274553968 0.8045860147962562 0.13910979365168946 0.41273507671616655 -0.9854945857495028
Ni 3.64041238078984 5.158343248953281 13.177723460623314 0.8786179410999062 2.3855114220225824 0.7098062495084099
Ni 2.445683410534453 8.624442835392436 5.002536429239922 0.4494612284926065 0.8321167122145734 0.880488932870374
Ni 6.1793313656523186 2.0750473261027325 12.715580539038701 -0.15418031483156672 -1.7352619490318824 -0.2486860966206362
Ni 9.013971415740235 8.480249181259522 5.706450716896654 0.44322424644395925 0.8545236191548637 -1.3863030862314125
Ni 0.8697660481918759 0.8686664458905103 3.65188625111231 0.8747468881802742 -0.1810048912235786 -0.49890097118097304
Ni 6.232014492691731 0.7726357415514639 8.181545721537177 0.2804268793673429 -1.232175221904336 -0.10563891558775354
Ni 0.8739227662874738 7.842931864192115 3.537447355562066 -1.8152710798666736 -0.9258344508847088 -0.7914297760181723
Ni 4.971816751188101 5.866119981942074 2.0296407619434955 0.4091062217143277 0.6218413541616516 -0.2931834077020628
Ni 3.4738576865687563 3.8341619372963716 8.563462876894565 -0.13077607697501348 -0.8293031540251783 0.2577194104674981
Ni 4.84776094792667 3.524852665779731 11.233750204819586 0.29363026543149434 0.439306913667424 -0.422177453075989
Ni 4.5750835618019945 2.920947760923278 4.86066282526467 0.03324256410321372 0.020597621645693558 0.8608297638785498
Ni 5.044370208404873 0.46939642233598516 1.5553459434495824 -2.8529194648015963 -0.6505546629359441 0.9822547386559664
Ni 9.170185051405692 0.07966766271017031 12.836864274417914 1.091273112238914 -0.1550197800137266 -1.628574023354324
Ni 0.00995453727687464 5.180501342307977 10.520857369176955 -0.6525194999717988 0.3729117740716416 -0.41650585661250844
Ni 7.286258199125856 3.3910646441630945 10.974858436808672 -0.8697180675071151 2.130641822299053 -0.3124700238458167
Ni 1.4358573641764572 7.557478058710132 7.42320757735892 -1.3625219246514146 -0.707445205475401 -0.47535866508465874
Ni 8.683694056715174 6.959532407936583 12.599575263700103 1.5232703796188023 -1.6198322726059522 -0.08418563080998404
Ni 1.202459395830423 2.728757204323884 1.0195582647132018 1.7448663048908657 0.7076084705261426 -1.141925130067827
Ni 6.512542227461223 2.175229213626464 1.9760803515243857 0.3216864002377621 0.5798089596809499 0.43742486615336273
Ni 8.228595231752395 6.304226630402208 5.911092978079799 -0.20794799547132575 -1.1590774734773974 0.1225770861039889
Ni 5.074387875255907 5.654898556653779 9.357527026045373 -0.31454953208266473 -0.23123473391340818 0.21095438639781733
Ni 9.020225865071826 2.849372137967787 2.6528025443511263 -2.057403434529192 -0.37706693389059576 1.4893079066304287
Ni 4.546292800203323 8.682199630768688 10.045793198066148 -0.22895056586492182 -0.2668002897228437 -0.30359149040926425
P 7.9764892645207155 5.122172606137392 0.133891339953678 -1.1699324139140304 -0.08716502515328214 -0.6512799711377428
Ni 3.168219905957682 4.986336667482977 10.634715099081344 -0.05536844946797562 0.8518111053197072 1.7487653828349559
P 4.073233189328142 1.3798809651438602 9.306058811951345 -0.05138323956798247 1.7950115582866895 0.02113472509608618
Ni 4.628375529041828 8.850802242027548 5.745834375497489 0.33454808669177866 0.023346902256056564 1.7997573005017908
P 6.632280800210581 7.452176378591956 2.638908995474562 0.07203125483563724 -0.6672732612422057 -2.2746739929530246
P 3.108664264534734 7.1930041750947895 8.873079335966873 0.9629053875950772 0.4820427619730537 0.5691249976045424
P 2.761837521880063 8.96097464374909 2.7192832818112804 0.683767659352803 0.35687991741975955 -0.5279279545409424
Ni 1.512783401014431 2.2118979984245146 8.096823762678364 1.186353535584531 0.9004440358360623 -1.101070300834994
Ni 8.178006146008368 2.444926972709688 0.3377965355002533 -0.10520388493286396 0.9405501598283286 -0.6315850638119768
Ni 7.315906871916029 8.046312165687116 7.277134820971071 0.46190871022734 0.307835867507915 -0.08409718486123581
Ni 3.1765499468816163 6.189423353216863 6.844856433702236 0.797627163078136 -0.49054797123058747 -1.0539404372267267
Ni 4.691685685034035 7.685555897234947 3.740483570095313 -1.3721990427298627 -0.45257483442092383 -1.1040990603589889
Ni 7.346256633421838 8.55326388105237 11.675289420530877 -0.2611546614012921 -0.13678705905578378 -1.1434341105131856
Ni 2.552313469271728 0.858053254214999 0.27890877332746394 -0.36197327278226693 -1.2567307997565131 0.9363952571196905
Ni 8.35048319490627 6.199985808209007 3.570337641176901 -0.1174356511123655 -0.6286591484144334 -0.07314479961479016
Ni 0.06247715189981363 0.6648534988591503 1.3556048458798222 0.7178805418761119 0.09867971066110102 2.5786552626015395
Ni 0.35447506705116544 4.08158167995512 12.494506972325421 -0.5460532033867435 -0.25894171291037343 -0.09475157925128844
Ni 1.5258642404719494 7.794012476573484 0.2570366503699347 -0.2908287914269572 -0.9601571354259788 1.2242816780888721
Ni 1.8900706033931687 0.6298940790480376 9.92869477782225 0.0943358318701085 0.5748811833620292 0.8755202760111889
Ni 6.96957827124352 5.910814387563849 11.21731889928945 -0.45327931668711613 -0.5817198035504175 0.8330708485977266
Ni 2.807223791365952 3.9095566487817726 6.079186377534672 0.3392745456331705 -0.9558345967912248 0.09682851638497518
Ni 1.1403761450905783 2.7710346988470205 4.693662570715098 1.7802107458284309 1.4468970457643855 -0.5837604881295302
Ni 0.32691490064546563 0.3083674141762931 7.699488190487902 -0.7119549204202965 -0.3745675645075098 1.0376244736755227
Ni 4.972158070694397 3.7067021638234987 2.7486090847982 -0.47848512652878233 -0.3698465048827566 -0.7218384980825955
Ni 4.980977028748972 7.701136671454798 7.848437255580161 -0.1150218994645503 0.14707275725250799 0.05009074600880406
Ni 4.9640771007615445 4.547372107831341 6.800072547020702 -0.24085528772230777 -0.31992802278575866 0.1002668526425628
Ni 5.744425740670153 6.5838134303165035 6.065603706154383 0.002352816502892722 -0.5422865372554596 -0.4366440221232803
Ni 3.115435305551532 2.1605248003011575 2.640947687660818 -0.7600324926538136 -0.25277929285340334 0.4062029320246036
Ni 4.5473628829798205 2.0509889133346024 7.255167682042871 -1.2792793744809905 -0.1857272363999124 -1.2290626444172834
Ni 6.491472666586066 7.087471873688575 0.2870367900030772 -0.5913930649741235 -0.6271285707025199 0.08107870974988617
Ni 6.713007475875423 0.6525327871670054 5.850241245018077 0.551770565486495 1.2778272154154962 -0.04301198478515173
Ni 6.288129264497152 4.599640116552287 4.537179569385211 1.2606900415145772 1.6793530536794046 0.2337338461861781
P 6.655887195254157 5.246486705241425 7.986962238453099 0.6909114694864359 0.4002767963481558 -0.3796825171365719
Ni 6.73784077617136 7.429132699491194 9.470548061916759 0.42968224609346645 0.4459753268265351 0.5294338496625076
P 1.942430860629329 1.2710922911505484 6.01849700185973 -0.21972004840558934 0.05650539128589623 1.2453588104741455
Ni 2.4665407998246147 6.664493981723737 2.409910358819142 1.0203083509945783 -0.6668428585730064 -0.18502069725119102
P 0.1977107077498731 3.944481936642256 8.582716064505135 -0.24130497366521667 0.2002647678944551 0.8250364083290244
P 1.6621152974448328 1.5126727027961728 11.997813291852099 -1.1229840701889497 -0.07673868761363559 -0.8354874284590192
P 2.691415005364762 4.338908913147982 1.4781846728978096 1.6394940127009376 -0.43511832950737317 -0.2688116637259177
Ni 5.9193658249243 2.9813520886862057 8.971640417078273 -0.6496182671646038 1.6559549864704384 0.6016011158553768
