# total energy = -381166.05472276855 ev
CRYSTAL
PRIMVEC
9.31924872137319 0.00000000000000 0.00000000000000
0.00000000000000 9.31924872137319 0.00000000000000
0.00000000000000 0.00000000000000 13.63966250782570
PRIMCOORD
 96 1
Ni 4.243398789859513 1.1206303486907863 7.375620677008763 -0.6140894781303747 -0.839993800969805 1.9461857393020805
Ni 8.87049901047226 2.660347315820185 10.57920843952695 -0.43464550363601273 0.49665742656243506 -1.4751336720125756
Ni 1.0078394804905968 4.779264914983788 8.795945952014467 -0.3516495222587557 0.44400869001846754 -0.6454196557022239
Ni 0.3471942055125985 7.294036245333001 6.8562896950264856 0.6917072259148539 0.5766431603584584 0.3074972532215737
Ni 6.860737772477692 5.2016132705016425 10.13553764275965 -0.36190051056280254 -0.5869525127042666 0.6902509530843016
Ni 2.8022235595184153 5.760283597434218 10.23506628799564 -1.1795323988976396 -0.6089927803337576 -0.3350736201779455
Ni 2.593546940437308 5.924330334022495 2.3160691032564285 0.3583819558865827 -0.1270783164084521 -0.7586482107117773
Ni 0.943685771766305 4.30073080846379 3.6413939560170077 -0.7199253402202827 0.5794693169533439 -0.32716439263319785
Ni 0.7703747699480992 0.5543741532367737 2.412214861178806 3.1342431449515957 -3.343576707916539 0.9293501773474511
Ni 0.18351837502647372 5.575184677811631 11.160558090333934 0.5578669081922198 -1.820452624067613 -1.0856074293127047
Ni 3.880954565614138 7.362001526815607 3.95147891281663 -1.3762408168994038 0.4795971286460386 -2.4735233685571916
Ni 2.191943232743433 2.0999249701136167 4.08892571756125 -1.9496829538220615 -0.2333767199570755 -1.7587158091794486
Ni 8.084271266394165 4.116274917008254 12.352215093737415 -0.7262469115629363 0.3534732057310558 0.9166658970115632
Ni 0.6814523617689231 8.397509856986975 9.432917539271324 -1.9795404035031263 -0.8748137368624677 0.5126599726382784
Ni 1.7760903936376697 3.796550129252152 0.8887553235772297 -0.7521695449659691 0.4668359723256283 0.5679145222362091
Ni 5.366433504740141 5.688227165729361 2.8354131321870226 -0.21563507970293827 2.0657224959178486 -1.5494130994524413
Ni 6.371029886649091 5.210494514605978 7.3923151793052035 -0.017839085063949923 -0.431670737278405 -0.12909200440437124
Ni 7.99444302723184 1.026683001559818 6.1281637395033695 1.9351117408761058 -0.4855021812765638 -0.41401522898017085
Ni 7.161535165925392 3.6120290030550315 2.7353793836661886 0.15262479741898877 -0.2831417071953446 0.9469511782586659
Ni 4.179002780666478 0.063808896518772 0.7101286222447393 0.6371574156934318 -2.142907527040284 1.2688682064499954
Ni 4.792125478324799 6.9469687816040535 0.5870511672215003 0.8419601806675563 1.7457175971475676 0.9765165506206085
Ni 7.492573521722065 3.5667840501415458 5.286446392308329 -0.2511425285809287 0.3366540772911879 -0.0399297463154022
Ni 8.31258354269231 6.014130615438427 8.458609647880216 0.21091453429881743 1.133533563570022 0.371406907391341
Ni 2.9619554839132967 1.773136191768756 0.8654804997046385 -1.561747709758394 1.3805875239038738 0.8361484590817858
P 2.791264122932162 9.166133540085962 2.4088739104847825 0.2969719282102176 0.08451396068368026 0.33031630799861816
Ni 4.373579376316462 0.8366756335954122 11.185314674765381 -0.010427880201543331 -0.5628353079410887 0.2622450662519935
P 8.152488167594313 7.014682443369118 10.674658981489008 -1.54466401480323 1.497170082987325 -0.33609537657424055
Ni 3.7464498477149943 0.027585908366469545 5.209900878457556 -1.5955888266775553 -1.8318935189147032 2.6563519432530702
P 2.433190626372972 6.754936340875878 0.29867167279691426 -0.31817658731229076 -0.17279073084390242 -0.8982051192032144
P 5.635340428801651 3.816894049377825 12.597455785476825 0.1390984807977798 0.5956161019165356 -1.4508501168748626
P 6.713540237715899 1.593591544429679 3.9503736499092064 0.2751509756803842 0.251025029166458 -0.05748575292129454
Ni 4.96739259046567 2.707083348541324 2.0370014022306386 -0.5190442788980675 1.5919800262803743 -0.18281391940785935
Ni 7.951919294967322 8.892865207587063 3.0583537934780956 1.4832596435538197 0.2872251332360989 1.6287627423263626
Ni 8.028728543559073 -0.057068283863298395 0.8494840091431558 1.983494503054868 -1.1109991299129318 -1.6955474040510798
Ni 8.453164410807641 1.7254495956702376 12.91148185259305 -0.14587050941429072 -1.5571773167788925 -0.6159411866271328
Ni 4.561623178559163 4.192525010672135 10.655685922861496 0.08831379404574467 -0.5471428369064965 0.5977154076477255
Ni 8.023453848739498 8.756664386406714 8.006345571796434 -1.1895098218253255 -1.1079968527514983 -1.3391477687018485
Ni 1.7291772951893714 9.26511328156776 7.158299522742785 1.477865726231758 0.16550988091177302 1.876201596803459
Ni 5.994094230523084 1.9241080222936733 6.089332293612553 -1.6389810776202614 1.8656212501844518 -1.0591456355767501
Ni 0.48951684122824535 7.2027914803534046 2.333336739353936 0.064224871417341 0.4260680463796469 -0.02793349318547447
Ni 7.697857934240761 7.8822672294523075 5.261895763275313 2.0343930896769478 -1.2836942157192344 -0.1931870351120673
Ni 1.9829590784519973 3.3331411635310397 10.327065912127862 0.14974953275372274 -0.23921620945698802 0.8047738014252461
Ni 5.141103388057303 1.846022036616619 13.274829112046937 -1.967810773771024 -1.2313573539887308 -1.0557813470902075
Ni 0.14504758406413362 1.3654936108538847 8.243280017082334 -0.16729242673349254 1.0515698801120212 -0.05735616932196573
Ni 6.184700826185191 0.6521190942528596 1.8961856890456017 -0.9296072876635797 0.5096093587374126 0.7568188708125224
Ni 6.133668619768249 8.829895043460096 13.20144748316303 0.08967133651490362 0.1755739500159944 -0.6832403260944233
Ni 3.5964565383138503 8.192775280147352 12.531726191780821 -0.36402038511928275 0.5111437931040682 -0.8695784566054572
Ni 5.3202100307028815 4.179934705546261 4.283385822601261 0.7641984511060451 -2.6180846722417557 1.6178478951860717
Ni 3.1884039104518744 8.063442745331006 9.87156898863611 0.9886992087297294 0.7389967550294371 0.9920478134869881
Ni 7.757510445795699 0.19354588673294354 10.119320286001658 -0.16313161048758357 0.3130582922491189 0.9386845673744996
Ni 3.5203182756355433 2.3719724810199976 5.748558118596781 0.6562853947721343 2.420681799276128 0.6598384022307152
Ni 1.0515747150988335 1.0168045978341136 11.375914746953327 -0.47568082431076786 -0.4252820601432418 2.208242086582036
Ni 1.7288231637350537 4.519229915777815 6.223641307286941 -0.44835462569198914 -1.1626703330349784 -0.29428872495109965
Ni 1.5391950891967197 8.859278634919669 0.07579251854790724 -0.4364059379705452 -0.11529855016470467 0.6229168466140175
Ni 5.901656601697364 8.168619787263365 3.6358834842028482 -0.16004217292898243 -0.2500698643420403 -0.08506134854671803
Ni 2.117053749404036 0.7548498333757869 9.552319482568699 0.9915065962715377 0.979572563838113 -1.5261443587324877
P 0.7640320892162931 2.9422918689498663 12.595137156375925 1.585008737168864 1.0961245267939446 -0.4173034128131393
Ni 8.746925771412977 1.9276866138320414 1.969172181780481 -2.6835153910417398 3.4878724166445414 -2.977131258295531
P 0.8851319996446319 2.0823675053784965 5.986734819747434 0.33430126078829525 -0.13073313955222002 0.42979845995635657
Ni 1.5051145963430395 7.414133404590693 11.599523598383206 0.5935895584048099 0.46314001153127976 0.38090533380007946
P 8.457227603283497 3.694513674164664 8.314110967570276 -0.7214978269137252 -0.11943391248931688 0.4692049867784371
P 3.1755060701156714 3.736804425209236 2.753125097227025 -0.6706115815868192 -0.9228152044424107 -1.184013574597445
P 7.349085047981809 7.238940846440205 1.5762540139661878 -0.3181794155257681 -0.34723596657209227 -0.8794409512218339
Ni 6.166826506990945 4.827026065072689 0.7673208521170489 2.9133424459743438 0.4822379087029953 0.5979429502774993
Ni 4.447723319752032 6.2171318120016545 11.866206017756674 0.3509314131458085 -0.7583594758267649 0.015576514282018335
Ni 2.2840453686124302 2.903775413668417 8.053375160854706 0.4136408763598876 -0.8740948564185721 -1.1830856634665368
Ni 6.43481082542147 2.2568797583667433 10.98134707210182 -0.134600078706794 0.33322191168118737 0.181653580551171
Ni 4.110897710451904 4.895065900545677 0.37949192607125315 -3.7462132627461227 -2.2401327646430453 -0.5093697319227808
Ni 5.147813247191744 6.424447820758278 5.560317680204446 0.7454198849469613 -0.051942454505562154 0.38433261431407356
Ni 5.686950428644058 8.099601430666603 10.93104363094087 0.5954968027298518 -0.4749999961936594 0.6068129990736195
Ni 2.149857505172413 4.8259263937145445 12.377502875350338 -0.524453879949413 1.6991736879497574 0.43173090109237905
Ni 3.1437553894614494 4.9896935528388875 4.412008230659211 0.15470224877330777 0.6723303640501389 1.1229966685944401
Ni 8.863695958849842 5.267574913492713 6.0800568452840675 -0.9191673232771782 -0.9654620925786598 0.5517068021280951
Ni 8.757913165745624 8.573196335323749 12.157017836117495 -0.5590737840161275 0.3440948498399493 -0.054757041136221825
Ni 4.837202684759925 6.462218736135901 9.228431786374605 1.1753304450011501 -0.299072262382672 -0.09190151139700302
Ni 6.8460599556211035 2.5744890766457362 0.5701777353481413 2.5242401781857686 1.1375835652696795 1.1354035268992253
Ni 9.304645534968174 6.541991505845363 13.34440475972181 0.6462892027913708 0.2587697061088834 0.5538567585915624
Ni 6.967890495155192 1.7982702057765154 8.284048934798221 0.5725959868722783 0.3113279398215735 0.6513879574705169
Ni 6.801569861860242 6.483317515414197 12.701008482343722 0.8193848664702018 0.25947033172033374 -0.25299526551895135
Ni 8.490832814448488 4.912455618802436 1.1930548907231564 0.6100428188648268 -0.14585559701595524 0.199692697441069
Ni 4.230081583327408 1.1447019683355926 3.5664578764336214 1.6466236817671835 0.6927804043743746 -2.4416044083614077
Ni 8.973616498420299 2.1633424581828797 4.116355062547916 0.12456043508260484 -0.31121789660627047 1.2842827412328526
Ni 2.475947339857436 7.00998554197501 5.60453751575017 -2.1276032925830455 -0.36776391132211506 -0.10618836033332034
Ni 6.015910591958814 8.959609667477153 6.055492237377856 -1.7811563975711517 0.017191424177622004 1.0474717987832476
Ni 3.1623845678083207 2.816724310647846 12.314747053945721 0.14634050707217378 -1.1746336760444416 0.33343814145705153
Ni 3.2213381357034208 5.3876441150040115 7.766614419946304 0.6844112064740729 -0.6288915761402137 -0.05558287947162685
Ni 5.425853035075132 9.04766724936789 8.845512240595507 0.4035197287654857 0.6847415932302982 0.4685776376070834
Ni 5.149844843429672 3.3510620789692753 8.575897053625361 -0.43239707392146826 0.030552418865560288 -1.0770294578357065
P 1.990899078427752 7.034411293074133 8.4658246102995 -0.2917908982299104 -0.3552441815885495 -1.3563831587435284
Ni 3.817956443740778 7.839202980757515 7.1663196682582 0.8195409324320918 0.4041763885128781 1.556021091687262
P 4.512333671667418 4.393541207241422 6.273439645163049 0.19593323039863675 -0.6431964227986601 0.6897256767084508
Ni 7.893599435990475 6.068657540154557 3.331883064943332 -2.3659430129723513 -1.1543592420661217 -0.6868853790461784
P 3.771639777215541 1.9432870363196162 9.528245067149253 1.1639653976973179 1.7469555833197268 -0.7159139050680445
P 0.09373673210813734 6.5561008485252845 4.5314371997780984 2.8130115728630654 1.3410313588778067 0.9403593839737612
P 6.044735028490516 7.452342324661815 7.612950258443692 0.7892556511849891 -1.1928733389809199 -0.43214870535608796
Ni 0.9121102929894825 9.233921755841408 5.19714748647772 -0.9815307160057484 0.16667459064383552 -2.4147834315138224
