# total energy = -340887.69193914114 ev
CRYSTAL
PRIMVEC
9.15962183234282 0.00000000000000 0.00000000000000
0.00000000000000 9.15962183234282 0.00000000000000
0.00000000000000 0.00000000000000 13.40603242040180
PRIMCOORD
 96 1
Ni 6.876155687058515 2.095776463039458 11.096816975776056 0.6085767758422616 -0.024116176321913305 0.732596507930048
Ni 4.991957331759887 0.6278178926776582 5.87513998901392 0.36691339039636167 -1.1857606391955386 0.05272175587374791
Ni 3.0328882265295065 1.5291072906296477 4.701481904272035 -1.0618532643159002 1.7706783808579631 0.9000534852658628
Ni 3.5843799053453713 4.69699002566101 4.479344584331386 0.4942837841239358 -0.7273226611256184 0.6872671878656292
Ni 3.7234779244869896 2.848211928496231 2.4401929042718757 0.9175346727697617 1.2352551463812405 0.5319974966246258
Ni 5.275859814526545 4.702998737669235 2.5450953067361994 0.11310745605065682 0.4219306271725056 0.3740751982521235
Ni 5.318250544974814 2.8046212875707104 0.5332924259360753 0.5738535134284634 -0.07896757694415432 -0.9609999430422482
Ni 5.874193800065065 8.113052717800375 12.59467255222756 0.38884670013434325 0.42912637358999645 0.25531337212916677
Ni 1.8625175301104142 6.728777369661659 0.15176944016628063 -0.4797156565017738 -0.06916678880364863 0.8784143097295324
Ni 0.7688531718646116 9.359118530127958 0.023791202088663276 1.4379318661512979 -0.3454770748994566 0.4175404685246099
Ni 8.318054216971229 0.06434909218198433 7.025149761769777 0.33863871182138455 0.408061068279265 -1.133037340659894
Ni 9.102694913252572 2.186713189895641 0.9636233733019473 -0.24521665001479703 2.1892184942916812 2.095344689659656
Ni 7.28976757645394 1.1751886575720285 4.890064781072853 -0.19704137586115097 -1.0376794952831743 -1.3861629611091224
Ni 1.0305124286544816 7.560159616824056 2.288262254759033 -0.12965147645226704 0.9500601562012927 0.2575887984269048
Ni 7.629360560760243 4.205081687719386 3.4641323882051647 0.6710556111027733 -0.1285001364566432 0.26735976177073956
Ni 7.815887102430197 4.224948907758776 12.57009911842319 -0.05146371509693072 -0.014109957038820859 0.0943718273143665
Ni 8.674372670983352 7.3966878436368795 9.406329053653556 -0.13111571970261934 -0.29285482071805047 -0.9797018903271256
Ni 7.173696846929207 0.9457492870018712 0.34430469384445955 -0.78458678495441 -0.5545424718046772 -1.5742545839761533
Ni 2.164885810756007 6.478444901392171 9.223739317503625 -0.49523637784519225 0.39331219210486457 -0.21535765767183554
Ni 0.051671259421947814 4.992396993614147 1.6075576208248363 -0.46689690747055074 -0.9032179990367736 -2.08708733474687
Ni 6.499383797201321 2.4095484730299295 6.864545866219452 0.634226872310198 0.4656962022942302 0.031822800937551646
Ni 3.8671374353665597 4.652978042125156 0.42282921697755477 -1.4817118394507256 0.31328634909952496 -0.3096523518913635
Ni 6.223248673859929 6.307040895584381 4.4756706599617235 1.1734579105687855 -1.1506951629509732 1.1624546174797463
Ni 5.467314232813001 2.967470206464352 9.199219925468842 -0.5749832561575323 0.040362720087762746 -0.5241787719111554
P 0.21644003507919282 5.918031750783607 12.506622022252158 -0.6973471978094506 -0.26262918906428967 -0.447222826080391
P 4.466460660077165 6.332010025057583 12.396812810301848 0.025974569686890752 -0.6313125268768804 0.6735660362294529
P 2.579770887604395 8.782831754656204 1.1604947920177688 -0.5469638881264709 1.7527490500730523 -0.21375148952698028
P 6.854841246748852 8.29114324764171 5.652747115620482 -0.7684253447031992 -0.955769033660612 -0.1987133642469352
P 5.4092880276725985 1.1823331627037592 12.439350094701538 -0.055383876086943326 0.029704726153284327 2.3332802326320072
P 4.191452170237315 6.419099710688988 8.053084672803656 1.0066087420202987 -0.502700033212089 0.5984617988954467
P 4.785700964379999 1.3584818526887763 3.632431282167242 1.160796770161349 -0.721113704101429 -0.9320866024420076
P 0.34937362863920285 5.863907544599765 3.5321947911312566 0.5459066505065502 -0.29858760943676965 1.2578888246203563
Ni 0.8414468397761738 0.4303492666097995 4.697608300143564 -0.8068756782595975 -0.10683833521249343 -0.6297868342609735
Ni 2.2274277095245423 6.77092994993887 4.535663435937745 -1.0502192796213976 0.6638848043859469 0.49005380520298825
Ni 6.278563630899059 5.976928120010567 9.224462927638763 -0.11005195705378465 -0.29597511151458705 0.10084740773638116
Ni 9.296191927236945 2.2918564904176115 10.037847433604574 -0.5857548928517395 1.731230459274986 0.6658907790723821
Ni 2.570116646054595 5.647529794949926 6.816980865323856 0.21794290190050855 -0.45810759131369494 0.08536705271259491
Ni 0.7548783366345071 0.3760665989659845 8.938364883487392 0.34045982419052334 -0.2846170061892904 -0.307845894810244
Ni 2.1553964424015546 1.2588801234548792 11.57447385790427 -2.531834445593259 -0.966456338171129 -0.6789748659498501
Ni 3.813489529524833 7.131892332286618 1.3258415398209271 1.9464569906855962 -0.8163638202556909 0.8663882318029337
Ni 6.3263310594400535 8.096647834863287 7.924051246275814 -1.4819218985790026 0.14650402923323158 -0.5484564135115974
Ni 5.684159123182991 3.053781324228837 4.606352818443042 -0.584473969256787 0.8802814448452582 0.46427078270161326
Ni 0.9915931949304767 7.82703436236009 7.4125303257853945 0.9240166809496797 -0.6967463310006582 -1.5558413715762882
Ni 5.595539780683639 4.741487469160942 7.075422346917859 -0.9118463641357327 0.13906042847099276 -0.05467630849695745
Ni 1.0311810810578357 7.766342707228234 11.536360670913075 -0.1341539923083109 0.059987436297225714 -0.5932949099825267
Ni 4.661258340380392 0.4742833933589615 10.669043394862465 0.48869806250604225 -1.2343429189796162 -2.525997784306824
Ni 8.754125499421788 7.513821089309409 4.786489607831078 -0.08231309637761954 0.40117591112365747 0.5397010359164706
Ni 7.543379189386453 6.292779364186811 6.857667906086867 0.5074542600676228 0.6219683666578192 -0.06530833428950689
Ni 2.2578010159563617 5.389375009523389 2.5182557824579974 1.4079072947647495 -0.7027621981774348 -1.2329398679845023
Ni 2.5147375716617186 5.730992270283683 11.521666805358816 -0.1710835183448086 -1.0246933674361514 0.020824907165151233
Ni 1.1754542866089774 3.7239359055851775 3.9432374065658484 -0.4693960197433207 -0.6978161670260691 -0.8745797664747906
Ni 1.803529564663817 1.620996618170061 2.510346448892293 -1.4639465450475047 -1.4322805814027915 -0.12073849023335334
Ni 1.8025403254917314 3.713887800290936 8.239066216966767 -0.8259717756591001 0.16756213545511142 0.06650775391424676
Ni 3.9954545794568364 2.588234378298907 6.881651460236769 0.12249095414808582 1.0420632261731666 0.22697364464420908
Ni 4.277268668415758 7.062233407252244 5.694413319971418 0.1531953252104781 1.1657610561451601 1.4873757226047222
Ni 8.402139546598521 7.712053627849044 0.18443631593782472 -0.7130165289155914 -1.361908716547448 -0.12704129252292962
P 0.3963560775779033 5.824969991631832 8.01922063444145 0.5977634872768415 -0.06863637022147534 0.2594050257000371
P 9.00135285584556 2.071888168957979 7.8106761934950155 -0.5743435656910044 -0.0795941547845597 0.7884169573337776
P 2.0544848872268404 3.3304935037539454 10.499698472072128 0.7548023546031258 1.0588008506428217 -0.029533747793058812
P 4.340259388660517 6.636008718412725 3.520344072234547 -1.1668270355158292 -0.8532195556314597 -0.814302823961604
P 7.002897376171025 4.071406164780312 10.202741696082722 0.9840149158801826 1.3101794064939567 0.3797542509147718
P 6.632995202786649 8.245363457066851 10.081202672245626 -0.0024615741666151156 -0.5029759125812951 0.7376386983396457
P 2.5526584065916738 8.765062088046514 5.847764626850839 0.2997039824294 -0.6398298203192722 -0.249407548167693
P 7.015427739017445 4.019095563745294 1.2145622085454357 0.10261247005660391 0.48351831807731566 0.6572760408201777
Ni 3.0782466744940327 2.064349800081807 0.23634389360643748 -0.3601148794172895 -1.688716754282492 0.07472577094866485
Ni 1.7208548168189437 1.5115940934349437 6.817262065718144 0.06045254885910235 -0.31994602050788773 0.6371026511960962
Ni 7.097827698203406 1.1116300407655164 8.773564965115469 0.7885120881507451 -0.30186756573962203 1.9607507816004488
Ni 3.132682307824642 1.8082101314872971 9.172943717941413 -0.4333697222473826 -0.4203468276251535 0.06828952840501788
Ni 6.577872597808757 2.0966191482601237 2.3972938148046183 0.9622836948506783 -0.02244778748055489 1.0853567467544791
Ni 4.250623328123187 7.142874719021164 10.336533546220734 0.8379654576858666 0.26464184861894424 -1.1340179594056081
Ni 7.517952078815063 6.688529990752909 11.45074934826662 -0.010179768746479242 -0.6287118560292398 0.03133300578532668
Ni 8.15307110616003 4.180268271819568 8.082028162246933 -0.5255969924149206 -0.8061796806338374 0.11302518074949568
Ni 3.507466559715701 8.26006465031868 12.277767951525483 -1.7934858656707822 0.8985972124353104 1.3805093623677709
Ni 0.04822266175259318 4.995676138277172 10.404515344473545 0.032840443568788596 -0.2039923532576874 -0.5385967471086982
Ni 8.826770461216347 2.7108450779057627 5.793350060650746 0.7422360879023411 0.7911952914098632 -0.5801920540519815
Ni 3.950453356748896 2.514929923722957 11.534603855420427 1.4101922341441842 2.8134216638172904 -0.6324186154568657
Ni 1.0520924980010937 3.8336223786011714 12.510737440400474 0.7002561439261296 -0.8927662075758303 -0.07278715916505528
Ni 3.4127377493665225 8.666129011215972 8.008012921006596 -0.11238163362822581 -0.6746723819197541 0.009357529955500014
Ni 5.638333534498313 8.454999724951366 3.499095581203023 1.3065855184951112 0.3513103937517821 0.7841628100431141
Ni 3.1946471504094607 8.725895544529488 3.395197989268124 -0.12697650072326516 -0.45462091831667506 -0.6483237167228963
Ni 3.8750330294993183 4.698134978406479 9.735809815311873 -0.18958389114184124 -0.3172291357973569 -0.4066410480032868
Ni 5.477325699619388 4.431315190602228 11.873977924761796 0.22475195440254195 0.3905647112667145 -0.4722214050072577
Ni 8.37436757280441 0.06413109317924691 2.180330765311295 0.47284849706829535 -0.04671463044771954 1.138362352417233
Ni 4.89813532398512 0.37876593955870375 1.4872789609699535 -0.5106480844145722 0.20359100405421068 -0.9177316192719163
Ni 6.008721167846768 6.023513957318237 0.6170260260799593 0.859350608229862 -0.0739798939215758 -0.7378960657660905
Ni 8.493012156100958 9.316617884216123 10.869155487829065 -0.741320003845975 -0.11185044371510414 1.0374822916707034
Ni 0.4803095086489174 5.301076253792769 5.743117777839305 -0.8246669408047476 -0.7094383246460298 0.12680372259082676
Ni 7.72125904792262 6.742782431644244 2.700658662319868 -0.21230704377096984 -0.5444583480957979 -0.44045388278767367
P 8.746303182264738 1.9406765843271556 3.2828561418448365 0.3682863594844883 0.13187342380425032 1.271819061548203
P 1.8043814095064465 3.39971276693406 1.1842383640722205 0.44298539096027584 1.9815821165235037 1.409617592587637
P 5.0308124481301455 0.9793376207429694 8.208245920983117 -0.0011500544440431807 1.067669356777045 -0.9088433156433509
P 8.911057302526842 1.792812806966221 12.38359455984595 -0.7517825939401955 0.03023437340450922 -2.862012171131484
P 6.614703437725026 7.998584922119301 1.4709904052318037 -1.0149524859993038 1.3613803548478038 -1.2421973820270285
P 2.1528775463615215 3.4788610603228864 5.868383851853453 0.28242385519271357 0.4881385904581464 0.34521173705321195
P 7.355286352360696 4.391644867877195 5.758038802018265 -0.7851493423260995 0.03436176530932147 -0.2148148977944881
P 2.364602208053772 8.772875245581599 10.108295918052223 1.4305471436514523 -0.7543539542117976 0.2673592475501073
