# total energy = -340893.11784745054 ev
CRYSTAL
PRIMVEC
9.05279672165272 0.00000000000000 0.00000000000000

0.00000000000000 9.05279672165272 0.00000000000000

0.00000000000000 0.00000000000000 13.24968307285678

PRIMCOORD
 96 1
Ni 6.350011634525118 2.0356661223723775 11.526561773850332 0.6542261982502604 -0.3101187500048207 -0.5919437952712708
Ni 4.746019057193807 0.0904410574695552 5.743909713120979 -0.6562126325526698 0.8827378768055508 0.7501550856391016
Ni 3.006334114150296 1.8235047852030453 4.747453925428204 -0.43218495791066214 -1.5402445455792957 0.998077821731152
Ni 3.400719190689891 4.4287457006579825 5.042802314286507 -0.4000903913689626 -0.8305658227876856 -0.09145053990251346
Ni 5.306694951384173 4.586689839998883 2.780935778038781 0.14318884881706953 -0.5286576336181154 -0.5391839870707359
Ni 7.218880930430484 6.38073682561373 2.696880563172027 0.5937746778324225 -1.6516357902697942 -0.5956994056589611
Ni 5.084557432547295 4.765726995025248 11.411991392772178 -0.013748459934344063 -0.34638056055033245 0.31554094946165656
Ni 5.798189375244788 7.748967425478711 12.300011879528444 -1.74313132447763 -0.12872150843882993 0.5427123119389685
Ni 1.9710019974619601 6.488664264670429 0.28499561085920505 -0.17533098076725287 0.5842150591684455 0.6971592501683607
Ni 2.6842718283021925 1.424520888076233 0.35163052955276636 0.11847309123794435 0.5274397020506142 -0.5197886132632596
Ni 0.7422749906068534 9.047826446288878 4.460611544096967 0.2927126387132314 0.9799214625370994 0.3401944863442787
Ni 8.56973921394336 2.1461192916334726 1.4062686399109825 1.3613171057100362 1.510187064072283 -0.6084893583347778
Ni 6.870375426205882 0.7362431123445252 4.763790601868544 0.6215153382808005 -0.056984902025476056 -1.0823048473020327
Ni 0.8787730552014597 7.314587094304617 2.5683181799293 0.40278439326135795 -0.07837365211389728 -0.28923187925348254
Ni 7.759459616542854 3.7816518117322335 3.7427836302534603 -0.49688985428821525 0.2459113620889765 -0.5449635698669905
Ni 7.384538052331047 4.0013722339218925 12.517240066860506 1.3994997874273445 -1.0346697619225729 0.4962105688330035
Ni 7.863593933894741 8.935037655548449 6.8582211417169106 -0.06618842290161504 -0.27937529817437695 0.21868415094190724
Ni 6.867469478551361 0.6946246913098534 0.2582645135561839 -0.86117840546722 -0.6848264396346206 1.2905109815307516
Ni 1.6980873434406316 6.597759514466794 9.495053600878958 0.19695010169892532 -0.046573219773848824 0.095374557547268
Ni 0.1139910021065368 4.895317775942597 1.3212981873250007 -0.36875378603921005 -2.5207064540008974 0.6806404265777309
Ni 6.487912882566611 1.9261544439401617 6.803181949972495 -0.04886124447707715 -0.4238476416895604 2.2478748704823097
Ni 3.509624331761194 4.554796838170603 0.6229075326996312 0.5712680120894742 -0.25568309676375967 -0.11895697285289836
Ni 6.1637141367606665 5.508572311807287 4.937573513846047 -0.09441450762684385 0.7127941284921402 -0.10177686152918602
Ni 5.162719276937123 2.7110228417573627 9.374415130352748 -0.6427487937382801 0.7585147704577067 0.26063812677618986
P 0.2896931069275258 5.430301833860281 12.370393750665016 0.33809466639245644 0.5222000509182297 -0.4999556376977325
P 3.9717695895907905 6.309554687272611 12.58984802063959 0.787963671846443 -0.17409325170540985 -0.17476071008607968
P 2.25428210339739 8.483330272004407 1.289343626480987 1.0127799038280172 -0.2557088077953725 0.2204445852764397
P 6.482472151911262 7.600293349683697 5.763386804643416 -0.2552215837463088 0.21223196755866028 0.09466390463348859
P 4.790830399529879 1.1246470062818086 12.526408739086358 -1.8504892796390193 -2.0487843254016136 0.5140481112350567
P 4.157207071694247 6.161794943917182 8.008187914338064 0.07516877202335441 -0.33361529046486416 0.9236718960157512
P 4.846468886398062 1.2002559620779456 3.7782262335625427 0.5702879075643921 -0.46455026161524515 -0.6247706119933046
P 0.12149033867041607 5.478951561883322 3.567211885701085 0.6645255232937394 0.09043264016096038 0.28790698979447193
Ni 1.8156831690862036 1.1554536725383047 2.5696833416311744 -0.9517442287719352 0.10336246084875102 0.0011443980170883516
Ni 1.7924808518321929 6.519615775669828 4.793377856445711 0.14976727336553564 -0.0818343569689881 0.22947867045424997
Ni 6.125601863783926 5.610751225129964 9.347691275286872 -0.4153396042185492 0.17283469670796042 -0.4422492841251996
Ni 8.61596279252275 2.3170632466500494 10.16138015582349 0.32014348123067443 -0.5130088713372649 0.19090055307073575
Ni 2.393432637346435 5.2810393262972175 7.112164755536324 -1.1612166313075871 0.6009069180018296 -0.0303690992101606
Ni 0.48563816984905867 9.137530606128907 8.928961418583606 0.9909941754114933 -0.07126506609357404 1.036117550112693
Ni 1.5632006766108377 1.1627230680728229 11.30066734449437 -0.2891840567346826 -0.20298396659783108 0.09586152448601556
Ni 4.082222758851885 6.804842232838038 1.745910551149474 0.0363721108711309 -0.21256235431488552 -0.4042825750734392
Ni 5.573498967814219 7.905236797479779 7.890212776522011 -0.05468813557149936 0.27782415163717317 0.1742485463363515
Ni 5.238970981279899 2.9415975668684267 5.187741206273871 -0.1380877801450783 0.2148740331671977 -1.892365351047515
Ni 0.718465230712287 7.684647306832692 6.8465484659980955 0.640561042058342 -1.2130341301995111 -0.1005383611363946
Ni 5.009048057511905 4.251473840935766 7.373899205964714 1.1916960308433668 0.7985103370140377 -0.3794891701788432
Ni 8.240498060525052 7.3486346616836 9.27899141372728 -0.2843596387628457 -0.7263739240591038 0.19988373040595253
Ni 4.68804494884629 0.3040553684661479 10.422717188488535 -0.44675282842250796 -0.2723456450211052 -0.17650494647069603
Ni 8.38695420119434 7.322616924739384 4.6407142132633235 -1.2183262318363857 -1.0163665927380108 0.8751168699251831
Ni 7.313808553811506 5.972546234516052 7.228881554648395 -0.31307397597840275 1.0011572319874242 -0.37407442692117515
Ni 2.229359754821389 5.18010064608566 2.6222049506879808 0.14312200013487608 -0.12326254220678771 0.7120395097143027
Ni 2.3918302923780543 5.161207459933058 11.496564427594814 -0.4446900323562083 -0.13961141587845632 -0.2738895924694573
Ni 1.1587307848465183 3.057038826963294 3.943635308840882 -0.04792150627162715 1.4566980910152074 -0.45540021968486083
Ni 3.567933393576678 2.858782585112792 2.7170465725029027 0.42884560912478403 0.34771239198787857 -0.493226289393699
Ni 1.0791114402312139 3.5248149241733016 8.23471785000352 -0.27680136679961365 -0.30063060800872743 -0.145255244427795
Ni 3.5869895300650483 2.5058140522474455 6.980700951037292 0.05773643547951992 -0.5394464967035033 0.7393780496282557
Ni 4.126780622887875 6.8317833550182705 5.93022712703758 -0.18717296770750344 0.14421986118474517 -0.12430229632521171
Ni 0.6671286327083679 7.677468439262488 11.67852201474999 0.2019398416040329 -0.42438654491216593 -0.6896675697770057
P 0.28631369801963574 5.875201514487813 8.155802812950588 -0.37986352279912644 -1.6847811666735113 -1.51662330661593
P 8.522311613438575 1.6747944982223055 7.946616224688658 -1.2260505970638367 0.9348837055711706 0.45058042969871426
P 1.8822574340436735 3.230264086680617 10.405916103591261 0.31579960243968197 -0.6279940040266088 -0.5474925069364313
P 4.111291288193527 5.997839747745746 3.897552953885823 -0.6034780211631156 1.4174100920488621 -1.32375457407523
P 6.847589537587721 3.693676736010627 10.342039571970385 0.015038639500677325 1.9422951459984228 0.01770770169240821
P 6.3205628877333515 7.700462542198574 10.01523633663109 -1.0481510842384594 -0.02960702423315546 0.8772822530076182
P 2.4789725108279597 8.72016953224609 5.6872536919338925 0.29551102739397495 -0.5738563416419408 0.5661538307913604
P 6.845199599329797 3.830555018055357 1.376642458309158 0.3400510187878789 0.25734120119247295 0.7191239273649099
Ni 5.035446011906246 2.6941484292089912 0.6176940272347131 0.5167397991346068 0.8052276011332131 0.7087181586505535
Ni 1.291218460621957 1.248208624775759 6.910504662227567 1.3396211087938412 -0.61546784653514 -0.8012066528992782
Ni 6.738711554905713 0.8800576470150938 9.192709210938366 0.8579028200397418 -0.869622165359199 -0.6098175902278982
Ni 2.4760484575805752 1.511943743215516 8.969823025836602 1.4427621976604055 -0.041951147620805165 1.2327575767703671
Ni 6.521181909452483 1.962438052037733 2.46670687694288 -1.0679876593484126 -0.5825914075220935 1.1839814358079288
Ni 4.00319184600463 6.7688935782084325 10.137027228143033 0.9327689732210129 0.6997954022396271 0.5918795176922387
Ni 8.54796723852553 6.862698654831945 0.5173401576726329 -1.7714638528737363 2.287114532709222 -0.40987960954524244
Ni 7.621703213244265 3.8625476006443837 8.369227920501762 0.25839201105449044 -0.668657543184242 -0.9821362108002312
Ni 3.115918214953964 8.426071334574981 12.257758857463921 0.9687865289662024 -0.24250516462090496 1.3033217601421747
Ni 0.15979453093150492 4.677317385074927 10.217082012266694 -0.41720082579700407 0.891335902887207 0.5989657351150588
Ni 8.667011511600148 2.3327879540516165 5.664689596828305 -0.5600160933247388 0.49222818714648775 0.21855739555605586
Ni 3.5920681488631363 2.91842240800371 11.89445203107377 -0.22591357881081092 -0.01900636589917372 -1.0831975343196314
Ni 1.0653602424517201 3.180247386396415 12.619964863808002 -0.6271982475981909 0.7689462502036757 -0.2006820579375318
Ni 2.8761367958720347 8.15384469308245 7.951320057714481 0.9886225898555233 0.28743930612943397 -0.2623617943355159
Ni 5.6313282314188315 7.881102042193319 3.692845689298212 -0.5433036656660644 0.1376576345861952 -0.07327695431728025
Ni 3.144434523713283 8.23226001577236 3.5222819517317596 -0.24979192809030523 0.04665729484722287 0.9252518389083614
Ni 3.4727975558777313 4.415302297957161 9.327485433651697 -0.3185378273064514 0.020026065412939706 0.02545674951020777
Ni 7.385108378506234 6.054944787635836 11.530708859895617 0.32306733974568874 1.390616883115418 -0.8929443850249073
Ni 0.4212220915608653 0.15906487553912363 0.35578847895376803 -0.14864807215942788 -0.6557945711786448 -0.12535747706260345
Ni 4.384079203064815 0.2970883363324425 1.7042269499804952 0.922005821167238 0.21340053394546474 -0.2426874558350401
Ni 6.093953287459298 5.721847142937698 0.437393101826507 -0.5989608500190523 0.03270880308693076 0.3575836283550035
Ni 7.537385467280997 8.85870447603779 11.364385452177693 1.9887063862731105 0.3509339842489698 -0.5698366789595865
Ni -0.16186943187361152 4.952241759904055 5.745261295628206 1.1921935393050758 -0.22659183582475814 0.07792550883288515
Ni 8.030246863402773 8.669410502654502 2.512881570421541 -0.8032748482822165 1.501439656896956 -0.4350612510171927
P 8.586613626491731 1.6078671742040056 3.5274103609102214 -0.3810693701817695 -0.5498779764494723 -0.018919976832954512
P 1.8327205319703426 3.2989748115959276 1.4191335689198297 0.1504283039883022 -0.664366629118372 0.7938810657721425
P 4.7378805932018615 1.0119306379128314 8.178393161165829 -0.5110944279233713 -0.7279705791222624 -0.9733345533482011
P 8.499344668891784 1.6626094342254663 12.347326320077835 -0.04719671229046065 -0.3588416691318207 -0.15522161161188752
P 6.103992838701865 7.738402812043116 1.3858636367543145 1.0427070304047528 0.9251124851170197 -0.07329778025288668
P 1.778765865238425 3.3258797225904346 6.123553215951471 -0.756586185976426 0.2073638408330816 -0.8116142213858474
P 6.964651248243833 3.9161039443333134 6.141333813422638 0.15919859398176453 0.16441741917854263 -0.19335775636197666
P 2.500934594970851 8.46594890285587 10.253426274100356 -1.3954222749238614 1.0516750382313178 -1.2108538347187403
