# total energy = -340860.183245056 ev
CRYSTAL
PRIMVEC
9.34459048319500 0.00000000000000 0.00000000000000

0.00000000000000 9.34459048319500 0.00000000000000

0.00000000000000 0.00000000000000 13.67675273783581

PRIMCOORD
 96 1
Ni 1.4792580310562198 5.077598209165521 6.308347133190794 0.8438250017904371 -1.1228053785192404 -1.182028425846616
Ni 3.8781359088114793 1.2146752937941316 6.9636552357541355 -0.18248378976195023 -0.5971811324108103 0.9927021592415355
Ni 0.6452626677057889 8.063671468854634 11.596587365040044 0.237068824096682 0.4080656962649553 -0.5779048006797015
Ni 7.341913982782402 6.193211498378337 8.931507332477754 1.3099757751235828 0.2270456355327251 -1.2582516072764138
Ni 1.8451454746352638 8.947155783838179 7.30933500223601 -0.7757727862072059 1.402319516264327 0.9146936037765407
Ni 5.615949416215255 8.494101999467274 5.623333511679849 -0.026570808509992952 -0.20501359543335013 -0.18551743438195148
Ni 6.5319715955467075 6.152104644482175 13.60254296425218 0.25574608879121113 0.012669625047868503 -0.2892262228265277
Ni 6.145965248480862 1.4045947524405495 6.33870957685513 0.9891396387012577 -0.3071349847861485 -0.056106356075264666
Ni 5.494899590034105 4.5871380287622605 6.8832637231220195 -0.22388394997529187 0.6730317609925377 0.26326605131734016
Ni 3.210997554592639 3.145230326195006 2.9280013016218924 0.668065675236514 0.04745536526848601 -0.517384117586825
Ni 4.027808215893731 0.44933370286691315 3.688004327959232 -1.697599401484102 1.7710892431431366 3.245171591073063
Ni 6.8888415092303665 3.7714300291478575 13.551583174064108 2.9697326518386147 -0.31133385335884445 -1.1366854789354424
Ni 8.552664548539164 7.4069616777065175 0.10618538596914195 0.71048630629457 2.781711734308519 -2.2816830772810057
Ni 5.596372498981235 5.059806108729447 9.832477245326837 -1.4066621095037388 0.7565105955434842 -1.614478721603523
Ni 8.386732653873525 4.913862293282697 6.115464504876162 -1.298651608360015 1.6534052234653915 2.4794335633940396
Ni 2.5814337990363274 5.6228363794617815 13.222150847197886 0.5185776236742939 -0.672536566523674 -0.07824304007330396
Ni 0.42841583688679086 8.005763041122306 2.5513843991559253 1.649146191078721 -1.0574206824658434 -2.0698568298011963
Ni 7.241786694876657 3.701111985144989 9.06883636988248 -0.9351618989332218 0.10286649504893898 -0.552622629074145
Ni 8.230649957663571 6.095878243051576 1.7727127497874988 -0.9315826662223957 -1.7812147616129128 2.8803940160727812
Ni 8.020901277837872 1.5809552101769129 4.195221228163948 0.3991079728510352 -1.2875452140342083 -0.4624201026461197
Ni 6.050781248984089 0.6288255329016633 8.80996224299665 -1.232951180838412 -0.6547723005617175 0.34902853969614084
Ni 2.595824468506682 6.916903314697557 3.588219052068172 0.8174603957539792 -1.6767043032026478 -1.6093133753524993
Ni 8.562541780766544 0.388922793781233 12.22657910284424 0.3391573033290159 -0.5895259298583976 -0.19524186075856698
Ni 4.783262295543947 2.9891569745756166 5.04399973378847 -3.4584587393691146 -1.1522869329181253 2.990555759231553
P 0.3676900150990646 5.185425439696963 10.983088829583366 -1.3165277173094874 0.8985496470268267 -0.014095044640485404
P 4.198113378943867 1.7080322972725948 9.95139650485913 0.8103212136060367 -1.8451858651482351 -1.5120750251236152
P 3.239246251871133 3.3680614328119356 7.002798791172556 0.579701230458492 0.6802434482496285 -0.27222686005505375
P 3.520920245276908 8.70178552477807 6.035619650792109 0.021768244915027025 -1.1707451396233126 -1.1989133745274128
P 3.6070213027443403 6.975624721809056 11.612151715085384 -0.013725834226524748 2.4641498977620917 2.135747776067051
P 3.9189904587623814 5.878653890773745 8.620252103178892 0.21870754798067493 0.5947455263861241 -0.3187424871180897
P 5.9834908523243335 0.945934213730545 4.1608789233779095 0.636162398770014 -0.13970089026846907 0.270203916087754
P 6.281957074975711 6.336146355663104 6.026702108015771 -0.8068458534629266 0.5072282600997458 0.09195164790864808
Ni 3.617347075318848 8.62258077514773 8.991644445059874 2.9416646899578045 0.4035847776754663 -0.6938607819227469
Ni 3.492811716856891 8.54780536144528 2.0770744746264387 -2.5655066410347236 -1.41405043154801 -2.6470329798449894
Ni 6.993351410111174 3.6665370000538777 4.920895966601097 -0.5537158621383237 -0.36810972469730796 -0.43584389481948804
Ni 0.07353258315728511 3.181393891682195 5.288143982566429 1.5658113383048067 -1.2621815384584392 -1.1062091647234562
Ni 7.3836282350652995 5.548303925114024 11.27068355557123 2.144550204850029 0.793900091935536 0.5123784368421176
Ni 8.474842798312467 2.95147958541687 11.69686510085389 1.140249285027301 0.6911999472611322 0.8152952697818604
Ni 8.123673084873559 1.5818336016900385 8.344405396449554 0.2558394198359658 -0.6651562148992028 -0.8377402290489379
Ni 1.1851650767893398 1.507506728334714 2.9140236630545187 -0.42852447833993945 0.09509507863363623 -0.06652960829111768
Ni 1.4951344904264354 3.7841386723164825 11.872980730317444 1.211302492220385 -0.5642005637197315 0.4331092694971444
Ni 2.2604284239417716 1.5998312831185466 5.247551081151351 -0.517713733012102 0.23542203252187843 -0.29295432241039226
Ni 3.65903329383005 6.2183951699514575 5.794607708771593 0.27084206389238513 1.2269512545012353 0.35622711432710913
Ni 4.827471553507745 4.278841296836329 13.109071956768823 -2.324000092881662 0.12731331523739361 -0.34977158850975243
Ni 3.0020618541461093 0.030067154602475617 11.688056889787164 -0.7103862903815958 -1.4210001233929657 -1.275373354558365
Ni 4.458808766530846 7.313936278630298 0.18146447310305647 -0.9623780543366974 -0.5487168662618357 -0.10838151132989723
Ni 1.9487769840029463 6.7135463348184325 7.8161276580290675 1.3143924161340395 0.711747946615813 0.8117849426357568
Ni 2.0711350528632195 2.493192830329472 9.784089086462298 1.00715921520713 -1.2317067669083497 0.28927533089690827
Ni 4.909629193756677 7.512611618636275 3.577004608930917 1.2550716668865352 -0.9386627129976286 -0.2901829303128422
Ni 2.007031161586186 4.865840442368312 9.343191679957616 -1.1722497491932973 -0.22240556565755246 -0.7779098871548668
Ni 9.111601888603957 5.118452759116424 13.330949915148105 0.3691368804102417 -1.0103666664008342 -0.9215731045051935
Ni 5.083242341866882 2.7924253094071925 8.231162041226542 -0.14491791569303428 -0.07133268610671586 0.7736485407753515
Ni 4.295213019506498 0.7491801215447652 0.012212445409614428 -1.790180198336317 -0.6534777501200101 -0.8457636135740467
Ni 0.03950612553234901 3.391731280713499 9.418550196111335 0.9287511103108715 0.691699255495054 0.2309136031285636
Ni 3.6287474758083498 5.119723623433286 10.880335711728808 -0.63611020537584 -1.7952853807733662 0.8964282298084498
Ni 9.114031482150901 7.107346070415625 6.65997660048551 -0.6805311546933764 1.8598133852534229 0.4987973557235733
P 6.615250586663459 7.663797749390083 1.610259846189271 -0.8515511667901012 -1.837871847985325 0.7960117389619
P 3.886704898359736 5.216365379058225 1.3828564314088057 -0.3619241647118864 -0.3021871538625699 0.009572474179783514
P 9.227979419502525 8.67258367926193 4.3090383412476605 -3.081385634830932 2.467269160117364 2.292722880034935
P 5.503898430748359 2.300105555481463 0.6231440218380427 -0.2764905204274141 1.1511494768795723 1.5030378546220116
P 6.218114832234503 7.383413309482301 11.780444053327782 -0.7913099626108565 -0.644074197417923 -0.10454285431009737
P 7.713623106283544 8.709092994600029 8.102463667667804 0.10095590828978743 -0.7706686322114211 0.19884500472879302
P 1.6232768608465462 1.804365681408883 7.689603770694844 -0.9593858044775929 -0.3680786143490565 -0.15738493781179347
P 2.081600994296205 3.6963649331378856 4.522067906820789 -0.9233422805904743 0.5348560491193434 0.5966563702555918
Ni 0.03897909062447369 6.187838358803367 4.449170755821934 4.249003798789489 -1.3316193215352872 -1.5508706578345743
Ni 3.610245186489323 2.5372806086159216 11.690696736621824 0.3980466214660564 0.7367228713935956 1.9169741507351306
Ni 1.5702556539797985 7.940005157315237 5.150459850720229 1.1810717183603014 0.332555224631466 1.8506908541268645
Ni 6.33930482727413 8.713204614448703 13.431077203053851 0.3156669335165596 0.34837136572811617 -0.8678997833514537
Ni 5.694378564828686 7.5274601730443225 7.890939515634724 -0.3435826860902212 -0.0861124155190517 -0.09548537209351941
Ni 1.1395167518785076 4.916329265191901 2.44125933380451 -0.07497413951404507 -1.3131562297340933 1.6337005459476124
Ni 7.656097806764388 2.75406576513719 2.0122744113523003 1.084430635395784 0.12090175528409501 0.3893514076849036
Ni 0.29995481592840795 0.21667208697542947 0.697469026275254 2.212765685484002 1.029989068617452 -1.7923630649202489
Ni 7.464851416257717 6.844146332557181 4.426398923073683 -3.1452497804747446 1.6845829346197763 -1.0774246363915962
Ni 0.16628231681183256 6.9683359411682275 9.591233557460304 -0.017123804164480186 0.11698467961787595 0.13054390635954935
Ni 5.176613490794013 9.220821463129608 11.015557543961087 0.5708772044089587 -0.410152660700971 0.06308664404783974
Ni 7.926670426578746 9.266039936874442 1.8426551412496472 -1.32828922872079 0.7215068257747898 2.4848477924310757
Ni 1.9602708303980994 7.832448919910186 13.45927917737952 0.6124599129467517 1.549006865152958 0.9605132332138167
Ni 5.697247354132193 2.886758951162536 3.1513426228836803 -0.5126669146168139 -1.4599806184212212 -2.8295360528806497
Ni -0.005807663036250185 0.9368699608823348 10.134022510569435 1.3823975805294193 -0.43744594919928537 0.2528397137776936
Ni 6.812963433841225 1.5578460377092591 11.07529751144419 -0.692895075575368 -0.3961411769132274 -0.7790596844885939
Ni 2.179784607364396 3.478196777212973 0.7254289757052849 -0.35323435024737226 -0.7538441044549147 -0.5862827403307516
Ni 5.068122794332445 5.081980822140585 4.1434951815495324 0.30045705854534066 1.0042356138024318 -0.286535563368242
Ni 7.6475755401689565 8.286988494180951 10.478471594473879 -0.0497143365059918 0.7359070603605197 -0.8151692857269573
Ni 1.5214208236862454 1.4937701802039214 12.605780719060531 -0.6886406711743882 0.16779970538721423 0.8816353877699913
Ni -0.006860798392944305 0.928542996229716 6.192122853577495 0.012207597809785427 -0.8557703470777714 0.24696165773036177
Ni 7.345558373102817 1.4017072739559135 0.03391058470192807 -0.20679948368917933 0.809252148911574 0.1925458019836426
Ni 6.001451155390582 4.7223262204685055 1.798082378712866 -0.17475505365912483 0.9312489370320607 0.6924106797397818
Ni 5.524456529991722 0.1793002659281642 1.9909930407991931 1.4739496790068036 1.0154553937776511 -0.06791414734347014
P 9.208178232094939 2.5379534191366133 0.5546444351591556 1.1922896985633078 0.4848105545261779 -1.1899029434986863
P 6.381794680573936 3.702233336012809 11.221215162037359 -0.9381109542592165 -1.4142597193453386 1.58198589118214
P 0.06264520068981112 5.485956816863242 8.078160256525923 -0.13662842199073244 -1.8350999416671427 -0.33906088696046766
P 2.3202618373305244 0.7936052395506171 1.2092563657253923 0.4455963462205616 0.5507212982863741 -0.5956878356947354
P 7.400644734484465 2.9924929934073803 6.944822147929102 0.4098652113675393 1.1155718368852787 0.509735857012948
P 0.9583625191822147 6.388560164143116 1.0423582403953153 0.7028946099902411 0.6811258508545818 -1.176626538104754
P 8.04931817774654 4.526108507781166 3.286537355803321 0.4820561317094923 0.3383890577044236 -0.2980443353387899
P 1.7998242103942126 8.389321105460077 9.657647431525048 -2.804766045024821 0.5079949630624412 1.2262585993095847
