# total energy = -381169.207387716 ev
CRYSTAL
PRIMVEC
9.23455783539507 0.00000000000000 0.00000000000000
0.00000000000000 9.23455783539507 0.00000000000000
0.00000000000000 0.00000000000000 13.51570883550908
PRIMCOORD
 96 1
Ni 4.287835999352534 2.1859490890017463 2.6453757217193212 0.8913397595419488 -0.6462496078026869 1.8318318124388324
Ni 8.245111771638202 2.290216479878157 7.147376812648195 -1.1651167376929419 1.3670388386851617 0.07759975006235023
Ni 6.642232655175342 -0.13052954949065448 8.124116902962346 -1.7735407900074232 1.4989261464464831 -2.3229850213535865
Ni 2.1733716214281324 2.658721504492733 4.8117272323916085 1.3627754354231176 1.1028142801092942 -1.9074903796144116
Ni 5.4571803359486974 6.6459818855974335 3.3831707083521123 0.34772190506957534 0.14945642699333614 -0.4631330695527443
Ni 3.2185942681146473 6.940148720808492 2.153984591014003 0.023418636034256445 0.44127817846118195 1.673999759787291
Ni 7.367283952196102 8.154954784911922 9.825636794301174 -0.15364269716054185 -0.12235417145990542 1.3507383017529255
Ni 0.7269905541356341 7.518352081444814 3.1239261999568644 1.8500797029054266 -2.5190090116938166 1.5898259560518493
Ni 6.180680227277557 8.559917843286136 12.012802074550676 0.9230892840394037 1.7562418937176592 0.01802857536693669
Ni 0.982907851395219 3.786990528484319 11.606614513826784 1.2188412237995911 -0.7518705256683116 0.3247910073050148
Ni 1.038546061476733 1.5410537527291264 10.657703686566851 -2.0209619038727067 0.7490487399488003 -0.3739178467386528
Ni 9.015818721877716 0.17185973588747178 3.851477291744274 -0.8686366615174783 0.9252459253710904 -0.11748758739622348
Ni 5.170188752062673 6.963512151763883 9.438316358393472 -0.6778147842034778 0.6098525572308916 0.7935231682120915
Ni 2.0329786408689197 4.815858773502059 9.357816872099265 -1.4216135886072485 1.640510369780594 0.10376021050780194
Ni 0.12361194232516697 9.164725964626998 7.777047133657514 -0.165543819473502 -0.7173804623112419 -0.48048313079541766
Ni 6.684656213202642 6.096876616241916 7.782263735296526 -1.687246083274236 -1.0898502637494585 1.6352203250262483
Ni 6.157732351418211 4.654734210929071 12.772736913244948 1.8061320936798828 -0.12028700451823153 0.8801418339436003
Ni 1.71466343729883 9.185088164333179 12.167922327713706 0.08211100766914245 -1.085040501065641 0.412881886706676
Ni 8.833039121521965 3.8698522146355927 2.435300615743828 0.1187551412547374 1.6441004011246974 0.9670703176060442
Ni 9.07152157386306 7.606237366979381 11.932695056958291 -1.1587632846710882 0.7567332530772516 1.8813474026704566
Ni 3.447925273785074 4.051902284933845 12.801890411871893 -0.25093041257012266 -0.33177772303549313 -0.5987129956743045
Ni 8.044989671940858 5.75180889904425 6.074608403828544 1.1624204218077014 -0.16987072898363004 0.8759074841472786
Ni 2.584466426108425 6.230048172687645 13.766019790204744 -0.42373708425362505 -1.276675104088924 -2.5128931286040657
Ni 5.332513807135346 3.0564816078688417 11.289496108933301 -0.4471685758036879 -0.18805331342992776 -0.39298360512085223
P 8.004246803413116 3.6510855429623867 0.5072551773607595 -0.7420735941825478 -0.18320704108121996 -1.147455572967753
Ni 3.679463338743381 4.981526738458469 3.7115755896541627 0.028317101777138327 -0.6827435889636629 0.06280587958262732
P 1.5194910605232614 5.157989901354345 2.4848227782673358 0.5741005964422629 0.6350676230439385 -0.34826312228502604
Ni 4.14681506887041 8.672699496352616 11.186532637602703 -0.7528244049411487 -1.339582799356738 0.7866359541739549
P 0.9646603654000203 -0.25498091310983134 1.713156357483842 0.16739989884563428 1.5802092588976915 -0.8561747816050417
P 2.5869782258000713 7.196167598202665 8.029411896573803 -1.9836806509237448 0.9448791262209857 0.41991693917658646
P 6.339625434235734 4.517554856445936 9.618657112063325 -1.0465040355533397 1.0883523390476932 0.015351799865721948
Ni 7.779736236856806 0.3627149569430223 5.986012980807626 0.8293322074909008 -0.9434069125508333 -1.2609579504639832
Ni 4.084527977252184 4.965126164001246 10.537913927669523 0.2934474599967269 -0.13001220222579546 -0.8904609564814212
Ni 7.901475410882466 6.77922731850468 4.0437915729148255 -0.3153488880555085 1.1714737902592212 -0.690997858552655
Ni 0.8313567547793266 1.375293442195819 5.899269086603527 -0.164542117681865 -2.1499117262722587 0.5767210647842455
Ni 4.702089022762764 6.283941051365772 12.28687358877279 -0.5064343034435407 2.0511849644233062 0.5145016538327075
Ni 2.29076131878186 -0.06394100090048324 8.994825801881317 1.2315162481640984 1.4669508790914672 -1.609412105713893
Ni 2.755905989621007 1.1377159765083313 1.0115155876626916 -0.5524056279673325 -1.037543483925942 1.3974817285560512
Ni 4.486452866146427 1.284914826084984 12.876550887338787 0.5495373052806019 -0.3328413884133171 -0.4944871583839936
Ni 9.00199458901597 5.067943729320346 8.27726280769128 -0.2078708623764872 -1.5265865884762289 -1.1198576087448262
Ni 2.4257890213232534 8.75696483527275 6.2442980186588946 -0.5992272163065615 0.1782396697736156 0.282072642500882
Ni 8.001938163990648 1.2444305251725596 9.489811945895305 0.029870305196871134 1.8402238931572694 0.660287831063308
Ni 0.32140693348466065 6.7651815562583755 0.9687928299662406 0.6276731303520804 -0.7800549585223275 -0.58680750248597
Ni 0.23346531714818491 8.646898142167096 10.002935684667982 2.2697688423419233 0.325011350845937 -0.07239840836706886
Ni 8.765359048212849 5.3756299569893855 12.49704288723672 -1.5079926275241256 0.456728194467665 0.5151727117578031
Ni 4.974730103998718 6.066707316269085 5.657107586478784 -0.24121318528235877 -0.9136168257725943 -0.587155372743692
Ni 6.251102964220566 3.838547064066907 2.6151002243330566 -0.21851497235389464 -1.2131521438346138 -0.711704237862071
Ni 7.248361318265855 5.950508876857352 1.868438215406445 0.26505502489696287 0.01846643423530368 -1.207999910209713
Ni 3.1967176009473266 1.3909829557109215 10.796267301247697 1.3626306823151373 1.8785677830427905 -0.4692957467200305
Ni 2.3246521455037117 0.29333295465166304 3.734579796315417 -0.4508179996308171 -0.33348364998300634 -0.14820944196011251
Ni 0.2835535580580824 6.312854451492779 10.049550808430716 -0.2615657807967818 -0.09338375236948433 0.9282636291514915
Ni 6.774314533813665 1.3381335820517504 3.8900232589975934 -1.4289700289723195 -0.2632642515451272 -0.02891076949707924
Ni 2.5158351933572525 7.449748552366711 10.350505043543835 -0.7143383330508084 -2.7873828165513674 0.4647109555628255
Ni 8.114581298691778 8.593744028104158 0.8227427593662086 -0.42291510257296194 0.22226261232178496 0.07760540648930506
Ni 7.246569814074018 1.6734773100019746 13.098451767891936 -0.6307993346858878 0.8993613442948446 -1.4761929665150253
Ni 3.52682533468739 1.925728487858678 6.626833106771702 -0.1923984777725009 -1.039332971726197 1.8451560403515643
P 6.8983069399156545 8.485108691440436 3.056901780243731 -0.3881620153624928 0.18203950313568001 -0.36411834414972777
Ni 8.072471715625934 1.7409265193688426 1.937098075286456 0.8453257547056796 -0.03170093064770669 0.07472757072087777
P 8.376861206199688 0.5661698085106422 11.597437210394583 -0.032848156878272465 -0.640255080782149 0.4060409525254427
Ni 5.283986206475038 2.9923014319241905 0.6999868605388931 0.23481859460992463 -1.1593878056289646 -0.8192488551129699
P 2.2315862731051226 2.0456669231348115 12.7230254422888 1.2322235586437682 1.5932820329212496 -1.5269514280148153
P 6.849040574640156 6.970382662685152 13.027521130275986 1.8223711812465646 -3.014081353157319 0.9918904619735176
P 7.905483208919873 7.688618856130781 7.210184733320131 0.28277943875991945 -0.6085680340915132 -0.6132422996387309
Ni 7.051619066683007 4.566830456279124 4.494703019986564 0.19320991793020273 -0.10627989160586213 0.7791686992626323
Ni 6.1690169809152415 0.6884806016573054 1.3006283494500805 -1.8416099748715187 0.05677330023530222 0.750707872818778
Ni 5.755761289735518 8.126189137707954 5.544535557871866 1.5939505197431838 1.4016307177274183 -1.2308138227804348
Ni 4.386913568807233 8.097072577311769 7.333164108443541 0.7844726279740489 1.0993880280365647 0.5514370934064761
Ni 2.8659357444959017 3.530999354763215 1.6084364732806269 -0.08386192892197816 1.2902690407232746 0.021338613576776154
Ni 4.847145454955366 5.097383499235676 1.2553900982389068 -0.9620443251463624 2.018288985026234 0.15936982945230618
Ni 5.806126567376112 2.6892601867731587 8.692898244387685 0.49005843318867853 0.4636431764199434 -0.6547630445903369
Ni 0.45600430563770633 5.1704842579087495 4.484917159202601 0.11387338768240389 -0.6922759539341303 -0.35467031136295046
Ni 4.342800086722687 0.8735928512855209 4.780438704026765 -0.6380171925905658 -0.37790305663864593 -1.0468156532564874
Ni 0.9710045065329664 4.270511969126323 0.437430839756055 -0.05892325669876949 -0.25721547424788604 0.5036130319446618
Ni 3.538525519280465 8.379576166160511 13.54828184825819 0.18033794706354103 -0.3647711472423782 -0.14567022047802652
Ni 3.9603324108810165 5.784397653131829 7.662447196181899 0.7644936137489607 -2.063391276681511 1.2611880641969182
Ni 5.466359486292435 7.632916004145438 1.0601244524306705 0.8097895094722827 -1.20142328543346 -0.6187742852005537
Ni 0.9883931786630064 1.9056525594408835 8.292184929462353 1.627535554787481 1.7595699296496277 0.10616290641202362
Ni 4.57848446808375 8.953817901547877 2.699127311664793 -0.6162360921597323 0.2785371185437977 0.7000301439582525
Ni 8.71689608945637 2.565840323247941 4.3950649128800885 0.07638541803927491 0.8608781006179818 0.5659815668795543
Ni 5.8707222984168075 1.457998140866365 6.244419914820401 -0.005237080029223238 1.533844812700539 1.5635443966475007
Ni 3.502196769328486 7.6594099501576975 4.387969078751187 0.666424025868033 -0.19164257344308286 0.6224021117611281
Ni 0.24578052328340605 7.784990700182346 5.786129132698681 0.7037626144174911 -0.5531808155704603 -1.2836358516774733
Ni 2.357637985571955 6.051534937984615 5.502812902773228 -0.35500943986992406 1.0936778650256649 0.7309075502633993
Ni 3.218926712191483 3.134642904155968 8.896242281263026 1.6392312459578544 -2.107171764201571 -0.7109635030413045
Ni 5.49936379547606 0.9418694770214018 10.21945743536678 1.78546736624168 -0.2716023390971774 1.402863561693255
Ni 7.038662982244109 6.274660320887444 10.757869086917417 -0.24080849364477236 -2.388221107644261 1.55606839998543
Ni 7.671691911885236 3.5917904480356806 11.076176902841354 0.4916363191987598 -0.34919514718099215 0.009905174928853908
Ni 5.421987436592572 3.9875558869507763 6.672259742959749 0.32811338681002844 -0.3921690796393569 0.03266355167129213
P 0.15173024703507604 3.3524584163871167 9.712982578130813 -0.31343547308287956 0.540361809428921 -1.5448948998671135
Ni 2.9051272073317436 4.098564504940797 6.473889438856176 -0.4686437149583284 -0.022253669191877802 0.7658403575848423
P 1.9128647489966781 5.7012496956921686 11.594950344008698 0.5773116471803929 0.5906574723596796 0.46438879633671637
Ni 1.326156360727979 2.0719854125509634 2.6910987872092136 -1.237378106261514 0.16340697563615728 -0.5240363327960201
P 4.667339382175754 0.8443904095028201 8.388213247967855 -2.129345986305765 -0.028233540924396536 -2.15083809474127
P 0.6572142362309169 3.60775699828148 6.236053405553372 -0.30488938328508136 0.5663124678564118 -0.21911532494205488
P 5.236418999814478 3.3041893833421248 4.626548493948026 -0.49087373000112233 -0.8631370718554876 -0.5398072224770316
Ni 0.33940416296646364 1.6189934196316953 13.56706863242248 0.06357283965563891 -0.4388027203374959 0.24159447988117747
