# total energy = -340862.6080147369 ev
CRYSTAL
PRIMVEC
9.30061309029683 0.00000000000000 0.00000000000000
0.00000000000000 9.30061309029683 0.00000000000000
0.00000000000000 0.00000000000000 13.61238737803184
PRIMCOORD
 96 1
Ni 0.4426766406128876 4.625604217725589 9.592608837791042 1.6916498687688868 0.1349104108583612 1.4415355243421561
Ni 5.928443428459443 0.08855020910384674 3.2049550684672754 0.24459264327755292 0.2403523799439603 -0.7610894731634182
Ni 3.432214624226876 0.17285840848463532 6.5698695248427565 -0.1727771039971476 0.3412321835801736 0.20281221690665716
Ni 0.4242456152496243 2.0946469234559704 11.747885529244478 1.0514063579509634 1.4064145122693068 2.966828590817942
Ni 3.8853312032614538 8.83732184328759 4.214667780098626 1.57626312976575 -0.8629113289979268 -1.3492308639694635
Ni 4.034950169310208 4.113475247345244 6.646302894948137 0.6723342207048808 1.1925020716844301 -0.27831986032666906
Ni 3.5980817616989644 7.529320792175974 9.930277834077652 -0.13803867207469775 -0.3009589378824236 1.0341655685926447
Ni 1.845688106821853 7.220047498335034 3.2679118499107154 0.3719797491756755 -0.9023790480752459 -0.7324751518608353
Ni 9.102361420305764 8.706666827743804 12.054668118845482 -0.14864035884994403 0.782255308607756 -0.49287276270902214
Ni 4.25705811536667 2.4747815899782974 8.24304985630113 0.47602329525185116 1.2333324754372308 1.3602606394210637
Ni 2.326167090165216 3.796761462869691 2.134204291914885 1.8884554744701478 0.3390125502210355 -3.017381106954513
Ni 4.988235130029991 7.926177961399592 13.51635250401501 -0.8241730318874644 0.29186108934621346 -0.5147862749526618
Ni 8.805504445211332 1.4199897357758204 10.076420230877384 -0.22874462050170283 -0.5469479472868709 -2.5114949627049583
Ni 7.735915315259269 7.995523334114176 6.810236434916556 0.4105756071710026 -0.7874934170782437 1.2287937070266126
Ni 0.9751693037988353 3.2336372298023752 0.13768627919349505 0.3665626919251623 -1.9568424476849784 0.48120021146710035
Ni 4.918824653022353 5.62853585220482 11.225945341901069 0.13606355062619793 3.465366522232541 -2.9998063312955434
Ni 6.947288412283451 7.176092799911063 2.2247401819568435 2.818713508343849 0.8490026893366346 -2.681894824719181
Ni 3.750416506829352 5.352112324515691 8.618832765863539 0.08855727751511845 -0.13490372599014186 1.0173618667717448
Ni 6.065766983734501 2.5875422255458425 4.229981239885987 0.20006910694388125 1.0935302837042071 -0.13988420992386877
Ni 2.525795453891856 5.238458830071992 11.008256117220238 -1.3291549191551948 0.5575781733072074 -1.7350359490640055
Ni 7.041336213904946 0.1456271428232847 10.804464798983533 -0.8393597669302318 0.46322511504591835 -0.1215167631602746
Ni 8.847357205031024 5.552410332399446 2.8374748163917642 0.8136243098373407 1.2769697525112071 0.9426322391683377
Ni 6.294655076881751 5.586552883799022 13.37708419050033 0.36213062429573767 1.1688309533197354 0.5619356789449549
Ni 0.15724825913321933 0.3024419933770379 0.7224762909274718 0.7789599256859359 -1.8167234960424838 -0.11456552865342204
P 8.126038840458563 9.108230107293814 2.622535783061752 0.03566300061924826 -0.19865654286707077 0.31408313396920745
P 7.009937343426883 7.0089049753513315 5.11586186588549 -0.8048889868468718 0.5995925700657803 -1.1082850734158785
P 6.781793299343093 7.75306564617205 12.124458060875485 0.1482534078241705 -0.7648733656858826 0.7519396883433501
P 2.885747789567798 8.238920383998922 11.903420615409079 0.783390964874096 -0.5524534504861324 -1.3136344549220924
P 4.434532418228752 3.9817971643391985 0.5892952288132344 -1.1179513928610487 0.7681160409928964 -0.021865175504207503
P 1.1427384535035907 2.692025315282381 8.709138000695825 0.17808308959109329 0.3749794552339477 0.5626897835021599
P 0.08654499687781882 4.373827315263611 11.908075572362359 -1.0326190500411314 -2.075591932512761 -1.7039749659931427
P 4.250026851716961 8.177452630743732 2.035392716164579 0.265477200036046 0.7295296960792662 0.35507397455927237
Ni 8.401671816017764 4.003114170007362 1.2792416946861824 -0.37369724608741445 -0.7030375633260086 -1.143335123041476
Ni 8.419659202126939 7.385747224767842 8.926895119853697 0.6623495986883431 -0.6998429676481108 0.4269777026781098
Ni 3.766097340841797 2.3291153845791808 3.4423002092820925 -0.34190761238064343 -2.8650363026697887 -1.097885218238793
Ni 2.2090072645099568 8.143031060945358 0.21193028492964158 -0.5064296754578503 -0.6779654508487292 1.3594926509067877
Ni 0.8530996843860615 6.93515111193574 10.875943732387592 1.130410444560008 0.5896457432657136 -0.5547905832597413
Ni 3.6211658838928478 6.032898616356102 12.887855190170665 -1.1052223753301547 0.5703650406592307 1.257064528946848
Ni 0.7785431780432612 5.3671421155976065 4.979615321629792 0.5965792371607532 -0.6408955425796253 0.5204054209116521
Ni 2.2437171533204214 0.11046524420676705 2.4038383718999303 0.8864834598909119 -1.1312933613855936 1.0825105355549358
Ni 7.867137668213945 0.1401128092017079 5.028035244495859 -0.05728469265408199 1.7695915755516878 -1.3497833940388237
Ni 6.186665655933653 7.2733772149586144 9.830498994544847 -0.17096241938591203 0.3802203919179129 1.4873968056506446
Ni 6.262195936488257 2.9434301932126274 0.6686852638845444 0.45298004027914246 0.23956639370755514 -0.6813333388796975
Ni 6.916652192095436 9.03831739716834 0.5526870848296139 0.7984226623962378 1.03318829228104 -0.22320389318913172
Ni 1.6133773879826796 4.7151040194466765 7.29155712376296 0.7437124153375514 0.5278127691193167 0.47882194104291087
Ni 8.057921148698691 6.009544776376713 11.53419835846374 -1.113839170464888 -0.11253050050126426 -0.6152040513507921
Ni 4.716238694268456 4.269576740859404 2.850801665179684 0.9541338120500341 0.7459541601838766 -0.1674317805248342
Ni 2.2287338653049718 7.396684746000722 5.6138985470038785 -0.6798007042852551 1.0831911065617281 1.7675138670870527
Ni 4.576673691189721 1.3491934673874872 0.9955283462977923 -0.816370248013594 -1.041060238829949 -0.06774419742450914
Ni 2.6930855851978133 2.0640572063344216 10.41598097190784 -0.5383627767210212 -0.4386939626737736 -1.3428866669189905
Ni 0.4667987112502997 1.7793096297478206 2.429389016739188 1.0676883829404387 1.3261611266341935 1.1175173906474236
Ni 5.830712583973813 6.35583451112485 7.777247240734539 0.2946216828104862 -0.42593846278031805 -0.8354334352926321
Ni 1.8349179966282518 0.7116643279740513 8.41472894702018 1.1644559641804912 -0.42909269213858364 -0.32252586541992195
Ni 4.244585992940401 0.3690808876232816 8.941977924431384 0.13341814258355086 -0.8583517346517024 -0.23548142500490413
Ni 8.788744740056869 0.8675732987930405 7.825870847031728 -1.1842573151771347 -0.2757860381612218 -0.8429976207931352
Ni 5.474703708334217 6.643167658206979 3.5297194638094784 -3.044463564993602 0.3319666991178476 1.506491874608883
P 7.340183520244137 2.2430196073234265 6.028926324418548 0.2801376302616982 -1.2741191704362895 1.5177173110110573
P 1.1035735709256518 6.42913264448907 1.3394659559440614 0.07258918422163628 0.10535969378443791 1.211840624112042
P 1.0787409334326343 3.7422226665179856 3.6220931550381863 -3.295767558853059 -1.1352294632152062 1.69527178179219
P 3.7283368508711408 7.433756990587676 7.748007972663173 1.0090435767140364 0.31757134962812406 -0.02609875396958086
P 0.4627464340384241 6.526379857083449 6.905455183751673 -1.6154567692460757 -0.006602850028498306 -0.7408888298458273
P 0.6289725751836323 8.867279118705197 9.621644422431286 -1.71297871215365 -1.0651332206187527 1.6779988536443553
P 6.304550929425786 9.140326523768872 8.633003180277157 1.1498335862816262 -0.7468743580053009 -0.2675610791482682
P 2.2696193613421647 1.4974452432821315 0.9460462933936346 -0.3993357725911252 2.123648678810672 0.6926310232807039
Ni 6.286145015718414 3.9272211655343194 7.1479054312031645 -0.46707019982362147 -2.047080455336629 1.6414593639574246
Ni 6.289558340797043 4.465670871534604 9.702896440283908 -0.7710113602628206 -0.12182966641500309 -0.4730647268441594
Ni 5.428098335121666 3.881852773889773 12.121368397139463 0.3196901957433398 -3.559716752280353 1.2057445385166332
Ni 6.608374063876874 1.9726507788882133 8.844526098344554 0.45588641529266005 0.11736443155479788 0.05759528191596532
Ni 5.854243135605774 9.287136704603059 6.4231681611841 -0.08706449501967586 1.0244537406215195 0.213035180186246
Ni 7.718104640802666 5.272536277178515 6.198251429913073 4.137644178667874 1.8012480261147046 1.874156541348972
Ni 2.438062768696487 2.4678712343014015 6.903536467229273 -0.8802634471231291 -0.4198233510215157 -0.7167973361142623
Ni 0.8663307368570603 1.8941070996265903 5.030144623590773 -0.5698490202547605 0.529772463948849 -0.22353685104851823
Ni 3.1421935999029937 3.428382771550051 12.336471121263436 -0.5956898925772645 0.0030763249324785727 1.7529094869103163
Ni 4.378682235402696 6.091855204022108 1.419595389772186 0.04752529927447299 0.34055289812496187 0.5124069760872079
Ni 4.468377350002943 0.4754715331462693 11.276556489259029 0.4371289321794988 -0.6054081483062929 0.7421638399035089
Ni 4.585806893443707 7.261528233622994 5.804444861849645 2.3527419409010446 -0.14802689363566118 0.8401609226752886
Ni 2.8130448954543454 3.748109954732622 4.841177552882202 -0.6449010641945926 1.556696777598048 -0.07792936548762708
Ni 5.8542617368323615 5.109543029214046 5.141834758568263 -2.1589668944959914 -1.287908253800582 -0.8444330676880811
Ni 7.491578903431905 1.9890477601242393 2.4574303658183823 -0.39415808504492766 -0.5528871955894414 0.19494772655691586
Ni 0.7318354980844844 8.795608592667298 6.295225204476629 -0.2470043380428391 3.7587594748422495 2.4063281016576172
Ni 1.7004125271810533 7.400609604810479 8.339465594067091 -0.21557260189611907 -0.24843567117272697 0.7314996753214434
Ni 8.755690360412604 7.114625046655874 0.19936794655442855 -0.6711833949298893 -0.2145451890728692 0.06357181121437439
Ni 1.3418738847256877 5.340663269551682 13.110240294503265 1.280044020561157 2.618478308135749 0.9734872768759817
Ni 9.261680926019393 7.502925651649688 4.814320171875241 -2.473384271876166 -1.0540304258373718 -2.365661220065874
Ni 9.229147380719551 3.1124967416575986 7.002048563231536 -1.251614047355238 0.5618492898787356 -0.490243295505975
Ni 7.331031716763564 2.975861431766243 11.366629208758983 1.922165208017767 -0.376645530082461 -0.402492573052552
Ni 2.586240139684785 1.121653963167759 12.62419675422654 -0.19183232085638574 -1.1513739341855527 -1.2406902013538827
Ni 8.141459257298797 3.5686825230789534 4.615389354145595 1.9772387519531431 0.7558076559391887 -1.3818085407951688
P 4.708230866222954 1.3874561904759795 5.091182688511812 -1.2398247680297938 -1.6076460149524054 1.3423845304715913
P 3.9437948584229177 3.800658419839569 10.293292861711066 1.202141651656723 -0.3349658909554877 -1.0128585795847524
P 6.949985590138497 4.332848813093485 2.8540410687897286 -0.6887111194010075 0.17278533152726372 0.2462638603323888
P 2.0891595616129437 0.2365192463543756 4.646316683529689 -2.887391273326221 0.2872536724811892 0.5257047216373784
P 6.087204897375477 1.5159162612825556 12.442974304207272 -0.6091426756480606 -0.08591058392089077 0.16182034787532776
P 8.025499210758369 4.636337125466016 8.556460992996245 -2.2067809286554767 0.5064371316570181 -1.8517516912912109
P 3.289180492389754 6.018808187216805 4.797345622553702 1.796482486405261 -4.8787808628584495 -2.7248577014339523
P 8.172030373193758 1.8358387573442851 0.28093804538167994 0.15952255298008658 1.635861815264989 -0.5877814363634651
