# total energy = -340860.4737672598 ev
CRYSTAL
PRIMVEC
9.36894591213160 0.00000000000000 0.00000000000000
0.00000000000000 9.36894591213160 0.00000000000000
0.00000000000000 0.00000000000000 13.71239936997062
PRIMCOORD
 96 1
Ni 5.70907963965595 4.990106727746121 12.925047428771117 0.11663012449193462 -0.6486787860694699 -1.087179916006147
Ni 6.656355026382287 6.12971720580158 3.29555578030114 2.1477879950610363 -0.6147505087531413 -0.4662641589825583
Ni 6.687666043734419 2.3644877331671 7.31280896199326 0.6846366922213177 -1.272891982897408 -0.43265546978917746
Ni 1.4948528014967548 6.84861516614384 5.749595646400205 0.018443808527484364 -1.5018883143986006 0.11888883861912428
Ni 8.820356685247088 1.5690923291742824 5.095856831324435 -0.8192488551129699 0.9747124075323341 -1.5169626922332196
Ni 3.946527945639003 6.874539039576919 6.1093397483686385 -0.8569283719416144 0.030944769207972515 0.7264816532815617
Ni 5.292751788645563 8.454564928670393 4.759354273564687 -0.23623964332716735 -0.20076356190774455 0.9120651650147583
Ni 1.2153677749762684 1.2907503140592302 0.022397402178937174 -0.3522737861063159 0.9413682848542497 -0.15139195345315218
Ni 2.7642700256365336 2.026474901320829 10.134450665025819 0.8257318917341522 -0.39612780717678875 -2.10405044496377
Ni 1.2618471158152658 6.4716556259993006 12.289930330657976 -1.1350525713177098 -2.040837302640395 0.5394835205890257
Ni 7.894826622061834 7.88431466471022 1.6479423151519255 -1.3036518897880838 -2.325046788978622 -1.01001031150268
Ni 2.88388335853141 2.8110304348539166 2.3267336916877794 -0.47673343394499823 0.41328477857204954 -0.4829521611612005
Ni 5.28780498518598 7.7877114630591615 2.585787857783432 -1.5317434500868201 -1.3076247583929028 0.2287003975273287
Ni 6.574404856191053 6.808019523359044 8.097966918750686 -0.8140613973747592 -0.2568791739543898 -0.8505160406573675
Ni 0.4587363848357694 3.54262331695325 1.2823941511698325 0.2787327794943716 -1.28957201465625 -1.1847666507133852
Ni 2.154698295540244 5.644939835708405 3.746365099971847 -0.122629279498163 -0.5858014298189588 -0.36230700197260185
Ni 0.5974998432446368 8.436660872967243 0.39745129871802415 -1.4351185650722187 -0.5339525634684675 1.7643766070096516
Ni 0.9168825260769295 8.922431351330715 11.95209738257387 -1.002984772114466 -0.22426241636063313 -1.5180497546498115
Ni 5.195904994399903 -0.13736935925207588 10.824979457043046 -2.3237067300109593 0.8423571589956589 -0.1583079638466951
Ni 8.225016384043045 0.9220588687121938 1.0101550674441213 0.5764133037358395 0.37666892712122874 -1.4143358239989126
Ni 8.684956678432899 0.8813704733625299 7.511392203373889 -0.09783047528692827 -0.4251733024795194 0.38308562928084994
Ni 2.994802309588231 8.779255119381197 3.9046740534136344 0.7769380101599007 -1.3017451596836742 0.8105844945697523
Ni 2.8982365837209567 3.7030196715518464 8.263914373822393 -0.3265660969275666 0.2937860742830682 -0.3514178658639238
Ni 0.5987215537960187 7.2887963535332005 9.810618669763684 -0.957608400862196 1.4841081075970441 -0.11442334664860294
P 4.107458330156532 3.346634336705117 5.298608316756519 -0.057841593598816514 2.292616179253742 0.7955137162795589
P 5.4258095589732065 0.39979728278294757 6.635333922362843 -2.6128288231594547 1.5640797003256806 -1.0277810052225396
P 8.942199827277154 5.26413902772593 4.402927715355795 0.32901610112995594 0.43758864542473674 0.2584002385846066
P 8.424696728993972 7.826686278195268 8.082348885858405 0.9424082960829899 1.350767612328964 0.3679408032196115
P 2.392969328843486 5.9623503554190265 7.742157774079646 -0.05116289602706027 -0.10730524754658294 -0.9622646686872847
P 5.006895878881674 0.6963693929200765 3.0698775472441584 -0.41852725791791145 -0.9802721610082988 0.8084422514157691
P 2.0465806593213305 8.969276081061613 2.1431520065561727 -1.7054422945672887 0.49938022481023675 -1.997068899305193
P 1.5478248218764545 6.639528399462948 1.1701382515264913 0.478662275536595 -1.0888243935881055 -0.03876272259049453
Ni 7.694181275678449 3.7674873886075093 2.85501763607123 -0.41280706760468255 0.4117212907396715 -1.7064396254835517
Ni 1.2725183452479645 8.358027309640958 7.593104402338089 -0.67169273046614 -0.5206759009642195 1.4418183456898974
Ni 4.5527643309784525 5.164959365939672 2.6721489277261274 1.6277029336032804 -2.174760924105455 -0.9151196355703658
Ni 2.7250890936896104 7.880941844169595 13.326752228948706 1.2880800034917559 0.9618378655625113 0.9210432001436526
Ni -0.018880299870741316 4.059845346858046 12.870128541423801 -0.6290936648486907 -0.24470602892696564 -1.4104025503827773
Ni 9.608790962401894 6.846610211711358 3.0115033926318913 0.06706876862403933 0.16533221768332818 0.6043313703023463
Ni 5.546875078489742 2.861191771449763 3.7373830914932444 -1.1000549721966022 3.163362173804739 1.5790185810236999
Ni 4.516909374842423 5.715591057088544 8.326415549123954 -1.067055120231814 -0.9501935964553636 -0.058218003101628765
Ni 2.9764672823715577 4.988879395827171 1.1606915433289582 -1.7250484988339903 -0.2638448066389456 -1.449234949868943
Ni 0.24622714220073774 5.612457700113 7.977819555936878 -0.8944654496551241 0.5121051285760728 -1.4102184593964293
Ni 3.2790092848655923 1.663278342771227 4.635901546621067 -0.7707812465298854 -0.78404685329054 -0.8437051883831213
Ni 0.013211150678707985 8.612843901485153 5.548283231065452 1.0907534922900182 0.18844463533107547 -1.412905519310289
Ni 5.875865615389841 5.679848528303869 5.4205526434028055 -0.5466072761180006 -0.010418624230162703 0.4607074908303872
Ni 1.6302809151487823 1.4053606298188464 8.118233822621463 -0.6594668778239094 0.7395135467648554 -0.04255329998117833
Ni 2.9481449587762563 0.5993136711798173 11.935396299530211 1.5468949610162779 0.23765349295555846 1.0915644182270878
Ni 6.4626989136747515 1.1957679400568604 4.667933972811055 0.42321335053967113 -0.32693685000342404 0.7188758159098458
Ni 7.211511918423164 8.961265632277629 6.06236104271071 1.0020815435739066 -1.3941868598548635 1.219210691323868
Ni 7.054638287500332 0.554118812830041 11.69046488255383 1.9480338482544126 0.370219057730827 1.0646619374092892
Ni 1.7158662363671338 3.9551567448554343 5.975438772905839 1.7526819442805428 0.6300624565198634 -1.1090165522652642
Ni 6.999492671661117 2.8199965161244105 0.5055061629990985 0.44467074908249876 1.4440390074903002 -1.1189042436926213
Ni 6.143798731558688 -0.19028610285069342 1.2543210415366994 -0.5045211455812278 2.720840866965075 -2.5325008755326643
Ni 7.9935003607669985 4.050289021992944 9.095914249626935 -0.36462870812724296 -0.16169950602674732 0.07581463313746944
Ni 2.9934625503179273 9.30825391434034 6.32644820656865 1.5870257675988926 -0.3512345462085241 0.08465202892344131
Ni 6.828247077656846 3.156997501808494 11.570111402929204 0.6324067883823238 0.7097358012817906 0.18792090161712152
P 4.995119113827326 2.1329623409451073 10.434491158952223 1.1279725245424768 -2.8145038411378756 -0.9862072955458113
P 4.008512892018928 6.569317518542277 3.949116585403932 0.5030206497763015 2.253511499942796 2.2453559607151976
P 1.6699958770146377 9.24506037393336 9.846408043278092 0.18125634511275235 0.5998723060897282 -0.3599590705657155
P 2.9849930231825814 5.088190222856675 11.743915656071378 -0.7157084739254578 1.277023231456962 0.5329719447227531
P 0.6414879813565452 3.2745028218654797 9.475171992212072 0.48094541514381695 -0.26547205782972344 -1.0458725726169278
P 8.972433415845476 2.0382891421589617 2.76680526240957 0.09850127610170778 -0.0977947369529864 0.03626720986215044
P 4.441451884191891 7.4554699019157376 9.40416943535895 1.6860188957353546 1.8604355922184541 0.8969064549964489
P 1.2615847853287727 1.0435787821071174 5.928596853858724 0.6699366670069816 0.40221103725639124 0.6576169690993642
Ni 8.691224503270893 5.6268109253025465 10.788449936798893 -0.8936799776393511 -0.43878677949789585 0.8720577713838852
Ni 1.532675236281482 5.197741307805355 9.77179844223569 2.2034950588153532 -0.5972742063452489 1.7062516778424615
Ni 9.18749757004003 3.2346098500266467 6.83423289722186 -1.2802785051694658 -0.13182431573386974 1.4338435550145372
Ni 5.833414921307701 9.248536252879392 8.543085540653683 1.1772310044579726 -0.9600339795845529 1.2816545595813862
Ni 4.768156398281124 2.710679654824386 12.572528657916376 0.4127335340542698 -0.1830939125421234 -0.07682893333459673
Ni 8.652230950242894 9.48081116077708 9.843596422599644 0.14115742020933755 -1.4328765631155775 -0.5087387832070013
Ni 4.620736033817986 6.7305664472219755 0.31708448039169473 0.6612126568704225 -0.07312243101728698 1.3543594434452804
Ni 7.437743856185565 3.850346346555522 5.091180790402696 -0.0018730486529967743 -0.4785548034244532 1.6596540325885807
Ni 9.078330611875145 9.238052402365616 2.8220117763974337 2.171629834675641 1.2961509534253484 2.2718424370415002
Ni 3.8885341702321505 0.7654110293866638 1.0586552899237098 -2.528783574582077 -3.483457318295981 -0.3544941907964024
Ni 2.7914399688804545 7.572066434215943 10.887110558979732 0.040235964701911354 0.3590509569291494 -1.1944319417172913
Ni 8.77355880024592 5.641838714600218 1.000233353687117 0.6388623141996804 0.05701601237372761 -0.2355117640222073
Ni 8.10868218222933 6.653759828355194 6.191518520840959 0.6524732201148957 -0.798779017294392 -1.0715931173114837
Ni 4.024524420640949 1.468750918090698 8.213918867569795 1.599705162838774 0.37707053343502156 -0.77580106834198
Ni 0.4836352955823366 1.7327022322324186 11.01597947357484 -1.618687874588864 -0.8652044959074777 -0.8616514884488966
Ni 0.7659619234082993 3.790591209310788 3.382080806797893 0.6106354581435033 -0.24201331258615097 2.541724451013461
Ni 1.9737464735357297 2.986754385020463 11.865764419469015 1.455313294852539 3.515073659649681 3.3089915137425012
Ni 4.2697940565659875 4.054064707209253 10.385811989605063 0.3875269528816552 1.5308098825289573 -0.29526137327701407
Ni 6.738520682330282 7.664378658623652 12.977126588602147 0.6377742233418241 0.09892216568921028 0.8516702088664687
Ni 6.964939999011607 7.580386058216151 10.237101521285137 0.7010061347182766 -0.3335808376825029 1.2989331441561758
Ni 5.1400660765606725 2.317146449301054 1.7460136306327507 1.3405991564363946 2.4523827299238343 -2.2511802807064583
Ni 7.188164505125285 1.9156309018315771 9.620331630018399 -0.8639217725403121 -0.7980742779178835 -0.43486533295630264
Ni 4.958589593583172 7.084928089744331 11.641498086566122 -0.564235530722725 -1.8576695994375427 -0.368927592612913
Ni 5.1792938532373265 3.976049494315415 6.99558582120156 -0.524022191728633 -0.23645484466176697 -0.024805231969137927
P 3.0962867320772496 2.363129236004904 -0.0240201036168155 -1.6451494112145022 1.4435571827578753 1.3051500716001652
P 6.658163232949899 5.674274005465893 0.9670766539835871 -0.7909302106739347 0.41498736308545303 0.8156171718976534
P 7.3277336928855235 4.848326468742583 7.2056741282041 -0.38702430221362377 -0.9425864735320669 -0.6041105125407918
P 6.424717206808939 5.159609697804404 10.604744581580796 0.09395222327844464 0.3936266380214898 0.12808413196514715
P 8.48089166677916 1.9381444789402469 12.659204524442863 -0.23177029470190408 0.5674275552974615 1.2360874124745485
P 8.67766763848677 7.520087522106538 12.109981922764295 -0.41552266676363275 -0.28793552903956215 -0.7131684811124234
P 4.7700301874703595 8.932755929763406 13.15442826926603 0.27682604938996197 -1.0492504879502254 -0.8253601102170302
P 7.604230025649178 8.069454405552678 3.9775972441857244 -0.09004620335581912 -0.0022137198218671553 0.6308340445785652
