# total energy = -340865.1183960574 ev
CRYSTAL
PRIMVEC
9.34142899100902 0.00000000000000 0.00000000000000

0.00000000000000 9.34142899100902 0.00000000000000

0.00000000000000 0.00000000000000 13.67212557445418

PRIMCOORD
 96 1
Ni 9.396449746572934 4.972143587975705 0.16303502150529656 -0.5377912204882674 1.052853117699819 0.053699289295668806
Ni 2.8246799026416576 9.384959789233381 6.705575534936194 -1.0522951883138199 1.0909499245715406 1.7778653855247057
Ni 3.222979740888759 1.7491077985145584 11.573591150986466 -0.14920754420732368 0.15886203657795223 1.0635828454124974
Ni 9.344231159964714 7.222587183644104 9.644248892386459 -1.6795150331785658 0.6312281946931904 -2.503032433759902
Ni 5.772909541684089 2.592330545806906 4.822226734837837 -1.1304919485302207 0.4071323858174085 1.6733567268866536
Ni 3.0724239340256667 5.024231394581687 12.015706026555069 0.9782703000869216 -0.28943911016828217 1.3956320769418222
Ni 3.829686854132174 8.985165322389262 10.603239031803493 1.030600991169838 0.26414176905407416 0.6132081039666858
Ni 7.935833291568513 0.10954880301823272 11.351719140616792 -0.9087926649110736 -0.35579774009917436 0.13804227161912352
Ni 1.271723424627888 3.989014262574 4.443604616213315 -0.17113751151119558 -0.4281336706594239 0.9900675498321659
Ni 7.040139739092199 5.118028680473125 12.980301957353786 1.348628197388458 -0.2880095768106072 0.34171452253323087
Ni 6.572246256796576 0.5404362153946322 0.6879112190621268 0.9760861479514094 -0.6887144618351172 -0.4245120147464367
Ni 4.943521450342864 3.5392524934459173 7.427532525152581 -0.6948352300208743 -0.8059639650786055 -0.6551867623913168
Ni 7.375384933402719 3.8404855457456093 8.161260649713338 -0.13977442381888186 1.0344103376135994 0.8991317447825419
Ni 0.6915842688392919 8.525492297377223 1.2952189861729675 -0.6861400162397215 -0.6197762441025068 0.8653124822402517
Ni 2.3428863743937915 4.584138004190547 0.9461083091965111 1.5566630961466352 0.4092453183953533 0.04835010916861351
Ni 7.06653861668698 5.978000609480774 9.571335304566816 1.7909661845727218 -0.7474901372124289 -1.2124471473477894
Ni 1.372367977779402 3.2659783373391416 12.894113265164028 1.0072705439740137 -0.610369091855994 -1.3387890998108494
Ni 2.771695318877467 9.214581470602372 2.335076005831514 1.9036082709511863 -0.20417464447182254 -0.23873541316582755
Ni 3.5359082619600954 5.755861434249383 8.40823401322701 -1.378116179545246 -0.2065863392371087 0.9309355195566998
Ni 2.2446799341411587 1.1846613088517495 9.585253099233647 0.4470744734279849 1.6454278616868696 -0.6764664977056996
Ni 6.347855797240929 7.951386770406202 12.674593426548906 -0.4477324187269579 -0.18105322796301074 0.3292084196464201
Ni 4.871938081974565 2.758168930074479 10.154998047272876 -1.51036524152136 1.6196175854919848 -1.0567074584489025
Ni 7.03695431189481 4.47875734667224 5.922983330824644 -0.28363021679598893 -0.3837158066656811 -1.213294582949749
Ni 8.610125641683211 0.861345119031157 7.321272839190655 -0.48908655619371255 0.6357589926840083 0.07795687629145284
P 6.215730629264781 1.455768253492853 11.201408079186459 0.385699155644297 -0.02942370457775578 -0.11599789022457443
P 3.697029224718339 2.872115677739429 13.308597128688186 -3.0618717331677203 1.865220415201607 0.5749238636745067
P 4.256496732867341 7.837449364169984 6.968668467868676 0.8994996696449217 -0.15767444402775424 -0.2300437989291006
P 4.532526610449864 8.717019610655996 0.15514618494167545 1.0281558720634552 1.5698883365876575 1.711449419993317
P 1.1652685028054768 3.532564030474274 2.393182494969101 -1.7237097254179088 0.5479568481673595 -0.2377871903199453
P 6.81078898088021 7.632993513527029 10.554484246968856 -1.0938588706882195 2.8685851963633113 1.8033316481166104
P 1.7505744028253798 6.500653546999545 13.562269230745105 -0.781899210819918 -0.0954393493469324 -0.0593333476529946
P 5.7695092616258785 6.773918361677589 0.8870704796144089 0.6764950369507898 -0.004700233689146744 1.076864650123068
Ni 7.662390989744573 7.568033218129254 3.957560737892687 0.32607115956901905 0.9152088528500626 -0.8196784864512205
Ni 1.2512003057051222 5.882176233554635 10.92966124667726 -0.20033341634886143 -2.1274693381083423 0.12418659668295387
Ni 8.642353570806353 4.628201523516302 3.482413636187174 -0.2717787167740416 -1.082823438809664 -0.6182765196285287
Ni 4.36681900618453 4.553442069379346 5.107358900576182 4.075936674355748 -0.5094080413598839 1.9043528624266945
Ni 9.184063022937067 0.0814544561087117 4.959399076757531 -1.4406801183203963 -1.370960028116439 -0.27827409469039815
Ni 0.7155936089645956 0.9627183036237164 11.441011989573976 1.6571883446569071 2.0592397164069824 -1.4586917244064685
Ni 8.345464282866736 2.5805229798904854 12.662001180619052 -0.5122262275349695 -0.8865438808152023 0.39546729077465437
Ni 1.2817187533704273 1.8102848152761388 1.1329779861098352 0.43879063615263786 -0.0958566393900091 -0.2633105314020304
Ni 5.330069771245932 7.343250418566892 4.924344431300285 0.007997416383179775 -0.9742429240950833 1.6819195288550002
Ni 3.367715837652223 3.4237363857541006 3.135046069811986 -0.803857974479196 -0.7301637301188393 -0.638733759041616
Ni 1.0950863487468794 7.952984154719262 11.729931170520008 0.7875180996685921 1.1577430709366898 1.7643375262416003
Ni 3.0350582191002853 2.3877252323042493 5.424005310282595 0.49367906066040135 -0.4271525376930773 0.44836619565621494
Ni 5.478028660921711 5.95672083483077 7.197554022929845 0.3326380141532594 0.013989372300556554 -1.5992531629030198
Ni 8.266631965802913 2.217132060812421 4.958865681176971 -1.0068020889780274 1.732311351043991 -1.0332284014903559
Ni 2.3515832445426743 7.052274255014217 6.212845996072542 1.1865399405637242 -1.1726436421976063 -1.0474993095870733
Ni 7.223297132227686 4.898103423851063 1.818597752704163 -1.5944608837206993 0.21145523729363583 -1.189048823028507
Ni 8.359756668825694 2.401671985400148 2.271979325465642 -0.20650046439152178 -0.4541637761745985 -0.2798524949211116
Ni 8.843315727103784 5.978299535200177 5.209448572752436 1.6174671148078854 0.5195610706334859 1.4055313383334052
Ni 4.867435513326057 5.03085446755221 0.11258570149879309 -1.1733069868132182 -0.20038843795651293 -0.040136463009569585
Ni 4.533722313327476 1.544166193577574 1.011050855879697 -1.1751445542425891 -1.005403665968604 0.19440059580419425
Ni 2.3525734359881967 9.339121398448668 13.56999459230593 1.4869162664698006 0.48929661532198954 -0.9128416381694667
Ni 1.966482845092964 8.863259677445207 4.616434125743427 0.8071448727605841 -0.8906015958243435 -0.6528187763797725
Ni 8.427902391420858 6.870732929049252 11.691539766719924 -0.776592968115656 -1.4045705170820326 1.7445798839986988
Ni 4.081419675584468 1.3350769942838716 8.232998151655705 0.21386538939702526 -0.21738600095577398 0.5063772249533601
P 0.149539459417122 3.633115169338475 11.136479544646372 1.1484485330086414 1.2540861630448141 -0.3361138885170018
P 0.9555814520729685 1.8310694942033823 5.507131882134217 0.666386230651562 -0.3007689333588046 0.8071862675214808
P 0.2722400599462158 0.6427762378608857 13.372130987918684 -1.3935068030687032 -0.4104763625889769 0.5507822334312965
P 7.833871596965879 0.07992526422539047 2.389969977628392 0.09514264404212001 0.13115891423572895 1.01081455257153
P 2.9616812964155677 5.431031932974313 4.1571328895948945 -2.6096668804917056 1.7793779655144906 -0.8271416275974852
P 0.7250013618399334 7.567837048125895 3.3513384448004286 -0.30643410206438193 0.034792425088836856 0.3508285690193571
P 4.182923640179266 1.4691638622936023 3.259448678655931 0.20438753181357705 -1.382321475875845 1.1712868710593958
P 2.4902941197744206 2.6924613203781957 7.934358279971833 0.06838440211166932 1.3431985417324546 -0.3334124304254387
Ni 8.744147119691823 2.4032039797120888 9.58281965704913 1.3050713958434297 -2.04421804618717 -0.8481683663607973
Ni 7.85803787309387 7.4295558786157905 1.4656103828041984 -0.7747438307220593 -0.3716084818791858 -0.6784483040224186
Ni 5.3427274071769055 8.242176105384251 2.871706523160996 -0.12027877698811543 0.6483576552846253 -2.010137816674009
Ni 7.809658613694231 6.180457394375222 7.434259287982023 1.6458461801712108 1.4574131148043612 -0.6433985115071371
Ni 5.8431664271725365 2.787463650575978 2.5710844003003337 0.6537477159519451 0.5159427571546082 -0.955934869814515
Ni 5.404362153946321 5.716440605003106 11.418425349044456 -0.6904394149460239 0.41467343138946006 -1.076898331574481
Ni 7.396347099475858 3.971190816554593 10.494231097508806 -0.9691269430247568 -0.3418585043102629 2.1857251364264423
Ni 2.68512829882409 6.7233158422398915 2.52685460354316 -0.3521010079738775 0.3584945702050471 -0.614438119719045
Ni 0.8033311100380102 8.376076144819354 7.210624550010743 -1.7621934833154038 -0.07397449460493713 1.026051938346575
Ni 7.4164311712482505 8.727771595125775 8.818971963829899 0.61675956876337 -0.3209955448183246 -0.5199886450892077
Ni 0.274602507272373 4.690462146010718 8.936880411419812 -0.2170144765489682 0.1735093541774818 0.19888459971747685
Ni 3.5335729047772593 7.420746911322132 12.590331871106425 -0.2720193720299379 -1.151287288009017 -1.1871068688107878
Ni 5.45205014761984 3.26770650165444 12.33455421101346 1.8283924477399802 -0.19648884579179066 -0.3410686614191158
Ni 6.691872593130183 0.5992022094006524 4.450960057196376 0.23600567293949032 -2.5294919135030116 -0.9925784891794777
Ni 9.245856573994917 3.2924706292212367 6.739701642377544 1.2005421683800872 1.1558060018149772 0.7809054794480809
Ni 2.042157759245592 8.184707635829014 9.461835076977986 0.4190185957320332 -0.05925107235183344 -1.8274856196549945
Ni 5.832022102696042 0.3675908254356768 7.212784288333431 0.629403997000258 -1.5225173035028619 -2.099196973526211
Ni 4.250406121334504 0.13797663893346276 5.059329010611098 1.5360950421872965 0.5661612869905281 -1.862672966189405
Ni 2.3822231307814867 4.579018901245769 6.390078120963737 -0.33732076434090935 -0.10227874086626901 1.7412042826582463
Ni 1.5359737605801838 1.4727603123551702 3.3972356865861473 -0.4941917386307617 1.2248403788058195 0.904994374210906
Ni 4.716076343592068 5.111274827500363 2.4408022962128806 0.8038062953056544 1.539927014338877 1.0646444539077922
Ni 6.406482603958853 1.6501260196772236 8.983133561640194 1.3577908377243326 -0.22487948111934172 0.3236828618425006
Ni 2.3745351349355897 3.744175415525439 10.203000847094637 -0.5413964213410224 -0.9964724249172452 -1.0584876902777771
Ni 5.14715525525746 7.607043024511352 8.990885079201465 -0.3011219458228491 0.1857981988471639 0.34599258108329445
P 0.4041148776323638 0.28719848977371903 9.378558108123789 -2.884898331701038 -1.2891009885571025 -1.4858919389703442
P 6.573367228244337 5.651853966754584 4.13946824786392 -0.1263018432537438 -0.9783515469468184 -0.8089988952501874
P 6.850069688695515 2.3512656359658086 6.84261149199641 0.1201363378729802 -1.0183720532038139 -1.7076513864034655
P 0.7866174257518871 6.151386868163275 7.390618001234924 -0.4829567891468909 -0.3652059207869517 0.032515970349834326
P 6.71608557640183 2.7518074171084326 0.4480887192422987 0.006293032097563356 1.201221196724983 1.4479244585876352
P 5.4858754610560405 4.771274845965587 9.08471692837921 -1.5193304211344478 -0.8172729623335215 0.9809784430467041
P 3.260915282966752 6.757318642821988 10.426690699495433 1.215701392619029 -0.755554659388118 0.5715598322982801
P 7.450508703260199 8.328593662577926 6.028983325067838 0.01884721461349012 0.014145438262446606 0.9790830257962041
