# total energy = -340862.2521623543 ev
CRYSTAL
PRIMVEC
9.32559550670917 0.00000000000000 0.00000000000000

0.00000000000000 9.32559550670917 0.00000000000000

0.00000000000000 0.00000000000000 13.64895166970883

PRIMCOORD
 96 1
Ni 3.257104014546188 3.933592017407039 4.688537185414064 0.5734693906161672 0.6886478702632398 0.34583831489361727
Ni 1.4128090246538254 2.7939576535354314 7.441858557777935 2.6396901663266736 0.1723364169153032 1.1080729574050723
Ni 3.862876028853065 2.2133647463228088 6.888066478668341 0.12602107878853133 0.20234453324161927 0.24407739420403127
Ni 7.300672776383797 6.94246733838476 8.124428713841331 2.06272921761748 2.0111937687423493 0.8727897644539034
Ni 1.6646653747629085 0.7439381679687478 1.8251514080245532 -0.6799770819621191 -0.9491019060530815 -0.5132325573122968
Ni 6.0758491001766295 5.23309506013672 10.810501353954058 0.9237297458368802 -1.0740500634924084 1.3166400745176357
Ni 6.974603339513204 2.216227704055378 5.947107393044186 1.4170629931220884 1.162950069058926 -0.6306576669017009
Ni 7.10385608926371 0.40627235344196827 9.448376939321445 -0.32163420684358796 -0.6396061343442404 1.30777902458258
Ni 3.921067743026452 3.6837593214607156 11.39075947229828 -0.20729879192310102 -0.07382562773189867 -0.28695979538985417
Ni 8.632190587504063 3.3457437971131827 7.488033309950708 -1.966189693227833 -1.528640128571148 0.40838965526327736
Ni 1.9563140396761334 3.4444272457322196 2.788562796700607 1.8098396244384574 0.6571698542596166 -0.029166080040994927
Ni 0.7880827380621075 5.3994170508871 2.189810157915895 0.5368339987813205 -1.9749144746953409 -1.0701779821315118
Ni 9.037751398030737 5.424791995480975 8.184402549261279 0.3559993145870191 0.7160938822893345 0.5879169335000649
Ni 5.779248544201535 4.561512320361639 4.234695903313917 -0.22338721284453142 0.42346968952485137 0.12000932537681266
Ni 1.532391132161093 8.896104932232728 4.112797317953978 0.601407511787332 -0.009585329695589943 0.11303469383119244
Ni 4.255474262023808 1.4278698609342777 12.365049167798572 0.5565391905197319 0.5259104098902814 -0.8887596575195984
Ni 2.691012407900812 5.147327560897514 6.903161819651107 1.1042944641992465 -1.491615728827999 -1.706002795056449
Ni 3.5671334276382187 1.3215021218538836 3.160251180268856 -0.26289786934464404 -0.19515624302329615 -0.3794156366284304
Ni 0.06530248052870938 5.426507905001473 13.50666055785684 2.1422233564890654 0.24777952564596678 -0.8427867903339098
Ni 4.293886388735377 1.6259361778138577 9.737066592871335 -0.5374472068852874 0.3178899093098073 -0.8535635692344397
Ni 4.062788813586223 5.732648544886724 2.364216507162574 -1.5539819497700462 0.2953043106998076 -0.27331983600891635
Ni 0.40226141493780576 2.85225194925624 9.865557441492358 -0.8422895389825171 1.6394641879042668 -0.7512228647819836
Ni 8.722527628401114 0.14392377615075724 4.898458198937427 -1.690979325064423 0.8250006699950823 -0.7750125110024136
Ni 6.1202482590194975 2.6524230948800622 8.208724634154805 1.0115709711215803 2.710882727311099 0.21169537832889995
P 5.623016847479297 3.990673985749235 6.3794513130429715 -0.20330098361761761 -0.8497264548765365 0.5909361799423629
P 7.309420184700246 7.478288062945711 13.42203730915114 2.670877133452439 1.521064373106419 2.0023216630636997
P 2.8621184289991 3.28605066210936 9.348084825526943 -0.3745655076249807 -0.27557777880515766 0.13341377170817667
P 4.11395835455888 5.950224006966741 5.412737731099481 -0.42448321839103026 0.7837897429744114 -0.13685982127524815
P 8.993865146924973 2.716807004279592 5.059529879578894 -1.9196907783353456 0.3187034063500382 0.812657317938381
P 9.334547791505454 1.2131293798011693 8.011989079713134 0.226277647018449 -1.1101272688309398 0.9203114641839505
P 6.019531830642481 3.1011241088948927 12.663456091567802 -0.9881132543192724 0.632127309468692 1.7895291950158791
P 6.388051376954942 0.2769477966082684 5.23119263871182 -0.7301498461617684 0.0013991943403717836 -2.651992123622478
Ni 6.322557721724221 1.1707445495258415 3.0505542036948885 0.5531928997553183 -0.033269817796723354 0.9966865978105801
Ni 3.5122056717918637 5.967149962291212 10.75664324387945 0.24250722150343393 -0.0039756968182963785 -1.5167261507423813
Ni 7.281676538920466 8.145534400943449 3.092319814447602 -0.0330373900709431 1.197336774068912 0.6740010668843424
Ni 6.286318458698935 2.5652940587387225 10.69232927644407 0.8925216956651919 0.015734894236753547 -0.4700753051985324
Ni 6.857399258787061 7.579545375845493 5.617334762311693 0.02977877392432936 -0.9693496005585241 -0.05101685736749923
Ni 0.45265879662623865 1.9714308295279062 3.307331670401615 -1.5974022257372102 -1.5043552878818542 -0.1694629520222501
Ni 3.496240252775063 0.1531710363710026 0.4082223354024899 -0.008160424323605302 -0.8330947598571264 0.9559140438789084
Ni 5.0029113933191365 2.3351756710876788 4.743611353105373 -0.10046071382092377 -0.5191658920775962 -0.047514500641195584
Ni 2.7402049226868086 2.4696694053518766 0.6898068179541892 2.8305940618315186 -3.5135425677171357 -0.4867609933843294
Ni 5.244518914281335 2.1961310463560753 1.1009135599582542 -1.18410022077398 -0.19897998764476052 -1.3393897095093255
Ni 7.3365483411955 0.2511485374318779 7.147546502869851 1.6812371580759948 -1.2654221568829238 0.41881830679576904
Ni 4.781027506247435 4.735621183120797 9.17625793591814 -1.292818803728322 -1.5978174588977578 -2.4693327275146117
Ni 5.658015806340311 8.825957804987178 1.4760654695912463 -0.3271664495157269 -0.5187444882694614 -0.8817562296185718
Ni 7.803583475413035 3.443308174305808 2.9567582995307036 0.15326397366488442 -0.713157939589462 0.7844931967993392
Ni 7.418510997584907 1.6820949122292645 0.9008207912373479 -1.2689383975662984 0.4045952212178516 -0.6695060072274662
Ni 3.5644942841909315 7.657749817361203 12.219537242781835 0.7242782178723398 0.20830435036947995 2.518939849018778
Ni 5.726101977042219 6.896203060497873 12.412588254552048 -2.1368440944550233 0.9598169784777405 -1.2397985427775486
Ni 0.8208034540108519 4.3768189070276735 5.566151232946207 0.6864832585117532 1.2977172694712038 -0.004995139221746236
Ni 2.5802616390669737 7.352243317950918 6.452227325581064 -1.135465233375096 -0.0097863899628025 -0.6527511563666307
Ni 7.7082292642875725 4.65869434815024 5.80847495962131 -0.39803248039866934 1.1849232308959077 -0.6606153896060558
Ni 3.3008224049379895 8.754421164053836 10.266386445004358 -0.04276335910945538 -0.17959001315392298 -1.0276154261789527
Ni 1.9304541641308124 5.15179452100794 8.877168378578803 0.02093392193918975 0.6876302276320028 1.8910990827405816
Ni 8.941651139287666 8.822553962731844 11.656067993512348 -0.33149490168775164 0.25463177268110987 -1.16204195542236
Ni 1.3861098455386958 0.8246437341224867 9.984030735727956 -0.6375554224627987 -0.799522837438952 1.392240791872086
P 4.44970775926793 3.3916350511912663 2.634533805569356 -1.2906570201903127 -0.44014586462895167 1.6643262412532691
P 2.1239975673286464 -0.07346610658437981 12.319474983957974 -0.534451357481757 1.5310744490442536 -1.1530515789982916
P 5.966646380149327 6.401918537047222 3.03988105996549 -0.590304459895635 2.4395344132062564 0.7678985256654517
P 8.8221156597565 6.733760517359053 6.359537437009982 -0.014942480242445233 0.05628607618623855 0.7373149964516399
P 7.505612056940587 4.161901239585384 9.316924281658519 -0.08130162439396965 -0.09267644188981458 0.35612478442128986
P 5.419523034181623 0.8268977304871835 7.903316053494333 -1.5321283442300646 -1.8930502929296817 0.6288460676142589
P 8.059216691586256 4.289121009577909 1.0139794287570145 0.40942478139601096 -0.8439445580874368 0.9143115378467737
P 8.014416532148925 7.4204134190098054 10.407284065506193 -0.493820214223956 -1.4782611618979637 -1.6928199778175879
Ni 0.9103179774094917 9.0321187385178 6.586669769071552 -0.9342080196603846 -0.10429191464155585 -0.20606671928821282
Ni 5.63420756174341 6.039982860960147 7.221605717310228 -2.4970111672664865 -1.1841408442039283 -1.3211459328077892
Ni 4.600735773857354 4.961934727922042 -0.2663007645454869 2.9030204952230454 -0.999263614509137 0.5609627735087243
Ni 5.993979699739423 4.693040515345847 1.8078449684151021 1.7269608853653549 -1.4849663418322814 -1.7156287481819872
Ni 1.6446806242062468 2.6336879740828936 12.214228181423035 1.1085696945358328 0.16235770843603653 0.08812276108086113
Ni 7.970054675686936 5.868625048790917 3.130728210921082 0.12007668827963837 -1.307823247556954 1.0560510558118263
Ni -0.1572090191013034 0.1825653125047394 0.07645309473337596 -0.06566674607019013 0.19805053385195567 1.0384824508004438
Ni 0.19533391748009232 2.466825098809748 0.7511384600381825 1.2036154079887722 1.7093208036860883 -0.03783506856990258
Ni 1.280432200504589 4.778724084228072 11.134609618149865 1.1333823827041385 -0.19330427741622191 0.34343099100370533
Ni 1.4303131668819424 7.290796971045717 11.065259829295634 -0.5915625006724522 -0.26839745900663453 -0.8816672694491913
Ni 2.027356424062811 7.750642071348561 2.095906076847157 1.7517522333774218 -0.4735640350780812 -0.6849447103800398
Ni 2.519262920732338 0.407631092665536 8.05161166868427 0.9913690422524088 -0.11718008345813369 -0.4105280417625188
Ni 1.3660598158154935 7.6896340274187045 13.481478653084022 0.04665112419963579 -0.7989726213624369 0.21219211545966035
Ni 2.322595443135772 6.10065518346208 3.890265302014481 1.347068309100506 -0.6443516194490257 2.1465476948960327
Ni 8.423129393859991 5.068787397953881 11.175023950155186 0.4026344979470549 0.597964547544054 -2.2803383903276533
Ni 1.7582477227965536 2.082573273360988 5.22541916271106 1.132949666042094 -0.8683163020635819 0.20954979274080685
Ni 7.174087146866239 5.223387115512602 12.952595238807298 -1.7395472066707978 -0.9168774988017371 1.6179432831133553
Ni 4.288878544102186 8.216931157948489 4.039161485536593 0.21481798311828168 -0.4513504750955194 0.4092021238622437
Ni 0.12608111481615109 8.121194597419002 8.858128310817937 -0.025347991846485375 0.39335590085860644 -0.03413910777555411
Ni 6.514888797543443 0.16335551891086744 12.830151106126984 -0.051405865275801786 -0.06768249094863826 -0.6321339943369113
Ni 9.042218358141161 7.310520604936216 1.6050076770209223 -1.3586045918748797 2.1534143401088786 -2.3568667617026957
Ni 2.6797843912558186 5.540979586328128 12.853858634295506 -3.28778274087537 0.3634673408292902 0.6580131760965183
Ni 4.363725771338662 8.466157690205506 7.083259579660609 1.9565606547785015 0.27184016613959633 0.22448867343882628
Ni 5.42332787703142 7.066479103621572 9.620121763692309 -0.7345693153857026 1.9362036883887042 -0.017259301301079954
P 2.9874544287571654 7.185678861724816 8.729282157019028 0.14781863427959704 -0.04745202283437634 -0.16255928292388133
P 4.01190836606539 7.366194408400179 0.8728570614103734 -0.3201388532449841 -0.19962764853108847 -0.5563126763312225
P 9.212028121503856 1.7402959519978722 11.659903610826374 -1.3734712245740668 -1.0455133895052962 0.3396604682176796
P 3.0384747602063005 0.25130520743157553 5.525272486298924 0.27686590148896184 0.12135632632301034 0.5162456331070078
P 8.622296130975542 0.5572360214243746 2.1737869202087294 -0.1098059024812496 -1.2873765496668281 0.7425651891069858
P 5.308259357610679 -0.02304354578885268 10.85974702463281 1.0703628444488082 -0.20221777785576786 0.541113599993281
P 1.9136401159489826 4.16244212410815 0.7243357668161098 -2.225421940795432 4.1507748025125615 -0.8824038905048995
P 0.505590875095493 6.939539101485651 3.559960179794922 -1.2444820642961472 2.0932366421777173 1.3731899458882222
