# total energy = -340862.4819554161 ev
CRYSTAL
PRIMVEC
9.35748252617447 0.00000000000000 0.00000000000000

0.00000000000000 9.35748252617447 0.00000000000000

0.00000000000000 0.00000000000000 13.69562154588523

PRIMCOORD
 96 1
Ni 4.591538811855409 0.4338503130809308 8.456607607618578 -1.1032644802728355 2.7021756864554045 -0.35709768985752044
Ni 2.0236491395669503 4.402789034762073 1.4774285635737674 1.0050830494043916 -0.7050887894280824 -0.4817511988745638
Ni 1.6385232372403205 5.4703841995322255 10.952265001916906 -0.5664795895618954 0.999493471131756 -1.2678392509648486
Ni 1.1487338944898657 1.0624391919785998 13.05685729982182 -0.38401019797764835 -0.5358983743409288 1.3663950344535758
Ni 3.0507638355598603 1.5983328504168668 4.429081688754282 -1.0849348287257121 0.8886876666310823 -0.07258378490499758
Ni 0.6494307994033448 4.915419992002876 6.873215849318359 1.8122176377523307 2.0930384101239827 0.14221671471178732
Ni 4.993414607642803 5.419760219854721 7.797026747077304 0.0690793712961649 0.3179007079430848 -0.24519968073393256
Ni 8.616098408805144 5.569564155281186 8.712113664013081 -0.10026788108382732 0.3550336082396402 0.11402585409986815
Ni 4.312985276358188 3.7973037798614016 12.535163620895682 -0.38580251399138077 -0.05904821231240799 0.12758070996616738
Ni 2.243877487387667 1.3540651303611209 8.552998097869965 0.24289057298478164 -1.6339645982422761 -0.8211273030826053
Ni 6.83376938234414 8.572361536159551 5.437613360488124 0.9683656393786999 -0.28719993642511826 1.0450446773989939
Ni 8.306814901170968 0.8517217892492354 0.261423728251816 -0.9929716108528384 -0.6145689888699545 -0.1611037814242774
Ni 9.129833548966825 7.347972396624837 2.665003495927845 0.42820566154794 -0.5747037772439006 -0.39225418315399546
Ni 3.5726587003571764 3.302526899002239 8.407960863968032 1.3505128160056805 -0.3457259576854691 0.7875625797532823
Ni 4.211222655472261 8.084237825272792 7.104001308760547 -2.308252600239418 -1.288506292395897 -0.7995112674747262
Ni 6.0771233570718595 5.094063688125472 11.089549561666749 -0.027974887946371173 1.1544883114448181 -0.023201634927443912
Ni 7.519401473832211 2.2839181544930356 9.54888874665624 0.19425789957874287 -0.015936468724598363 -1.474524320563351
Ni 9.068167740080549 8.069555935418078 5.179943854167291 0.9919215723217691 -0.7836395905497924 0.6672244102821412
Ni 6.797237771131391 3.863227243230722 7.973207553837401 0.4648533946779607 1.030764770441212 -0.6373029401323604
Ni 3.8961749386918116 0.5157629065934953 2.678329486585652 1.3401656684434018 -0.6464280423620803 -1.1335487330786738
Ni 4.037341917881245 6.707293650491801 13.493624340160695 -0.7766302491114947 -1.0787394985482777 -0.9236582691689964
Ni 2.923183920786644 6.08518014940131 4.593647988383932 -2.465612084129915 -1.6554950161148843 2.3316789495831585
Ni 2.6791220653432646 2.838798144680962 10.614955834553687 0.007514306099174155 0.07395135467648555 1.1260750504094477
Ni 8.073074348793076 2.0999968383079417 2.3231746645749336 -0.0014169349521846565 0.41849589045934377 -0.7100358490207127
P 0.7491057659702236 2.285958085651944 9.729684663726308 -1.2716704517854809 1.1250972598772107 0.2606512394023124
P 3.0065497313128713 8.583375292921183 9.353876942353995 -0.6192843920677528 0.38027412797398374 0.3553169438080139
P 4.275910931167379 6.602050046160397 11.062583168943155 0.7435879739445451 0.07626791862480414 0.2416610714530548
P 3.079435161573146 4.763257971016572 6.904441768021471 -0.5440058339394115 1.5916501537447814 0.3781046311264908
P 8.555592927734027 0.30420707344285475 6.717688877668094 -0.7604433549389871 -0.4450764691613497 0.1349158101749999
P 7.08108764165587 0.43006708295456936 10.76100554804917 -0.49850322152192206 -0.019382518291669842 0.8326872400060628
P 0.8306187949851487 1.6631427733829296 3.4745791845361413 0.4576213957058958 -0.3785651157026771 1.2144412949596826
P 2.4937690543539826 5.205530018239786 12.790723950687992 0.9794470940038421 0.5917514767548068 1.6887805176408917
Ni 1.8900149336936698 1.6701889576153068 1.7481498863186644 -1.206861939950528 -0.09283147941044012 -0.5575416636423172
Ni 1.5932049500724543 7.684954052104746 12.641852956254846 0.743613427865842 -0.7726260130481081 0.36975985870622124
Ni 9.416340944487313 2.2277077578344824 7.3606976369138275 -0.9938144184691078 -1.2383034462892608 2.6063388445597373
Ni 0.7366528284185002 7.715337797393628 8.199938416164198 0.03165619345270032 0.6300768546975665 1.0354120394052362
Ni 8.498989516815499 0.21391953319990817 3.4853168955675526 0.04226070844142399 -1.72369635568147 -0.6268172101096883
Ni 8.724822996582025 1.8179436044004829 4.9345045773175285 -0.8550612368258887 1.115783952896085 1.9437583608075104
Ni 1.5691281479079036 0.275112789225979 10.926229678690156 1.9984105009347517 -0.7367308418133957 -0.421865578262525
Ni 1.4241433159073007 4.269575915595906 8.880103866445689 -0.2469891685341875 -0.8485964550371514 0.6317347020159636
Ni 8.65042165417614 5.5671873547565855 4.600715694825784 1.3349360446133463 1.396945396436607 -0.9865397391845656
Ni 1.3857121357713464 0.5079896459801676 5.943516287897481 -2.743498456463591 -0.6570425846531329 -0.6658951499477564
Ni 5.971945255117117 1.7037261744663563 3.7926184884335776 -0.18420977131412147 -0.14620783814905142 -0.03652174907511775
Ni 1.6794435076894385 8.850437840055376 3.358358317624389 0.08958366189710378 0.5087788924163172 -0.36096360057082993
Ni 1.1374300557744452 3.606139772313944 12.672640944782557 -0.17607222980865161 -0.9718353430948554 -0.4268234364884327
Ni 4.231668754473249 9.001214953649393 11.719781614470401 -0.9190621651578817 -1.5531543116624282 -0.5852553275075018
Ni 1.911574573097916 3.0487426193657123 6.452280733418739 0.3002416001004249 -1.5850524459226056 0.08735065880152698
Ni 7.094000967340704 5.863772758800674 6.180477685710678 -1.9135350431465947 0.8110251816515968 1.2114305331578168
Ni 7.514544940476827 3.6937913097703556 3.8828452050410527 -1.666938996285768 0.09057045129040532 1.1186347920813187
Ni 5.11684915772154 8.090329546302378 1.3330519679278852 -1.1181866488003067 -0.47092505479333735 -0.8886334163543792
Ni 4.937765659927068 1.568052037434167 10.574430449861019 -0.7274856690660438 -0.5680834437139055 -0.045402853614831484
Ni 6.586900282186667 8.340455050328202 3.0395105272492935 0.3396360427376473 -1.2089067382946985 1.5873659245471308
Ni 3.2078198198310695 9.200735192962473 0.3090065261557184 -0.5879331314499809 -0.9621016607468593 0.5350853915213301
Ni 8.812446461591296 4.477068729897014 2.189395417724758 -0.06690678912487832 0.17044254232670003 -1.3076625536093736
Ni 8.406883817746058 3.843380023102073 6.218497136621898 -2.897654602925442 -1.1131164333662507 -1.60820291589714
Ni 8.754018341608608 1.9071671988967875 11.459592138144549 0.7300277187616073 -0.6304000423649401 1.824318791891239
P 7.24296272935294 6.107769111867391 2.7725555911624733 -0.060865982247437105 0.014666857983555387 0.527905328833123
P 3.144619383834421 1.3959492214954115 12.420162033938086 1.110054506611475 1.0148306157094586 -1.6505091328645187
P -0.0490275931834231 2.6242778611122377 0.5384669660928539 0.6794654324330233 1.6145797659577614 0.5676872367167513
P 1.0146786019094713 8.51327839241024 0.957953543720001 -0.7077136286454392 0.8548151822533537 -0.06754750803267076
P 1.1796323013096666 6.848535489540278 6.339087012057019 0.4022825139242749 0.9026664974086778 -1.6785578114716189
P 6.987643822606042 6.948202034373014 8.508172014275303 0.4909531770888061 -1.6841998402487448 -4.443652248938431
P 3.2658642830361644 0.8395823273572526 6.432778804389925 2.3280164131299066 1.209326856551253 2.2126247890307638
P 1.0272363432638543 5.570724483096345 3.148609414321388 1.6743435162799554 0.31360285189867926 0.2247108167519614
Ni 6.000775658330868 7.591454088160637 12.611544070825005 0.38997464309119934 -0.1809832939570238 0.03110032094923031
Ni 6.425081339383878 5.007338541424712 1.078660387684876 -0.8719857804953693 1.1095623974664053 0.26342211727923015
Ni 7.93270275560597 4.054166671201052 13.145385633377268 0.7432722424763393 0.4736139144794101 -0.3480345512139877
Ni 6.535958148108231 2.8618269088189177 11.56232325845684 0.09670793164671088 0.8116489312785247 1.2894884538035083
Ni 7.712399547926211 8.044908326828327 0.6982422347437826 -0.3992884642929575 -1.513686078364477 0.7446644948381757
Ni 4.066920919685422 7.598921359100129 3.7516823102644135 1.4245526166309144 1.7765618362219338 -2.984769748677395
Ni 6.121898910261667 0.9138620224921941 12.855094071982181 -0.20143796226694985 -1.56341892681323 -0.4465386555291729
Ni 2.907865722130068 6.45455740888187 8.623051018213719 -0.5501543700393106 -0.08462528945056393 -0.026937447820792316
Ni 6.317021132855999 2.74075044430002 0.5981040727990783 -0.4817617403975251 -0.6220850947413415 0.4655925868368304
Ni 6.779514699503073 1.8606043665723395 6.694939902253309 0.575618575748686 -2.1698670863482628 0.584298105800555
Ni 1.066668774014502 3.6795679365522767 4.406634960020382 -1.9580786340849246 -0.022928069551083095 -0.38636738535591525
Ni 5.2307952206666375 4.949425082972942 3.6402141086536233 1.2388541765864085 0.5674874620011194 0.5530378622346926
Ni 3.0810165760954193 4.027310696769548 3.5410444461352815 -1.3710021942082842 1.0079619136140834 1.5399139017127543
Ni 6.860157482656629 0.18351894444274036 8.475179402898789 1.1267306817155758 -1.5403620449937665 -0.2404346552451214
Ni 7.073760732952083 7.5138899167102045 10.362449787010313 1.161908000947657 0.86866442943162 3.076698770878224
Ni 5.088112329331592 7.612208984080176 8.985396129685471 0.18330679988387788 -1.3136953900670147 3.1019035522786256
Ni 3.7482518572237895 2.1024672136563445 0.6550864617540073 2.142446014022833 1.3118112856704247 -0.08102163125970563
Ni 4.163939297004529 3.10894866100066 6.048164756349498 0.5535068314513113 -0.772755853757753 -0.5501044906379817
Ni 8.813101485357919 4.195642447309036 10.775276644427388 -0.07051096153636889 0.4141967488633576 -0.3990637498766611
Ni 9.089530872354809 0.31316031258434024 9.66371254144861 -0.9048534777576676 -1.1383281567451882 -1.4305713120211685
Ni 0.45527707623537633 5.559991450806124 0.3202252117814782 -0.7724223816777342 1.931470801689409 -1.4815722285490678
Ni 8.614339202117645 8.409719134907293 12.234298104410838 -0.5701133296597407 0.3508360252185248 -0.5804116262619552
Ni 4.77091239160367 9.21877641899172 5.323214395395819 -0.46198481488091403 1.8124271826599756 -2.2645384471809193
Ni 2.4565075595155674 6.991349385628648 1.5773936120944358 -0.43382686438945933 -0.24481504370100418 0.7221413740349951
P 5.488659362620981 3.311613014393525 9.514183716004126 -0.2908113079254604 1.3282010398823578 0.7097352870611583
P 7.745871262400597 6.248009700301174 12.457084787914333 -0.10715175268785417 -0.33042840809645024 0.4608740983152385
P 6.375159170884896 0.4204026751521799 1.5345672224844475 0.7964861074951572 2.0675749757455555 -0.840683627947978
P 6.1147123637935845 3.37324139335028 5.532277395240344 1.5163708242854916 2.059881720866356 -1.5133433503130775
P 0.45700540323102057 7.449819234852187 10.74316082914991 0.5901031425181064 0.13573213542870816 -1.4785270139648408
P 4.23674050992338 5.621413965150513 1.8541542539675884 -0.19799551224430414 1.0986102693302757 -0.46083090378212893
P 4.42142913966366 3.0199870760110037 2.5968267508013456 2.908299741344114 -3.609028454031288 -1.697113205876303
P 4.954216113951663 6.9043809443859985 5.532908089552778 1.8083506985977564 -0.434640104319374 0.22864409036809658
