# total energy = -340890.1925820515 ev
CRYSTAL
PRIMVEC
9.08423705693390 0.00000000000000 0.00000000000000

0.00000000000000 9.08423705693390 0.00000000000000

0.00000000000000 0.00000000000000 13.29569918157582

PRIMCOORD
 96 1
Ni 6.713033096324934 2.4367103026251447 11.711582706818572 -1.210891115714579 -1.2938732131347652 0.3284345175948731
Ni 4.596578483705743 1.0054433474175666 5.891244859229071 -0.42628556170709164 -1.8768585136611675 0.1015493188994122
Ni 2.6631167405334204 1.8904206284265288 4.496671862399013 -0.04820484184000085 -1.4309497784065097 0.7880451758166558
Ni 3.3720869303225114 4.331346017003984 4.642884473217184 0.17375900829444269 -0.4139488945186097 0.024822201250002413
Ni 3.6702679245006307 2.863224312424586 2.6638462047618057 -0.6697939707815302 0.650154599284048 -1.9462757279127256
Ni 5.208728875909214 4.636939748546511 2.5387335511449964 0.580998866223993 0.6332619372937675 0.46046349314038115
Ni 5.080477618420587 4.950881893860965 11.400530257283064 -0.034475665179366434 -0.396004394225047 -0.13008779265873724
Ni 5.62670370296044 8.207671688608631 12.13088928300904 0.6850897205983362 -0.012041504545566357 0.9182031595916961
Ni 2.1368033034234504 6.551179246298382 0.17726980015817126 0.16497869099865137 -0.29586738229212917 -0.7205622024733332
Ni 2.7432578790491218 1.4919769108526049 0.2736508290983245 0.2815810475764441 0.24120624330382331 -0.22860989469605145
Ni 7.970291492445202 9.175987759545393 6.914574160809364 1.5961511269389286 -1.9636466150910052 0.08745813091366873
Ni 8.662446759609882 2.37273002167229 0.8407824681684628 0.7520561593165564 0.22583516016439173 0.4271347970812644
Ni 6.785470801893309 0.6115862610878706 4.790041844679839 0.3446725767202903 1.63679949658791 -0.5919821047083741
Ni 1.1151990984430369 7.356951065199161 2.1074875623098683 -1.69161310199368 -0.13888379368381243 1.9732715397752787
Ni 7.774162816345227 3.8027615206524668 3.724909609852245 -0.7731091233321137 0.5366733048337402 -0.4974398132544143
Ni 8.063768290827266 4.291802333490173 12.408118393048346 0.18406733219898622 -1.4260466846779376 1.839329663477774
Ni 8.30480943448807 7.17015190046346 9.2606137858513 -0.08303300526277958 -0.23116737101058255 -0.8738531727214113
Ni 7.115428456979149 0.5910068306646709 0.1551605842298656 -0.9273496019776546 -0.3987382482164423 0.4962653333303389
Ni 2.2089412291719404 6.971506890723851 8.855680289388733 -1.0537141801485337 -1.733711316715311 0.3577219537050807
Ni 0.1348645820000108 4.687720633187497 1.3007528142906741 0.22242176360746857 1.3390215275366293 0.05806296558100323
Ni 6.637752024586144 1.8731151570059426 7.023958366542917 -2.5200533937979306 1.9560757447222827 -0.07733621198831842
Ni 3.8229103582434694 4.710067856124316 0.4110235689246995 -0.5282292878314452 -0.5689977279980588 -0.8688644612575682
Ni 6.272029728564425 5.967971233069183 4.913412141646534 -0.9160202930077644 -1.6110712385838706 -1.415180431387395
Ni 5.295274401486076 2.862461236519426 9.661625617215565 0.6107133625692902 -0.44105115005204043 -0.6666736799849938
P 0.39628711971815106 5.94889433544019 12.311989905895851 -0.3686041478352232 -1.2404485176567217 0.9185718557850245
P 4.111580156317991 6.620973438909596 12.500908423115767 0.4978648166069748 -1.685416229154349 -0.24165438658483543
P 2.6026520592864806 8.55934067004366 1.285817420294566 0.4757954955117612 0.7850022752252739 -1.2197321110449768
P 6.870835376664568 7.826061062133053 5.721019884838178 -1.4126604931790188 -0.21180542154420293 -0.11996973038812887
P 4.873402436776356 1.365415321439689 12.337624714190735 -0.16286678686197112 -1.6246392070762923 0.7531967006789029
P 4.352021740339025 6.104280208746817 7.981647697076633 -1.3512962311389245 0.09373470795099986 -0.046306596376023475
P 4.696277984409645 1.2444496219979442 3.501648134781662 1.282711540090991 -1.2188453375646493 0.7756527156895738
P 0.34964592186265764 5.502494930921766 3.511088473836924 0.7349259273941731 0.5714022236744932 -0.7644038822486319
Ni 0.7414972086702197 0.21263200939644702 4.612836542604128 -0.5220195594763075 -0.28396266043474316 0.15271375758836922
Ni 2.2147460565933335 6.582656127386221 4.675618612701142 -1.1276290251601289 0.17156560018754968 -0.1994121900861727
Ni 6.2403802469742296 5.714475600527738 9.103379270322055 -0.5254067307809854 0.10984241214613986 -0.18167569203835807
Ni 8.794522480861271 2.9110891569994246 10.497858699511362 0.18723544551432272 -0.7445536802919241 -1.2152182823350233
Ni 2.472929155409332 5.262098768085562 6.867069052018386 0.3703193307541171 0.4033001565555119 0.25488888299723844
Ni 0.6032941695851352 -0.02759155293739949 9.190678787567112 0.5742782596707078 0.9494531187449131 -0.8427677641705162
Ni 1.5418675402709034 1.3146526052726366 11.219283378181094 -0.10893815516431561 -0.10882322685300612 0.44912415686816204
Ni 4.2997237881246875 6.93422518221462 1.44864600894759 0.32737470887179104 0.9302469781301076 0.9181345111372897
Ni 5.610579182345457 7.92450693813562 7.805558847724066 0.7449933389325041 0.5097844508626963 0.43632983331697117
Ni 5.505738003518695 2.916276256307117 4.705307715954034 -0.043286321492460936 0.6659673979465885 -0.10465546862856169
Ni 0.9438976419716504 7.818766419849204 6.803781898346052 -0.14090468076858315 -1.0052208605338364 -0.1499631914264256
Ni 5.298926264746484 4.419454031339031 6.858147422893894 0.3173877728624082 0.6890597609896778 0.49085470383772883
Ni 1.0982115753162673 7.483667086640502 11.140266868201808 0.592621795174902 0.9101265532311487 -1.4628486839976353
Ni 4.669970034155567 0.5023610295012257 10.176448402987006 0.7708745775746402 0.10205479778092101 0.9174382564012136
Ni 8.72822571948204 7.1407916465887435 4.719228400681018 -0.45322172397630334 0.4703133893512675 0.0831114239091988
Ni 7.484421078308696 6.142170561132784 6.88408746155084 0.790073261990278 -0.4040360062802719 1.8317497942479872
Ni 2.491306566791928 5.295964803495506 2.317626857082794 -0.08768875886723608 -0.26240113221388356 0.9994718738652013
Ni 2.6374356026300103 5.514295354740843 11.075609811594973 0.5817097762480885 -0.38554463234430375 0.82829091071058
Ni 1.0571508242291026 3.4432891796634846 3.3180084676628008 0.5561144442774875 -0.6989811338684478 0.322763949572657
Ni 1.3520614930993942 1.0111300797583997 2.4640120684033224 -0.7150194182782331 0.8929027331536945 -1.384950685968576
Ni 0.9212960603997773 3.674165062159125 8.095871075842075 1.400912094393839 -0.6591796856007938 -0.10556512492702465
Ni 3.5989294116051647 2.9202914890461718 6.740812692967534 -0.7512586031159255 -0.6678234773187208 0.9277218977154087
Ni 4.223906746404892 7.207951410479763 5.986707471811944 0.48609970565124666 -0.31600426225132033 -0.5463866754667622
Ni 0.8246007168605941 8.711946766838635 13.05511319298302 0.3311879119702941 1.6788612016446505 0.964348804909823
P 0.4494934956291078 5.82065216218853 7.901501108018752 -0.1310920655535355 0.3199575904721135 0.10278627663030683
P 8.40729779594059 1.736306548295168 8.247002800977436 2.4136724578378304 0.9916822026174535 0.4979463205771876
P 2.040001674311762 3.4083875412393945 10.241982996884774 -1.7385460190997928 0.42036199713380507 0.21398983079003145
P 4.187497124644414 6.2014088703892885 3.9692583241924373 1.0797134324257727 0.2653033934623431 -1.6762505034946809
P 6.884752427696766 4.133554925539197 10.463076973015225 1.2747028108539014 0.8169569737549995 -0.866058873487973
P 6.319939994324095 7.784318993273424 10.134620033876198 0.7818837842009502 -0.4640051877450525 -0.5952882862634715
P 2.649990018117281 8.67464688985547 5.545675942916839 -0.966950247088412 0.6050278821487387 1.5613160215376143
P 7.043181520387065 4.018275958438284 1.4009010763007048 0.1567987262910203 0.2651835800550272 -0.09245738390047303
Ni 5.312788810356885 2.8610986009744983 0.5661678015280259 -0.19695755789809305 0.24976724549995694 -0.37132180387670244
Ni 1.1393268318252292 1.2083942854791483 6.823525578968362 0.859362435304404 0.7166626103086109 0.7187215497201687
Ni 6.876803720351353 0.6026500971842326 9.156894510289861 -0.5519019488580367 -0.024713700696596147 0.17849986541353774
Ni 2.413118539223957 1.7929013445945126 8.919884950994652 1.3517428317580396 -0.7000178026630783 -0.2559106393935334
Ni 6.686243681511649 1.8653208816889544 2.2644704444751507 -0.3820924121296452 0.40087972003947736 0.9055229930208663
Ni 4.217057231732387 7.052465610566508 10.120579437221261 0.9227133887572238 0.4416638439353749 0.1146046094214736
Ni 8.32617555983254 7.22032414122771 0.41859528043601624 -0.21135316449813277 -0.6371751563052446 0.13281419045096482
Ni 7.72960463402608 3.8418328238440367 8.16188440902796 -1.394329813190631 0.6169362035505503 0.4211078741608941
Ni 3.240238314995275 8.592489050733276 12.174193840626854 -0.12724312412109054 0.5345081788616215 0.34119053170896074
Ni 0.5005859695980328 5.261208512862876 10.18768287884309 -0.5758921411250469 -0.7208753628383778 -0.8982421430887368
Ni 8.508632459298404 2.176174386434904 5.512543005430065 0.4991087163164049 1.255790804440747 -0.21125751946053292
Ni 3.7290792746197243 2.9608889440480612 11.53073462571942 -0.22222224600215273 0.32248009978365105 0.4192726207243682
Ni 1.4010527830580404 3.727389606544014 12.329699625861434 -0.18087119385919173 0.08957723413920057 0.9158387731245775
Ni 3.0914657662000318 8.699237919322938 7.742776777627051 1.2542903086358204 1.4062851857802943 -0.5726044715127107
Ni 5.733924951872344 8.033381518175371 3.625949566037391 -1.42671131484513 -0.8129313975353741 -1.0947451299479147
Ni 3.0095441172389585 8.739417499424382 3.450167763894281 1.4911914968063866 -0.6271113443113393 -0.3124769658243522
Ni 3.5518639798833505 4.218492541173044 9.015959841149044 0.18640420786227896 1.0530600915043025 -0.8468874427658447
Ni 7.375501077084114 6.128017319939464 11.43894113644719 -0.727633764608134 2.453889396376348 -1.4277883499593926
Ni 8.02706797348387 8.56765274686772 2.799954418802487 0.43102950414998026 1.0301009116049678 -0.6025025446237237
Ni 4.867234239876315 0.5043077814830795 1.4040260538170732 -0.7190074563917037 -1.0160840285005854 -0.263139810152121
Ni 6.161556322818626 5.77538540938602 0.23801700117475974 0.10823238734654264 0.27173526513061586 0.7080743544189676
Ni 8.116629465733507 8.776989903516531 11.032903905193232 -0.2894522227944047 -0.4067312937242479 1.1995209262044244
Ni 0.2427753244976484 5.007967238956484 5.714358413870874 0.04509046458073525 -1.2934086147935209 0.09532467814593905
Ni 7.461165431675258 6.2100298112702 2.717760242732428 -0.31536945688079876 -0.8063090071228501 -0.9315572123010989
P 8.449812024942345 1.6281042017909158 3.3888346295933736 1.3790312351603475 -0.326926822701095 -0.04081472002351681
P 1.9454711044416213 3.3016023357018676 1.1539551786118802 0.0612732449881848 0.36411217350214065 0.8181206550457975
P 4.673976182657655 1.265098092622087 8.176083979829807 0.5620513785872127 0.8419349838565758 -1.624156353902603
P 8.590245244202627 1.3843014500923916 12.221393719055767 1.9744707022897028 0.9956962088728529 -0.9239611451213959
P 6.496528476709802 7.920782400979483 1.2824289999061784 -1.1906855873009816 -0.9440843982338322 0.9020756579022141
P 1.6914304176822046 3.2589336746716877 5.782046880353326 -0.792820485718112 0.6236264710865325 0.7193095610131547
P 7.161067663497272 3.9570118643383205 5.890261036365634 0.061274787650081576 0.47105695238551126 0.1477319881030617
P 2.7359450682913415 8.824909253513168 10.0657351733853 -2.7183013883726734 -0.44596478530357386 -0.7890980425612023
