# total energy = -381164.55122333247 ev
CRYSTAL
PRIMVEC
9.29229017458866 0.00000000000000 0.00000000000000
0.00000000000000 9.29229017458866 0.00000000000000
0.00000000000000 0.00000000000000 13.60020594960343
PRIMCOORD
 96 1
Ni 5.685460000778493 5.259640793467393 8.719404894440109 0.6816290157432454 1.4025645423955975 -1.2376735260147458
Ni 5.343708144663106 3.516537207593744 10.11218820322594 2.2990940736686016 -1.31438907369993 1.8502699645393619
Ni 5.898550804096727 5.869716827003736 6.11376861268618 -1.5884401314479162 1.1004192975145564 0.9027487727098388
Ni 5.763682501316295 0.2521249275768658 4.196261745321226 -0.25195833961400477 -1.6017041955466738 -0.9159182202122612
Ni 3.086183362570308 0.10406621858196329 7.269269569341694 -0.12367289027132895 1.3487688367313801 2.0474015861214743
Ni 3.205487078940569 3.2103190699455175 10.336931538698417 -2.640606250383039 -1.0868451583745475 0.7850909782843383
Ni 5.767622432443408 7.320540710820356 12.157400875935531 1.0675163761389486 0.6139524383318782 -0.8453069856526022
Ni 1.0329588770828975 1.6683935711048272 3.702397883141015 -0.58849106083598 -0.13941164116282442 -1.3101876340240726
Ni 8.354809800848827 8.07985092808646 8.64158475007637 2.3979481051240383 1.223747402851957 -0.41696299875458515
Ni 9.036306378354467 7.803126520149208 13.211961540497665 -1.0016477984705974 -2.0890280034130084 -1.0064660457948473
Ni 1.232901089493436 3.4866160325246387 1.3014224388597657 0.4980872170304261 -0.6329356643026002 0.13100799048016146
Ni 4.557914899773725 3.3780820807211773 1.4398942918550421 0.10737466733193765 0.2877138999470593 -0.6468687294439247
Ni 6.72451462035994 8.936609394715825 2.199983203056174 0.6510056344304337 -0.7545082204014748 0.40130678027456695
Ni 8.969615610195783 7.254444649246896 4.948530264926656 -2.084203842551488 -0.07825743825100716 1.0566439522008189
Ni 1.2097168249600767 6.730452393921791 9.518131149100041 0.4357325660526044 -0.1475494397786104 -0.8346263660103045
Ni 6.699248882778296 -0.053960330318724624 10.882721648830078 0.8763057480269618 1.814105598803663 0.6072971377988896
Ni 6.299513134603524 8.502631556438677 7.957915635076581 -1.282156181808153 -0.7447285153068915 0.8510132920087602
Ni 1.3604006059913214 -0.14079213790669126 -0.23925510538099293 2.129419776966494 1.895558404063516 -0.5149544250994099
Ni 2.9905749867050835 1.6967722259685065 0.5035139057545163 0.0039047343710448875 0.48951721597322795 1.0799625723221011
Ni 0.2043960071964461 8.392805976270433 10.723082887546008 -0.12503608916744274 -0.01873048652996774 0.7952013272454627
Ni 1.6900353154327608 7.035518287561145 0.9073540585963755 0.031456675847384534 1.1216879770853456 -0.6940829252358821
Ni 0.33527512971067736 3.141853474321553 8.94032724010252 0.6367722644398711 -1.096139696302596 -0.6870684415912619
Ni 3.2188493925273307 7.2485719217178035 3.452371154735144 -0.680146517660448 -1.913161204746944 -1.4632302357067704
Ni 2.7612598443586935 1.335655236671748 11.831866854245021 -0.04357274238462819 0.2690860004332269 1.4836813044722705
P 4.613631472976941 1.2226702777694967 10.839908350068153 1.281624477674399 -0.1470917834159015 -0.39799777050599194
Ni 1.190017169324517 3.385079175387958 5.030321934204846 0.6321877303929822 1.490520181770975 1.3984721174937786
P 8.769478259686968 6.19369253159515 11.32256571003304 0.7574721881258051 0.3418898717688305 1.4874754814073803
Ni 7.101196196066869 7.045117223538282 10.158143225370122 -0.6908397357082361 -1.3793644501300502 -0.1679442013848785
P 6.693264647764475 3.675388911881431 0.8509489266749548 -1.3936615834790127 -0.5784146504365845 -0.808592146730072
P 6.674689359266605 8.013253082831715 5.912091529659057 0.13524054050427028 -0.2117920518077643 -1.2463702824577954
P 2.56560137781985 5.283466226037947 7.375011187881719 -0.13365776939818272 0.040035161545014915 -0.09656729230378854
Ni 3.4033942797547923 7.256498245423999 8.116385426229069 0.10929708116563111 0.3699249235291758 -0.6094740908455503
Ni 7.588353812269635 3.8754519240670935 7.664314569325507 -0.9837534346886799 -0.7982087466132188 0.5093057114540649
Ni 4.446686183755965 0.09380288384164447 13.026318304545617 0.826973220340421 0.31811488083641987 -0.3707739017930324
Ni 8.791500987921061 5.216087828390096 9.44164444840786 -1.3637054034365546 0.17480981815646024 -1.3202146792427714
Ni 0.18871712561442713 0.059404683260646574 1.7781318037433684 0.1866644035022011 0.06791491867441851 0.023463630339578944
Ni 0.4635282509595268 4.721672933389514 7.062858993587799 0.6810620874961819 0.1443065073612805 -0.167829273073569
Ni 9.04762438805452 3.7504520336852294 3.3439775165166337 0.2756682816364349 1.844175935826482 -0.5973317990560617
Ni 7.314435676031412 4.443935665799302 12.385517312821078 0.371684843643076 1.5595090502358626 -0.29826673576224116
Ni 7.915107911688893 0.6198543107180885 6.230771557954855 -1.2817345208897022 -2.7654014271842695 0.6353630427971704
Ni 1.3623241101029067 5.937680638946417 4.707479889041516 -0.016098191113443242 -1.541596174511184 0.28196748438158536
Ni 3.672787070571074 3.518070435508776 5.127726509803255 -1.7671811663379822 -1.436986728629209 2.277700181373858
Ni 7.809324477842094 4.988993543447904 5.356808415660752 1.4292289390606612 -1.4103429007894355 -0.5916326917887553
Ni 4.087009499470297 8.61727983532148 1.902982088249887 -0.5704390884302756 1.7687888771447344 0.5347701742737564
Ni 3.002487702990361 1.2867220354562487 5.138688624781213 0.3472557640664342 -0.4290728946442417 -0.8045809686881498
Ni 1.631707608628794 8.710546554007381 4.086154608754037 0.21595801025999578 -0.8439021348852758 -1.9742961243850516
Ni 4.861205965947801 1.3009949935016354 8.559860914518058 0.2474555666476448 -1.311714097970928 1.3326379926077887
Ni 6.502828448427133 3.365110043330969 3.210709346142071 0.8052707956663229 -0.15562758880105457 -1.0497708792300693
Ni 5.232312167418251 5.505115228809179 1.9251228285719855 1.25571752800065 1.3622211055815443 2.1498718741732588
Ni 8.200790087566089 2.1740242606111266 1.617159598787741 -0.08570669544020078 -0.34729741593764707 0.7012586170487148
Ni 7.45170138973353 5.9394461741213025 3.2814032330025484 -0.9517766246717672 -0.8716813618810728 -0.09976420197453141
Ni 6.916874323808868 2.2178652866906416 12.441971693881587 -0.34803120877987803 -2.17712685323447 0.9616764002839825
Ni 4.201722824385857 3.366838409344277 8.194096850795194 -0.8706318375706361 1.787269452447425 -2.4766706559369216
Ni 0.7728091275216592 7.098185493979171 7.074731753024382 0.6891263525615551 -0.41478424593571145 0.39950109452439586
Ni 2.969407149187251 4.124187953337219 2.9188357171752664 -0.8587050042260631 0.5234694045489565 1.2971074038013468
Ni 7.249519735338005 1.2295465726611543 8.76421789409485 0.5026362698536893 0.2376439798738617 -0.9857326699022378
P 5.668390063324472 3.7471346860145243 6.4729639563294326 -0.6787162129718246 0.5134852967530512 0.8430940371616835
Ni 3.680007180207314 8.402191189568505 5.399621714422676 0.7383190122361221 -0.6866323824951077 -0.5792443454267314
P 1.4728001505987423 5.83711947230112 2.6247858337981556 1.8176773753153215 -2.138673434354278 -0.42719676066745144
Ni 5.439455904884242 6.885986750538772 4.029577569460325 0.5745991333452363 2.5552232568308444 0.09824725110937273
P 2.4209854624159735 0.7370496063979209 2.410487032728683 0.28504715174817363 -0.1554913203335064 -0.4477732992672224
P 5.434856221139146 7.724996942515347 0.6860544459439638 1.068909142721417 -1.446412135708167 -0.40807495223633594
P 2.698694853135003 7.341885101855677 10.944561841403024 0.8868824951015436 0.01524381353294794 -0.2972832888030493
Ni 4.320245988363011 1.9999332000770633 3.240847960806399 -0.3912581377893133 -0.7838553061050242 0.18603165501420865
Ni 0.40196589786936276 4.010933518013538 11.2143765022032 -0.30310838012525865 -1.4153131003105173 -1.898255748390021
Ni 2.5203850927620035 0.1438771783175431 10.00301958798856 0.6142051777726325 -1.8085263049436724 -2.0456586352884383
Ni 8.651001557161784 -0.026800823954755564 4.1218416500127 -1.3818519924385944 1.3005593669056892 -1.1617884446506572
Ni 8.4546182919722 4.645745628579061 1.3083535582647488 0.3318558845715962 0.8537330049327684 -0.1826822789260015
Ni 2.2973236618508643 2.5823646696908638 6.872143096309594 -0.5811844998722377 -0.08997446957761923 2.0273801486942244
Ni 3.2625138650893573 5.406468273985072 9.504259617999681 0.46456363135168377 -0.1842010295633731 0.628338274739905
Ni 7.676416848334824 2.6887149332517053 10.438485121957807 1.1364923890880299 0.9091243372188794 -0.7406062656084019
Ni 0.8076868102869943 1.602353263273731 10.661962847478604 -1.320053213964243 0.34282421065764185 -0.1957781928780112
Ni 7.762101058059116 6.228427113088414 7.379581136297553 0.5039225927652806 0.9036864540327598 0.39335744352050317
Ni 7.405890398090459 6.654868903855921 0.7957304202368647 -1.323942264606004 0.3026759205735303 -0.039327336844712915
Ni 6.373284628042539 2.083591690495434 5.325541716942577 -1.022679422329916 2.459387700486758 -0.03921986473257117
Ni 9.15405828222891 7.037794898707707 2.4040130940110913 -0.9696627609235687 1.6963099932487173 0.07415241494369809
Ni 7.058711844384898 -0.2781637837193025 13.511315463231748 0.1553493954390034 1.0605044635974898 -1.2381178126410162
Ni 3.6112906927427084 7.047979248979677 13.019681750746129 -1.7036378943686983 2.395646710684371 0.07352455155171207
Ni 5.175703534337198 5.420016433379717 13.301015134718869 2.0786713427690326 -1.473008912360089 -0.4168020476966886
Ni 4.788893362100665 8.274542996424314 10.06930707074414 -1.421796394042016 -0.3747588545827094 -0.40254810888083575
Ni 0.7594328754993062 4.96339328341207 13.092292637114916 0.1999032707899783 2.2163544312765247 1.917380899255246
Ni 4.7887446854543585 3.068370041884757 12.655426754983273 -0.9340354986382623 -0.6805054436617635 -0.3584290070744343
Ni 1.1070648929761002 9.188281787750498 6.09931166729099 -1.4551153199091198 1.01970388464136 1.9804516024634862
Ni 5.091543260237544 4.729292611512702 4.30016720727937 1.739748009827694 0.4818928666587507 -1.6135716364082213
Ni 9.087581236749289 2.319244174890622 6.7320069941047285 1.469368230283708 1.0194076935571799 0.028999729666459733
Ni 3.4453861400458754 6.112598713325559 5.478557862862749 0.8732631045458961 -0.8114267879653897 1.5851120955159475
Ni 3.1829811516059814 5.314595398858289 0.9057381292968361 -1.3258975885601616 -1.0472676531922416 0.1220646652439446
Ni 3.3160560423403456 5.031682325518546 12.060989646180253 -1.2623052085204969 -0.9344239923259325 -1.4235442299710581
P 1.2728393536074154 0.923749375767782 8.314540731196816 -0.5386872499399755 0.793732198899104 -0.3561841769043156
Ni 5.258832364203103 0.5508497622512643 6.362217510183127 -1.2315013357657631 -0.6424448893446161 1.4520338527703187
P 5.473056826949422 5.555423689003009 10.86472898693992 -0.17599663937570978 -0.19197013198583068 0.692609426014149
Ni -0.07826059892841926 2.173485307768267 13.082188200540337 1.658807368317569 1.5398956468803093 0.6397657998505564
P 1.9995708007516921 3.221757879420694 12.552187550246385 0.35912346203829765 0.29781962092249353 0.4081415438082132
P 8.15916991889077 2.271026480035471 4.418774931099111 1.498374130597755 -1.2624687306815547 -0.06351319006229707
P 8.64118889850558 0.5406839965600838 12.044887036156263 -0.9070522851811992 -1.325596255269659 -0.4527062177924655
Ni 5.892241338919112 1.5585586986461866 0.9757304482325565 -0.36751759963926384 -0.3841806621172416 0.2925807411210574
