# total energy = -381175.601246991 ev
CRYSTAL
PRIMVEC
9.22422998248896 0.00000000000000 0.00000000000000

0.00000000000000 9.22422998248896 0.00000000000000

0.00000000000000 0.00000000000000 13.50059297883757

PRIMCOORD
 96 1
Ni 4.227842682483268 0.30088422741071275 8.167413426877005 0.2634012913436238 -0.9686003810973254 -0.1560453930647635
Ni 9.192775114894806 7.978506736374415 12.943761094403818 0.2649619509625243 -1.3446306461932906 -0.5709152567357458
Ni 7.774789622604006 3.3044972856791963 8.713971177022795 0.6842713384620989 -0.0185268551595939 0.6914557720256801
Ni 1.0663486304369743 2.7192660299325997 3.2846808729324013 0.9847942172483686 -1.227858339696537 2.0797764029077537
Ni 0.8685064285868903 4.094949204643545 12.358496631430166 0.7667849808862988 -1.5126733208292464 -0.39879609803757127
Ni 5.025590967170615 1.7081336387091035 3.355599518429392 0.09827759012667592 -0.5996856440002188 -1.96078857681692
Ni 6.725229090290742 6.875233514295016 0.7139922786635603 1.5359124938628452 -0.36513367278811953 -1.911324408648521
Ni 4.426311209532583 0.13990204759488511 5.3175055535838025 -1.7313232760991086 0.6026215867000911 -0.4325351421612293
Ni 2.1990010242328664 0.7016179744696277 2.190484292915492 1.4408798930360283 0.12269124308434998 -0.5528807678315382
Ni 6.32166903924001 2.550803922221982 5.058604485403999 0.7594084859165695 0.25580650971550134 -0.4173568917588941
Ni 5.7856951702959485 5.061178045500986 12.641482163456674 -0.1962610460517007 0.5474634534707088 0.5861670406884937
Ni 6.35318823225579 7.732505753483627 11.885301025239041 0.7962765625875126 1.2457691585386867 0.9057695618140337
Ni 6.478425599412723 9.252917092788538 4.36304037291162 1.0271572555956117 0.011657381733270246 -0.24972893606285376
Ni 6.670501735253393 4.702152575626779 1.3926944991943233 0.9784998995992246 -0.7969005693247566 1.8088890875997299
Ni 0.28638097099317983 3.2593077841912526 1.237251469336346 0.06174427108733238 -1.1652404077549998 -1.0268078426759928
Ni 6.3878713360718065 1.1637472722437097 8.774561452481809 0.3572812666232363 0.9203739419907697 0.01659595668546819
Ni 7.713383925236126 7.645853339322014 5.702515678630807 -1.4175527882743135 0.37692937987146696 1.4128764658445667
Ni 6.203202256710993 6.352044427768241 8.02795229746361 0.5841055301737746 -1.24237658791737 1.333436320139368
Ni 1.4584890850716867 5.093711903787978 8.105863831525209 0.29509862244690466 1.7639626594006848 -0.714591329601879
Ni 7.821851642728825 1.8229384020320152 6.799681538200476 -0.5215176801392244 0.31067385117734236 1.719015405266033
Ni 4.848771707317096 2.09144650548426 6.898317149215117 0.67404837518251 -0.36287984375693627 0.2718409374705447
Ni 1.7810142778714309 0.4943587564797106 4.653316736123284 0.06567960158599656 -0.21965705637813782 -0.6075357361722569
Ni 3.337556925061272 2.2940382632265965 4.8470504660479286 -1.370279971330279 -0.15783308109280558 -0.574390616878856
Ni 6.088784911037089 8.287758262580741 2.1961276766693856 -1.7007472030844648 2.3111168091610907 0.08261262989590933
P 2.0767246348219297 2.2276699302595104 0.15134747185417077 -0.25822874600374884 -0.15332336614791015 0.3948476549127845
Ni 7.601180394699416 3.3309523765686477 13.361685116003034 0.01700167676431911 -0.5825703244761709 -0.9338272392821981
P 0.9292673522960622 2.8693350235450414 8.204796462737423 -1.7237477777446957 0.40435353752069075 -0.03813768741198593
Ni 2.0032997661050427 1.035373666975755 8.05145655725978 1.0387488170879529 2.4098307154942367 0.14237663732841932
P 8.919682569262624 8.406824620042748 3.9990236723260173 0.6641133754569852 -1.8934033053937265 -1.3627443250748659
P 6.193378452039701 0.17058921508826957 6.644073394630183 0.6061560822159109 0.15242630825493747 0.6007287405527525
P 0.20338319665388235 7.017286652264873 7.446657020546347 -0.03292914662785297 -1.3211109658047957 0.331859484116022
Ni 4.586480734708466 7.214934222867479 0.025736523392837572 -0.9519817987040381 0.6838936434077061 0.28746553138167913
Ni 5.719769600356301 8.225789887198825 9.613907323597005 -0.07448665835466527 0.9297654105079987 -0.325583164189007
Ni 5.444942899533319 6.261969824373718 10.479781157016582 -1.028541537537648 -2.3035125144512714 0.03636105512753738
Ni 3.327520963105999 6.690887282975042 2.145459905139864 0.09025137738808973 0.3703974922902202 -0.705945738111739
Ni 1.9123765335745955 7.628124369764997 3.6449442344374883 0.036851621610710726 -0.07755141332291807 1.0153476645551935
Ni 1.833149624352316 4.3894880844172794 5.567103986072527 -0.9794692054910291 -0.6884666074903691 0.06997797185103433
Ni 3.776593363685514 7.887482037316847 11.361666408415907 0.10360825831096994 -0.7773167336555581 0.022616194737619114
Ni 1.012073262656803 0.08629543647074062 11.123583504332478 0.5289761932997986 0.3600711706635476 0.4507125844012044
Ni 2.346763960410733 9.006012135383397 13.162173328570319 0.07077475672071681 1.8094956108354772 -0.20455516773969287
Ni 3.9575358542320545 2.3601944389097014 9.516284533007626 0.1628323340796099 -0.5535345993654531 0.33861120101755876
Ni 5.078316664354751 4.460754483375404 3.444000846549387 0.0126354293758234 -0.21982649207646654 -0.48069987479191406
Ni 8.683367027597056 7.721824095446673 10.529625204830474 -0.9170855010474851 -0.17342733598663682 0.37470640407821915
Ni 5.982752390195303 2.4725363328924863 11.2483559703106 0.2981978301975187 -0.10315702970616428 -1.019164210087806
Ni 8.781955595040031 5.413543621504139 0.2716803160592473 -0.30125487185628763 0.8854113098726557 0.9427037158362215
Ni 2.8902186796725586 3.2903011961119493 7.501725672084013 1.2039121132935846 0.7634880553025819 -0.45200713484291183
Ni 4.695815529796565 7.171386634272953 4.145748882658324 0.21301872512601377 -0.2876984733280916 -0.6870062208947587
Ni 2.040454963490925 4.771777061691486 0.7818743077307017 0.5613029304569623 1.3051518713723782 0.8480763208676233
Ni 0.5680317569765582 4.0260903296471175 9.977950774448848 -0.5504040241562714 0.7475413021653384 0.6832012453263718
Ni 0.46860193978144876 7.483257841724957 1.7898271069634049 -0.518499719248507 -0.4041023407418331 -0.11296630248710221
Ni 6.415128934948491 1.2229114817851814 13.126544741206125 1.1612374572431936 -1.8217307194490886 -0.37903665602245695
Ni 9.152087037519156 1.049403720407713 9.224995349370698 -1.4269475992256522 0.6327536301987812 -0.048338539204387715
Ni 0.016819460504820628 6.309732885958647 4.719483058459101 1.4712384507232275 -0.7196723436692122 0.48073355624332686
Ni 3.3107328649822887 5.489403686871937 12.16445204496334 -0.5104493381402048 0.8652456335580583 1.5994645075828777
Ni 8.627394401545036 5.082928779223902 6.892930199047949 -0.5420044872386666 0.1900081231634534 -0.31458372775470983
Ni 6.6244267077105725 5.477615121266387 5.137961456265589 -0.35757771481773254 0.5643789982791249 1.211778917636171
P 2.9669642710952346 0.15880249432866675 10.079542751094614 0.49546083515117245 0.93746586447605 -0.41509869185233667
Ni 8.638832446420531 3.6643898331488036 5.0996735234678425 -0.18117869779728152 -0.5988981151019169 -0.7600456052799361
P 7.900580443545236 8.928224206000294 0.8471228192075576 -0.7774573729984804 -0.2539614860869626 0.4502497858321729
Ni 5.163723807501693 7.401872462743915 6.457319639348513 -1.2178744890109476 0.790225471297426 -0.7374767188404847
P 7.298219793174612 4.433450763350029 3.488904396915443 0.8118679892678664 -0.11168692155404636 -0.0012611261006107313
P 3.9032143653031914 8.839496340147562 2.8876008432728284 0.847147895516083 -0.16841677014592285 0.3975768809184895
P 4.45708323993956 3.9949677785100857 11.220990447945978 0.40742034937147253 -0.5114726371983966 -1.719813475687296
Ni -0.010538682476010513 1.1924161782703535 13.316296371152742 0.39224287030008576 0.30765254785251533 0.15900653257561648
Ni 1.1316838496733705 2.1360825531879057 6.068705607742753 -0.39495152748050044 0.9894939367168829 0.5602978862312158
Ni 4.089608375625068 3.049216727671677 13.099044545087322 -0.10642335916226187 0.0254282102651175 0.8439183328351917
Ni 2.6386647104793126 4.808277338765948 3.440680123843598 0.28161395769690856 0.1484729800341443 0.15438188931941155
Ni 3.6201965484725966 7.2836455101880935 8.819288820059864 0.11940408769264597 -1.0109053125131235 -0.22176176142596646
Ni 2.552289023209849 8.577472870201344 6.6293718172732765 1.118875704447531 -0.9819899150303539 -0.4766791836682952
Ni 8.222146316452196 5.7541298561314775 9.12587454387182 0.2546106896351873 0.4208211961584108 0.3455452091332307
Ni 1.6609517035976866 6.692372383962908 10.726706407727148 -0.9519542879002122 -0.09611657791961511 0.39635972068193676
Ni 4.477874653769694 4.982080275495043 1.1917418870764838 -1.1093991324156636 -0.39002066583778633 -0.536930672260185
Ni 5.434685556064327 4.264093905354796 9.213519485153274 -0.05156810188527894 -0.30058458526214044 -0.3912267703307456
Ni 4.407549126244876 0.8231656497312386 0.8416583855105872 -0.6265760406331596 -0.5159579266632598 0.7888221631919964
Ni 9.255868846304795 0.6900480231088749 2.327489009949576 -1.7334866022990147 -0.39551331352124147 0.46511718986230866
Ni 1.90110452483439 2.3514498691177907 10.783206659720197 0.21651413987378193 -0.6155825177361334 0.5924829556041925
Ni 7.688340141496635 2.3885128242062894 2.875639784571171 -0.902365164118175 0.33363637351078673 -0.22417474174283328
Ni 4.0279167271353025 1.0172849524589438 11.820970324621145 -0.03378583820119343 0.20651100591448304 -0.020038149597797747
Ni 4.467423601476197 3.975430859924361 5.62849123498093 -0.4160942229963866 2.6297605659177874 0.7139279849862672
Ni 0.3083457068460256 8.957243632756994 6.669306275079309 0.2075978112207586 0.6739187915831812 0.6672118118766509
Ni 7.443898053431621 6.687511214890823 3.047381105953755 0.5970196671322815 -0.32453261143730555 0.43903489095296
Ni 6.341298200123118 4.038118725225864 7.067452625696631 0.3178359161434204 0.00597318686429939 -0.41201928159606466
Ni 3.25785958012234 2.8766867346464684 2.0738392957597886 0.2525098412421006 0.42627964816982067 -0.48355842728663173
Ni 7.797342864314155 8.193569652722935 8.332808478199636 -0.2342768631738417 0.7026714382358416 -0.5046543287249825
Ni 0.27788914509609863 4.815868879840571 2.9499068254631657 -0.8360443294037537 1.1608600192991168 -0.663353100252193
Ni 7.196033776133697 4.544049277912275 10.928243836010394 0.9082154522513649 -0.33955119633332487 -0.5486032235021068
Ni 3.0395497349059357 5.036032795234373 9.917198152546439 0.45416454750554686 -1.1204325074116896 -1.3033891230450005
Ni 8.618806643658678 0.9276900090108123 4.9969469665642645 -0.13950445798694686 1.8088237815794332 -2.7548717312975395
P 7.225929504715535 0.24302524637721082 10.60038150388407 0.5782364729875074 0.7045079772239479 0.4124494271549477
Ni 1.4360280856589205 8.375554481229903 8.851514589073597 -1.571826434150635 -2.960849490416372 0.6326749544420458
P 4.221597878950438 5.446612485115952 7.324800333588503 -0.3729269435802932 -0.21052192684608909 0.4119187514624583
Ni 8.489012507011024 2.3738094020034355 11.37457295066574 -0.2092327757210203 -0.8184674968622548 -1.026695999688477
P 8.850168773954778 5.6789892806832665 11.655520850343057 0.4256957506418927 1.4887376359492552 -1.1456120920011108
P 5.811965776590633 2.5018786076900263 1.19386991687711 -0.26820976847586064 1.0156297145719864 1.0938305885534452
P 2.2199953711172427 7.080657110567011 13.735233213177224 -0.1607836790806973 -2.427945937037709 0.43957790794062357
Ni 2.75381999453228 6.446399073761336 5.671504740673607 0.8413338599374671 -0.10433973716035579 0.28116787129842546
