# total energy = -340860.0837968359 ev
CRYSTAL
PRIMVEC
9.32377909353520 0.00000000000000 0.00000000000000
0.00000000000000 9.32377909353520 0.00000000000000
0.00000000000000 0.00000000000000 13.64629316542421
PRIMCOORD
 96 1
Ni 7.307838189286392 7.817820933839297 6.145689731040422 -1.6966030990091039 -2.048429513165356 0.8189241247836992
Ni 2.0804148269939753 3.553515979578057 12.019273360917957 1.2850499584161803 -1.9504756249266857 -0.5846207792472963
Ni 8.671002662692032 9.186029571729334 11.745064747571648 0.6667657254781678 -0.25644594307171314 1.1732396239103924
Ni 2.824443074111316 9.44853124805788 8.493944097888484 0.24919131839182887 -1.1101565794069785 1.131717593407206
Ni 5.107118640772661 7.971327632676875 13.346034071268358 -0.711775971640271 0.5799385432802786 1.8378479367259248
Ni 5.701043368418053 1.468653709961054 2.860277154264527 -0.642134557193049 0.6611951733689257 0.045111804736973925
Ni 6.1781131728047365 8.914204116316874 3.951557432449476 -1.205584358789685 -2.054960372305338 2.2303098650153523
Ni 0.3405873937784262 2.3242969164919423 11.501150024846886 -0.8871025815321497 -0.9019815555265112 -1.0829738483445994
Ni 0.19771353260814478 7.34064856788269 12.99322227073301 0.31714814604777636 -0.4363601723342743 -0.19490170381032884
Ni 4.8555817286468 6.0745073396242715 9.001817803612607 -0.4041277946631298 -0.6226985599556244 1.2093319987575752
Ni 1.9907946624393835 2.8506335695580334 3.3324519746321553 -1.150914992271263 -1.4865380571947755 -1.1914677168826449
Ni 6.565758611997591 9.129658003387984 10.64526812957145 -1.3887101530110082 -0.8395253459738187 1.5226144912023583
Ni 4.115972952815235 3.1176572787422776 2.580800605735805 0.6373733883589797 -0.08570746677114917 -0.81889352865608
Ni 4.493921661760817 5.256690704836828 3.364616215337937 -0.13507727545352866 -1.2527396763192489 0.6496270089153522
Ni 3.4341063408503563 7.332406347172509 10.107031537260559 -0.3330560755272845 0.7335691562559624 0.9877898095415827
Ni 3.944284884764022 7.574032082132169 3.887091891485379 -0.4919967878619721 0.16019901022182087 1.9523278476440762
Ni 3.4877833370364555 6.487830466414229 1.5737317678588687 -1.084672576203261 -0.9211609566684393 -1.7287421456354939
Ni 7.04393794609526 5.05255588557359 1.717126828279941 0.045600057227302114 -0.4042550642696135 0.2620797443187229
Ni 2.2032556164245567 6.8343300685097645 8.27453879324161 -0.8372314077333194 0.9494965703883389 0.8744481259929326
Ni 7.22300112340185 6.8140788203395015 13.767744869722204 -0.6031206378236968 0.5032726178861074 -1.2196313238010543
Ni 8.53106206242155 0.5573867021713451 9.622069153879341 0.6953818465529636 1.5601767657268486 0.6726700067777448
Ni 6.833369719264121 8.93394255663752 1.5622411425158518 -1.1676603300504018 0.8739588450613401 -1.5391855081871622
Ni 1.6770681438238082 0.5517887052093625 12.565589007805062 -0.1890961528721453 -0.01898605418419956 0.8613249583474134
Ni 9.233468959708294 2.458615277974823 2.372544676117478 -1.0074016702352393 -0.5170843269582192 0.46171022106328863
P 0.8477590189375297 3.679275111861904 7.4907371693081055 -1.4701513883066357 -0.6476567725628588 0.19915302288751507
P 2.687952272101883 8.309957965225587 13.923449183289861 -0.6692604668755635 0.5341459104261962 -0.36363343409350923
P 8.897309428616818 5.589279228539163 0.6952173312351368 1.494421316597594 -0.3267926111160759 -0.16157866417816688
P 8.406953239035557 1.5304330701710755 13.062436412384546 -1.5604559875301642 1.558176190357052 -0.008189734899643959
P 5.7912602548340155 6.579287415448351 4.370143832532302 1.5498537865342856 1.3211521034553764 1.2266296094957585
P 4.847022499447766 1.424393730649709 0.7571374805093253 -0.9762486416712026 -0.15083222429494023 3.6938067241199484
P 4.034212734028384 2.40080784765455 11.91535611351609 -0.3640198708986505 0.8108493181953648 0.2927607183423474
P 1.8876456944340305 5.884059828056222 10.935170527871804 -0.24065808410983713 0.4249974390232874 0.45140678225475156
Ni 2.669136885910542 8.11627510231542 6.633899586676566 0.624895310496627 -1.7929644459496734 -1.491795963159605
Ni 2.2765498438032132 2.2921298786524353 8.637789496839309 -0.5085747468253111 0.9571265761297708 0.08026649826123596
Ni 1.1586380554208773 2.045292151184867 6.027772829344056 0.9050797348358605 0.04153797134278653 -0.09117954562931394
Ni 8.379522680970679 0.5280578226849818 5.910441460974161 0.9669163085266831 0.02209528923714259 0.21060985857420503
Ni 4.574385875255005 1.506965118216861 10.030189611940472 -0.4896629975224729 0.6491690954423271 -0.9346281379169389
Ni 2.1630980999101346 1.3194452732811608 1.4079158158747058 0.40705885226699573 -0.11733512097875921 -0.36356992784542547
Ni 4.417531939726301 2.6946001265887145 7.532439636016733 0.9033462970845215 -1.2467238091424724 -1.14107949423808
Ni 9.176118394563131 0.10347623265119811 0.6150775852530698 0.8446474976917324 -0.5636130666473776 1.645470541999347
Ni 7.958721883355421 3.831495129185902 6.307166396238931 0.2579382113465235 0.5002281746328289 0.4576365652145473
Ni 0.29002826931798814 3.258586199595655 0.034320830807891466 0.6099325185392076 0.02132627228160198 1.2618359821935625
Ni 3.627481519050755 9.12388658413504 11.586958628511974 0.41006472897285506 -0.13301550782849353 -0.21363167611966435
Ni 8.698955352385608 2.1378120110345566 7.934227383324068 -0.15567001200321579 0.08264939667111572 -0.22448944476977467
Ni 5.563508303151222 6.708580260005002 11.58103616403787 0.6943179240648236 -0.33838417260841724 -1.1927334709689459
Ni 5.227749694560355 3.5496186399209804 0.21019527566778193 -0.4825235582642141 -1.2234632959526348 -0.649572758638649
Ni 1.8693897349877249 8.356744688668673 2.6244554717846045 -1.0384760230425405 -0.575502361885796 -2.2268954400171648
Ni -0.06478721134249243 5.40563807570237 2.973472494232798 2.0645223049621606 -0.47923923108598754 -0.9790295468504493
Ni 6.73889186580681 4.286365015573783 8.606198668547188 0.5255962210839722 -1.778417915594066 1.2847725363850777
Ni 3.9822140180773893 0.1083003559492158 5.394570749929764 0.2969657575626305 2.028556428390513 -1.339508494475377
Ni 1.4611853629148381 8.924665396449026 4.728440812302717 -0.8563727565484606 0.16425235435558808 1.988039699223389
Ni 5.092965144123278 7.836944004740406 6.889754340896189 -0.8459675020547366 -0.2773117307771289 0.5574565601276786
Ni 1.8824989683797095 6.524221176178749 4.191663391418458 -1.4753041361521688 1.6898213002005802 0.012367006205785153
Ni 7.608483445847235 2.153373398325611 4.42182181048281 -0.507284567258978 -0.3209796039787246 -0.763800187226362
Ni 2.4052179951612414 4.408310722212309 4.648936948054173 1.2061973097833356 -0.1235978140590194 3.5646468425921194
Ni 6.648050286192225 2.2962696365656936 10.964209437828659 0.293669603309862 -1.3504092005482808 0.7116438169377809
P 6.479616217041299 3.66886045062517 3.166199669786865 -1.1200517270335033 -1.193607646043783 0.3465183716797774
P 7.26055730555186 5.971134600920905 7.509568405923888 1.5052541455470398 -1.3032950206692973 -3.5025536728057998
P 3.643182763028068 2.337406149883927 5.442496839176904 -0.04006884299642777 0.7695298906212876 -0.0881988657344352
P 2.1721141942842803 5.095519859592271 2.6172360696399286 0.24927565057551912 -0.8928435977809849 -1.39197288292268
P 0.9618410502966812 9.245832290773565 6.849620133829477 -0.8002915972841765 0.6791622993703078 1.3243520984499126
P 5.3480077971846915 5.58534459376575 0.38082695954878687 -0.6489829475734501 2.5714919120838813 -0.5788823341016225
P 7.964092380107757 0.2960178650014952 3.230118837296645 1.924977480655582 1.2286970335477485 -0.899074152071729
P 4.395686325332687 3.9917335965220664 9.1305708013603 -0.12815637996397927 0.30045165922870193 1.394417744918747
Ni 8.493738974748638 8.49350588027154 7.992974650576 1.9920663038842787 -0.6703300457906585 -1.2726873230857696
Ni 7.496271764572318 3.947287141629043 13.075072930176976 -0.4246693662599073 -0.0976111601872706 0.20203522953131653
Ni 2.488339485694344 4.819246961556783 7.7443262452103365 2.549375539800816 -1.6106814593446197 -0.5742332653653852
Ni 6.349325728122669 4.485064071631098 10.994982570695122 -0.9131432285702854 0.8863073393243639 -0.36383243747819277
Ni -0.005519677217677736 5.598547064948574 8.138103001528773 -0.23810369311909962 -0.014904170805342072 1.057505785980482
Ni 6.697279839755296 7.367501051644366 8.743070813121154 -0.19881980791781242 2.385479283233066 3.203897157804308
Ni 1.3247505035799083 4.101567714130586 9.94135171245102 -1.0611721790884758 0.18064570811194697 -1.3352517760815519
Ni 8.538092191850822 5.132134340054805 11.26145337977969 1.377344591486544 0.8997644932705343 -0.5502474439737491
Ni 3.2151746841809454 6.672012398437887 12.512614092183982 0.007569327706825674 1.142409525903413 0.6560162002711476
Ni 8.602090611482815 8.013471114136172 4.472573004792377 1.6895726745248836 -1.453792230222322 -2.083212682282812
Ni 3.996134420249674 4.711212333311459 11.532932922988138 0.8679979994922147 -0.40963175520049455 -0.9415706306730428
Ni 2.7958097485446127 3.6467910655335434 0.4840663682112536 0.44009058591098404 -0.516538224646762 1.853247816220763
Ni 5.23840677405327 5.164581091266831 7.055188017937912 -0.9250543781855746 -0.17000056969327498 -2.843151072560923
Ni 8.547910131226185 7.580288337897476 2.0578475520992674 1.1326591313848684 -1.1296231727720223 0.2581549553430199
Ni 5.590556586273658 7.106780217120848 2.2600989679875534 2.26215220633693 -1.1153712908386986 -0.8230648864249502
Ni 0.8727495440161473 7.776637801625643 9.98284998839771 -0.79005320738562 -0.19923889773310202 0.6448267593132315
Ni 7.115013114051945 1.9904123874969428 1.1173271874337747 0.5202406131990137 0.7023839889024097 -1.0119692350012637
Ni 0.18019321933155993 6.013492529299131 5.893998044181767 -0.2947204131718795 0.040387402678111084 -0.8045220904257564
Ni 5.678190785883377 3.446106044531355 5.2116009091870135 -0.8876229728119939 -0.3628939848243234 0.08811941864675146
Ni 6.460455851023854 0.8246985161292826 8.61832983751327 0.6920280995893824 1.908436545577765 -2.612873046133829
Ni 1.4871893827798774 5.2619399924610715 13.173203840279365 -1.4313035622015027 1.9266697807563398 0.6345377186823975
Ni 7.58429756290356 5.299356317924823 4.353904606501847 -1.7073251134122982 0.07987749035293341 1.0881818749081003
Ni 4.050557318762487 8.714563358572084 1.979053227439009 0.820523093839703 4.026811120473691 -1.267226042860882
Ni 5.452424799145456 0.8637250582408259 12.607046259123782 1.2774965715489548 0.20299733633426978 -1.6376955260396182
P 1.189275993490622 0.5909784134548743 10.38084482237371 1.9230203569292104 0.1229126150665367 -0.3952634022939644
P 0.07365692238502086 3.3209249865507107 4.582684971017597 0.40618647696437143 1.1709009484748867 -1.1482053066495839
P 2.6396830677844543 0.872219953364181 3.615394171846368 0.9887891973403744 -0.8267713887422599 -1.0072463756042975
P 6.820661408372746 1.7512947491108564 6.590395765848927 -0.9903632266957136 1.634587833648572 0.39531508146750627
P 3.2063730367257297 6.058274640239175 5.878509382367568 0.5122722502815564 0.2840678185540398 1.250726245433646
P 8.361080245942693 3.082226918223401 10.016747519635192 -0.3084115375057269 1.440403981840874 -1.3342426180907472
P 7.708797985011078 7.345646113471669 11.074349375391131 0.4333818064322407 -1.5125167406467241 0.6315017600695512
P 5.02226292732995 8.801684750332186 9.184569467924792 -3.0389961141211272 -1.5788704854816098 -0.38602208620135453
