# total energy = -340869.9620704136 ev
CRYSTAL
PRIMVEC
9.22660369543834 0.00000000000000 0.00000000000000
0.00000000000000 9.22660369543834 0.00000000000000
0.00000000000000 0.00000000000000 13.50406714766367
PRIMCOORD
 96 1
Ni 2.1964114466762816 5.54907318010979 2.7631343532923283 1.2884947224316712 0.597768629483164 1.6395595758315504
Ni 4.828152505693901 5.837515262705164 7.3090625845752655 0.979318538845778 1.4638447293623176 -1.3327138401510468
Ni 4.202173582602508 9.340090851874379 11.561033992274815 0.5931190465262948 0.6717906894965849 -1.4315496167740378
Ni 3.1611358953388646 4.075962871585231 1.1954162964945798 -1.5383727824778797 -1.1621980213842502 -1.1132519305028505
Ni 7.131491061806488 1.7114703866311707 9.814512661124052 0.19726660449807962 -1.4649045380853996 -0.5415463166553255
Ni 1.0021198731638645 0.8412900226767485 1.4397496777894785 -0.392557316216711 -0.4474778795139906 0.5097708240159414
Ni 1.4964812955124067 1.5414333083844127 6.62027447995167 -0.8777527648861334 -0.03308829791353656 -0.1460358313475614
Ni 8.163468224308163 4.554639067767432 13.104171454349183 -0.36441119279979817 -0.47130326406836254 -0.5651919810987235
Ni 1.707955050649185 2.4000887217480256 9.13663593795005 1.2914916002764663 -0.051529535337859644 -1.8772796603589863
Ni 5.207642712883068 7.791553058696977 0.9001003941968979 -0.7939977938556648 -0.42321540742220015 -0.9856413957400122
Ni 1.99060282616664 6.549006348213994 8.87830303097151 -1.4434556241830043 0.41322538608902376 0.07969699891101113
Ni 0.290804093123952 0.6849433788921178 10.294622671509929 -0.06862274337472053 -0.003943043808148049 0.8280983350837996
Ni 3.2132108462111146 4.577862429097244 8.434586435932994 -0.5209414959207802 -1.433025687098932 0.8765651723359354
Ni 5.027391784420934 4.389879606795467 2.436173968534236 2.2039910246151657 2.1713372431358864 -0.25463434378427113
Ni 7.406213184808128 8.901208997136544 6.7365712053714555 -1.4128916353532182 0.3355986394434801 -1.5925562104988187
Ni 7.520567710164377 0.1291226271220401 1.6146943865055756 -1.3472572851828604 0.9382101988412423 -1.1516770672482681
Ni 5.968523807608616 6.837808268350831 11.060236091235897 -0.7211520135385322 -0.5765110056559684 -0.25900779026161846
Ni 7.949743177886333 8.111642391733849 10.257122063727296 -0.028650573857157108 -0.17677054142725684 0.6712798112984375
Ni 8.491031106283115 1.6878041483272512 12.834292375591492 -0.04059283382069783 0.2724742001791695 1.066693880237653
Ni 3.188612720940842 8.815069425672455 -0.03912910332284308 -1.2057201130366009 0.8161743299527041 1.348458504579813
Ni 4.060194605986245 9.067463167896127 3.7316324828384606 1.7553520349135383 -0.8820917585811194 0.9941257790619394
Ni 1.9997002573431175 5.500513565219525 6.415957801248556 -0.29915736589731057 0.07051096153636889 0.7734526227144616
Ni 7.550554171952969 7.046237244290614 0.9582676714442274 0.8312844461212651 -0.5202231296975169 -1.5477992179981022
Ni 3.9116278343801194 7.323893427245722 9.939789639854249 1.0421046209340634 0.1652864520470573 1.0303125133951418
P 5.220384652492312 5.1215769542479945 9.33105339362148 0.9302801453608882 -0.2847494180020967 1.3816491323991689
P 2.364630884008469 1.1527903103970054 10.890584685020759 -0.47379440592133243 -0.5237172588937045 -0.0644794106303083
P 6.840714648493417 0.43179674581246097 3.9764613327481437 0.8188783591474283 -0.6230472015442947 -0.22813681171437483
P 1.5777307670540504 0.6132729672362945 4.056756773474729 -0.17290823025837315 -0.35548432262381363 -0.3987390195473907
P 5.967739546300298 1.020766839094555 7.688337811899916 0.4020909667387591 0.6932393462886641 0.3235522498019073
P 9.171797601713173 2.8043800394872647 7.820555964538902 -0.4113024580346981 -0.5401489220871666 -0.6992852953724279
P 8.02105559732142 3.0430815019280844 11.24905023052449 -2.0921374955762677 0.7718166297729352 0.12782599320775406
P 4.016460504793037 7.213331035980276 12.253941775417983 -0.2916266047379042 -1.1162860893434838 0.8242884744194061
Ni 6.283418562803342 2.8313678550969974 0.7284495829757325 -1.038056933227251 -1.5615530772490847 -0.602349306875311
Ni 6.196919153797787 8.05477883357905 8.397800889931476 -2.373694374782996 -0.9328296512556193 0.09273711992442094
Ni 5.185628036628428 2.892577143560234 9.51628945602342 -0.8871699444349753 -0.06313549500790418 0.025290142025356448
Ni 3.4890032552335164 1.2742493205462442 1.8742433598421875 -0.5132904071334257 0.8122243441660205 2.0928802872795633
Ni 5.699669804513913 4.370734404268904 11.568123714502002 0.8844877696171218 -0.4133768240652235 -0.7505034701174559
Ni 7.370377056319853 5.972482020564709 8.872766146134794 -0.4589853659329579 1.580162464820156 -1.6540102040392417
Ni 2.4068887286213156 6.705055895361828 0.4466903293875826 0.009207891751513174 -1.0345211521598505 -0.11551863659531073
Ni 0.4104639155658752 5.444960184779799 1.3418009763428589 -0.34755298359187886 -0.027956633113926047 -0.6122256854487585
Ni 2.0132818178824428 8.95949345224994 8.53297709169336 -0.48233355374059506 -0.04203342292196632 0.7474592839744933
Ni 3.3181173294530506 1.7680848264880324 4.725990937031074 -1.6626691652658203 1.3731403235972095 0.18560588033069972
Ni 8.596518865553568 5.145861374994941 10.515738227437193 0.49011859700265265 -1.011819596797277 2.23881481716257
Ni 4.70831737778306 5.450819078083108 0.045089489266052454 0.06496534912779134 0.4810392604092038 -0.18640806451702088
Ni 8.401782169396638 4.504317171584361 6.274273153288002 0.40557301175008864 0.3677788237204505 0.45685494985351643
Ni 6.219385933630163 7.63171137745834 2.967194532414604 -0.735059881868876 1.063372272063588 -0.059712071148652
Ni 3.054485584011377 9.039967889086894 6.314056422808018 0.586993393244531 -1.052229368072891 -0.7556248505044212
Ni 5.041951364944748 3.5130754640970356 7.181260284432286 0.5011414304757176 -1.5410269322712753 -0.6856101118781806
Ni 5.351485463432037 1.0241530026257593 5.481800167742719 1.2123777275624346 0.3677353720770247 1.2300689741946105
Ni 2.606423258664421 1.8938895669457103 13.473858395184386 -0.05449401728282228 1.102711693093159 -3.3034363882522273
Ni 0.2128771215484845 8.670220975328114 12.60786967725783 -0.8336832853707449 1.5643144420443058 0.8516167299207139
Ni 3.5246917580637547 6.864860670185955 5.11026329288025 -0.14009401194182972 -1.3922695882274925 -1.0960129409167447
Ni 3.885156708573513 1.1395778140027704 8.145828803493568 -0.014849663418322813 0.8739817278794754 -0.1636214056398085
Ni 1.8492328053897762 8.127235351863916 11.065259976910939 1.5928107497117858 0.6682189129849266 -0.607638066078076
Ni 1.6364304193306725 4.494315533252412 12.87892330265727 0.26197458619942626 -0.48540370802548655 -0.5135657722819994
Ni 5.506160246639408 2.2580543855099995 3.352735546262527 0.5334697102947781 -0.4880154346167208 0.03809757820266987
P 7.725020019940811 6.537020990102185 12.174645575864231 0.0746326970142263 0.6281986638382471 0.39927149501209297
P 9.06953915371226 7.592692070718661 8.53043793037514 1.6151040138923476 -0.35487599961585337 -0.6680363646604752
P 4.4353483094706 3.182513935943224 13.012356598993964 -0.15925438692036442 1.0420737676961278 0.9772652558611749
P 6.157678408571054 3.6370625636401432 5.323424593820453 -0.5738578843038374 -0.12375156602806431 -0.1445448486243317
P 5.339103361364255 0.6455014937063106 1.2973029123693136 1.5548520110798254 0.458489657243462 -0.6148111867877476
P 0.9175100725811731 2.8982884112055074 0.8289798881172594 -0.6013684310192804 1.1229704433421952 -2.4195122044480586
P 3.8091202680812706 7.647405830228307 7.89935300483642 -1.2057201130366009 1.0681763783204505 -2.0750993091470584
P 5.808313062224889 -0.2044661496818751 10.152060573544423 0.8261052159131708 0.8902825219220281 2.4994058927509086
Ni 8.006025460012614 5.985851369220608 2.9752023017027023 0.14510637755475655 0.40709227660809244 -0.08378376738587506
Ni 3.540303171401077 3.0491064740966847 11.102206988475936 -1.5980308604601445 -0.13698529110951893 -0.2368543940930308
Ni 8.947471187723623 0.5457388419865716 7.968021079671933 0.92358165029479 0.9090423190280345 0.8839804909634001
Ni 0.6330511147716872 6.556553709981092 12.189986649715275 0.07834536997912314 -1.9452735119004563 0.17943163319918776
Ni -0.052469849507497 9.191459494042862 5.5277818695795276 1.9264198695290626 -1.6683302202063395 0.6009891933029908
Ni 1.3084892466070026 3.5531742834611038 5.0426212163680875 0.3500834633232164 -0.4417268359628264 1.7420116090508901
Ni 2.5615173788105507 8.246618376197022 2.364832023967543 -1.1065236106400813 -0.8040860313296023 -1.2942552790645323
Ni 0.10843750445008793 6.786674431048561 6.054548046527366 -0.4981466095134518 0.0746506947363553 1.2626199115474386
Ni 1.5687532817247272 7.662906524322103 4.403284939205512 -0.29853464471164715 -0.5958310461408189 0.6324317280829882
Ni 8.32008059427726 2.4323726078398056 2.0224096968508904 -1.3238072816900361 -0.06468998397921762 -0.49980239994931985
Ni 0.8291727241330692 2.9523009488394827 11.15123992813228 1.3683015074476694 0.6052317706294287 0.9736767671789683
Ni 6.997511550535059 3.801766664990345 8.417543976373084 1.6217906818839036 -0.28541533372086975 0.4128286648712374
Ni 7.460945397525028 7.374316816068693 4.765409755707814 1.6820275151877742 1.553863421914311 -0.9314834216403699
Ni 9.0614289691239 8.54585558503629 3.0623577222261544 -0.16103487585955492 -0.08927075864237527 0.8592138255416816
Ni 1.0639657972773822 3.187579341334589 2.8395813776459833 1.6575470135479067 0.579989194012556 0.7496349514695735
Ni 7.45413616404811 2.31107044995223 6.602273376274886 -0.5767668304205164 -1.1351168488967418 -0.3600385176533993
Ni 6.971307996233643 8.785387441803563 12.466198869202717 -0.4342618950443489 -0.13594785098394005 0.446188985499238
Ni 5.855461006760183 1.790071822931791 12.090906766663954 0.7434460490500421 0.0654343183444099 -0.8825818108436606
Ni 3.6976628962639806 4.446180342129002 5.262643419765522 0.8330788190175265 -1.1010013952702715 -0.5456037745541508
Ni 0.47885057899075684 4.666483956937067 8.471681995816391 0.3836597566167651 0.9620728643914528 0.28275038529419694
Ni 5.332700098446937 7.878070920909785 5.722361713474794 0.15423430799795373 0.8771007331244314 0.9110084416154697
Ni 8.784547820873481 1.713933889799649 4.4028928085513535 -0.38638126931298616 1.8316500354453293 -1.6147049786817158
Ni 5.734435646981425 5.705325712537423 4.510507299957889 0.043040781140558135 -0.5290918929420565 0.03872518448433976
Ni 7.741304975342923 4.007381526823814 4.027277774885635 0.3115418556045925 -1.1005817912343498 -0.9026456714730713
P 0.5322209450122743 7.93251710891424 1.1276247490036564 0.26250449056096725 -1.4170825335061144 -0.4186265024999371
P 3.4168050818502143 3.4021440086864994 3.250144940531033 -1.396031883483402 -0.6703243893637036 0.8432567879917929
P 7.000187265586964 6.783352853742748 6.635884970628629 0.05365403788003018 -2.3913527112947075 1.7673750275163431
P 3.0094689849139797 2.924796443426623 6.943116108850552 -0.2660137892658063 0.653599620409855 -0.27701759657547775
P 4.299541930680974 6.598802327990311 2.700206148573333 -0.41944591307743895 0.41942920090689056 0.22077702891519396
P 7.165352697118529 4.41541884563572 1.6279013469376342 1.2775017137552773 1.5875813829920464 1.309104685372539
P 2.064074270850504 4.800435788397615 10.390893053756749 -1.2690317286110533 -0.24522179222111962 0.12090072684283047
P 0.5135444539499765 5.334499286154253 4.196091405491419 -0.4499044866776123 0.9989579103432602 0.7175604395325319
