# total energy = -381164.7144353081 ev
CRYSTAL
PRIMVEC
9.34137263924291 0.00000000000000 0.00000000000000

0.00000000000000 9.34137263924291 0.00000000000000

0.00000000000000 0.00000000000000 13.67204309794623

PRIMCOORD
 96 1
Ni 9.190696297901233 1.1521368771222258 1.3825988156254336 0.47394558678721604 -0.13928514288728916 1.0380088535981349
Ni 1.056882900326817 6.8509626931208025 6.134672778156775 8.356085274179157e-05 0.5244855045182967 0.9415942848221267
Ni 7.4753493816548735 4.53371377228139 13.080986598348428 -1.4160314665337808 2.471587070766427 0.6717032719891012
Ni 3.7745404179455186 7.682335516580113 2.410531868008085 0.6776834008319361 2.08135326047657 0.5881511609980581
Ni 2.513922180371681 0.3996145801050106 1.4805318980935818 -0.2257089189991726 1.133315791132261 0.47864736313825956
Ni 3.1883506021305243 3.6458163029861446 0.6281811540998543 -1.1883836786406823 -0.6413367438821019 1.696955597252516
Ni 3.446947820883815 0.5670371994941519 4.793500147771568 -0.1700188245257201 -0.02599333873996814 -1.6091722217889448
Ni 2.7570407446628757 3.347013816396487 11.695803959051167 -0.05715588038570157 -0.9185834257492502 0.8165371126087615
Ni 8.683478446372634 9.025438074552445 10.240346173394013 0.08636926872486415 0.5571439139832662 0.3856541613389745
Ni 5.809446350784419 3.3628848085094027 1.1563078000053435 0.35683749421759836 -0.15821103325751462 1.5401404159012637
Ni 6.800537963617849 0.03256309088076058 6.6080543097139754 -0.6795790751927522 0.3752864449514053 1.200719574498216
Ni 6.942545510469256 0.8827130074808429 1.4211273070731796 -0.7348778477650568 1.3482690142768263 0.030313563381876827
Ni 4.583727481388246 1.4471934732838208 0.34189237029681313 -0.42645319763320744 -0.4997298948401716 -1.6489780409319732
Ni 0.3589338364013404 6.253609937002728 8.685329906429597 -0.23922212299425896 -0.05472824478081543 -1.6895083969458518
Ni 2.702571200807425 0.6540100494454761 12.38573625697823 2.3817977206164205 1.6503067870457255 -0.25000712942490494
Ni 4.713609926554802 8.642376406762965 12.129973210683481 1.7901506306499622 1.007761367567503 -0.6980907608436945
Ni 4.564689763950859 0.3634270366404883 9.911848397323633 -0.4572475573062448 0.8029624592481204 0.6612419674464612
Ni 0.6262904602778097 6.408956963982001 10.931932828415365 -0.3612883309001003 -1.7058891522967201 0.75312316712849
Ni -0.0191862452623409 8.625216305225928 7.535319125719909 -1.221088367962555 -0.7050021432515471 1.8751944956951836
Ni 3.652812991092427 7.507465020786247 10.349134865005432 -0.23913290571456236 -1.1352942550148706 0.6400357656824913
Ni 7.0185469182565905 0.05929623109779509 12.742877483970231 0.04369101313004734 0.1473522361661398 0.2852068172544895
Ni 8.758200086108486 0.4000050494813025 4.96177563448261 -0.23076345070394452 0.1925884822961199 0.15946161783516408
Ni 7.131670940909567 3.859332057385739 11.05253461986551 0.455012497328139 -0.03554704386667426 -2.03028600948711
Ni 4.822399552303485 4.334238100957553 12.921652673527017 0.30949680015010567 1.0891167280175438 -1.0084334539338633
P 7.29584556503228 7.875776661179439 8.154416729066027 0.1707932407978994 -0.018289028117174953 0.44164533199261363
Ni 4.545577315532362 5.463983707865147 9.242930451284275 -1.8476404973363147 0.3540159656084032 -1.266512047512993
P 5.834798836125474 4.486427743984993 7.176619757771796 -0.6652127791687511 -0.6234004711186555 2.790543473667536
Ni 1.962547660380605 7.778476923776185 3.9895162288885198 0.8243712639411995 -0.07854797290823246 0.790143195996265
P 0.8234859025405733 0.3878463188549512 11.7367518660123 -2.6001070047174126 0.5666742220712048 -0.5806965044922258
P 8.720162016724265 2.608905257360572 6.074338720558835 0.04121504078572902 -1.209887614150729 -0.2220474109871853
P 4.243972417151136 6.505285198630844 12.431742517223144 -0.4597543828884985 0.34984923582522326 -0.009852467314047549
Ni 8.727700504443584 3.6488522490936774 0.9122849908427363 1.9114095121631598 -1.1230254649498466 1.1618570931050636
Ni 4.708957922980798 1.3735367500287654 7.848969724118559 0.2721008760001507 -0.3192330536012631 -0.356808697862192
Ni 7.935804321754833 7.237405937805442 12.398478823394493 -0.18246116405413093 1.0945924064201342 -1.7562220962233173
Ni 1.4822236206784254 8.212467755191101 9.635823913775841 0.6343446288349849 1.0274498471353661 -0.5765266893852522
Ni 7.164356403771893 8.537519498895115 3.1926681845640674 0.9463809075774926 -0.593195922510817 -0.17821370163168662
Ni 3.6745316824770824 8.83894691119621 6.8664282696612045 -0.27519622709602287 -0.3031225211926457 0.1908049080331359
Ni 2.442750262238483 5.495548206010846 12.92306135252091 -0.6020140350230794 0.21784674264227644 -0.41934024073751003
Ni 1.717607528424891 7.850171958777142 12.123916264664636 0.04538022790701217 -0.01422308557791744 0.7489109288193554
Ni 6.689711918633959 2.4375564590514434 6.8548346920794865 0.6104534240396842 -0.4642443003390521 -2.0718939148358833
Ni 6.379587688406364 1.13139902986462 4.591318280794341 0.9437660956624649 -1.3623244639286278 0.764703929987554
Ni 1.3102863158930673 1.9989136240625238 -0.04936635198300451 0.8744190725272102 1.056510254836432 -0.07531558201386385
Ni 5.905727878570069 3.0848949001584587 8.816758348767834 1.810576759714798 0.19236556765203644 -0.697219928202967
Ni 5.6845428572342165 6.511684038888259 6.701160704939779 -0.5708347812067975 0.5585834746432702 -1.0849240300924348
Ni 3.1441845922954075 2.2246385525007173 6.34981673380727 -0.9133435175065496 0.3302522875299022 0.5170637581329288
Ni 2.281228587945121 4.8354774739974715 9.868001862432752 -0.36302896774029086 1.7874286037331089 2.3052379817828106
Ni 1.4456895122890123 7.526773638030153 1.184534625707284 0.9333405294537668 0.4064842107104483 0.3087159561200231
Ni 1.4823730826406423 5.304666597514486 4.539610046690849 1.7221999736416018 0.40344413833254394 -0.8466506441646904
Ni 8.182537997257151 1.610564739359618 8.665642029456567 -1.7385874138606896 -0.4524239106653563 0.4023264797883329
Ni 0.7849966448579093 2.187002162139954 7.917193505047028 1.4197497959256322 1.2906302807174352 -1.1958059392466827
Ni 4.780176547977188 2.7269615247667085 4.7785838439423145 0.3334119162048064 -0.5430254723040132 0.10063529172557507
Ni 8.474605354174406 4.339403880026677 7.322049049420708 0.04782534701339505 0.1402287377474811 -0.017399426423370033
Ni 3.0316397347460216 2.565897577732636 3.0980027142448883 -0.48491854085895203 0.49758533769334307 -0.3624833796494661
Ni 6.444117890593545 4.4565820584047895 5.293227152581304 0.8418277688547502 -0.4331810032753443 -2.1688268180092067
Ni 1.3768716200607318 0.4330258676213526 6.38420139235255 1.724969565966939 0.5907731720019374 -1.183634336881155
Ni 9.38471660760415 5.981607848513102 13.582846238531545 0.05780894058866819 0.2676916911888616 -0.028150751402603133
P 1.3100901470676576 5.021669713429273 1.240025181592129 0.9375327131582434 -2.841646205880622 -1.9778205925985421
Ni 3.0234473509420035 3.0143955608552373 8.784724913715682 0.973366435027401 -2.208657319742583 -0.0786544165791097
P 7.6290990339129525 6.277187561542457 4.190344530970419 -1.0732460795338743 -0.04015574628327923 -0.31442149114523266
Ni 1.116004447756271 2.968267862766022 4.9169996330141945 1.7087795864706379 -0.9796545820289578 0.17518288522516282
P 4.681120632517886 1.8076677020332597 11.709339608004443 -0.6474683107011365 -0.6073629580398185 0.08796258135391302
P 7.950358180325712 5.9115008468607 10.681830653939581 1.6193229370697015 -0.7562228890997363 -0.3533459361245721
P 1.652825109176469 4.448856743232699 7.963581827432859 -2.0347957244320054 0.6213466739134201 -1.1816877546777456
Ni 8.552801984531802 2.8871100172822017 3.277653190417906 0.07431285178096235 -1.820018364743672 -0.9315744386922794
Ni 0.43869608081295924 3.924525497030258 12.284193668122542 0.815300154877867 1.1679423800671949 -0.8172230829321926
Ni 5.935283981598477 5.8452424907353855 11.256234459896502 -1.4860726875225827 0.9344026521696941 0.726208087905201
Ni 3.5737662958249223 4.5785056540832905 6.92383754348601 0.5366069703721791 0.7970862029730015 -0.8100476482296759
Ni 6.881705150474307 1.6479208885412244 10.705688519658468 -0.2597564955021849 -2.099549985990255 -1.3098873291748345
Ni 0.11719312457433372 6.088949561502809 2.504034337433764 -1.567425991090094 0.4723090796250576 2.30902290274654
Ni 5.404413774549043 8.399846348948001 4.606015996503853 -0.9927965187275546 -0.30531001576226774 0.855273867057327
Ni 5.1947653484218135 5.799105451273531 1.60405847331686 -0.0025582476454794655 -0.17617584526605146 -0.9831813642352939
Ni 5.128394895824835 7.815197859618369 8.528524691181445 0.12519395490154567 0.7862970827772974 0.10952256691287589
Ni 3.621071006866596 4.5010563335369795 4.286978228504544 -1.1408833190668737 0.5512514597582313 0.5071521554461718
Ni 1.0179480591692938 2.0606133903402206 10.333986895134741 0.28385724520513045 -0.363059049647278 0.4134313314522428
Ni 1.2641212523132979 1.1317633433975238 3.4464620695066097 -0.5506724473263097 -1.2734460556286649 -0.04655085117634564
Ni 5.596724613059103 8.283191287437647 1.1703488172183647 0.8432783852583476 0.09392985468094146 -0.7524307690471558
Ni 2.806867626316961 6.839005736143444 8.042073645165633 -0.14093681955809922 -0.3595163266013421 -0.11083948595208654
Ni 5.236661404705759 6.016264341002164 4.067063633847535 0.5091126216066522 1.2888814163471287 -0.674987856277644
Ni 4.760120620922198 3.5910758593241763 10.42921191367497 -1.3537953434116943 0.02876550216846659 3.2880259672344274
Ni 6.48278183194455 2.469018202098117 12.750615877064016 -1.5275978033495627 -0.6093257381931443 1.907828993900753
Ni 8.663273057355427 2.0227434656634933 12.490847250181849 0.04097772796394233 -1.7479328596313315 -0.5887931654574311
Ni 7.896523849809683 7.480786060530516 5.97677462230991 0.636042328252382 -1.061678686411249 -0.7869128619844254
Ni 9.05910438154182 4.01514615299694 9.633034579905967 0.27209650512477657 0.1909766577243098 0.2092839406739299
Ni 3.3111896523276045 8.217185148373574 0.03367845077380478 0.7373119111278463 -1.9078115103992561 1.9870004593255977
Ni 4.667678397290996 1.0593770468213128 2.549179323121403 0.9928111740155741 -0.8932372336749778 1.4175967541383716
Ni 6.679931501481385 5.810128270987034 8.996915127337862 2.1352569524735614 0.15166526171919686 -1.9362257998758912
Ni 2.7508007077403165 5.810875580798118 2.4297685566826748 0.7054011784621786 -1.5689614538980141 0.8070574552531005
Ni 8.823991373601872 4.52280304903955 4.704878545549538 -1.6481074654015613 1.5760612981675888 1.1811287968504822
P 6.948271771896694 6.599147310903108 0.41221796006895745 -0.31063914128466497 -0.36696018447389706 1.8809265130829542
Ni 8.597705962805366 8.219184202118226 1.0561187760449826 -1.4335797598301891 -0.41215375029139983 0.10982467153432698
P 9.3792051977474 8.225302801196484 3.384554924756337 -0.939391363633537 1.3625635765226274 -1.2079700854130422
Ni 7.306158440425252 4.882165654445 2.4710443458234215 -0.6884372969143304 0.02908611873267894 0.21860984606054606
P 2.3696727040870185 0.7202011476877933 8.726072303192682 0.452407198494808 0.1015745157103928 -0.7490343417710971
P 3.7477960680813176 7.108597750492321 5.416631355823017 -0.5852391295575857 -0.0899148199842774 -0.008238585859708393
P 6.397420368773378 2.588877354423497 3.217264018721399 -0.35854779204048576 1.720708990918372 -2.258787146519439
Ni 6.503799920381312 8.276951250515088 10.546039790579135 -0.04838224795812958 -0.3423069047015911 -0.5647006432846017
