# total energy = -340884.277976472 ev
CRYSTAL
PRIMVEC
9.19231245352357 0.00000000000000 0.00000000000000
0.00000000000000 9.19231245352357 0.00000000000000
0.00000000000000 0.00000000000000 13.45387844891633
PRIMCOORD
 96 1
Ni 6.279645495482244 2.731422095612158 11.695846974281705 0.4839772599916052 -0.4315144142061988 0.262591908068451
Ni 5.0151969612395915 0.5708692586762971 6.1578400021338195 -0.7357898180563651 -0.4071203016325505 -0.26316140741867583
Ni 2.9687859867917856 1.7372643156195935 4.7890155181127865 0.9995744608813365 0.2840791314079495 0.4968659430288153
Ni 3.5596770211391524 4.761728138708917 5.252650017849645 -1.0159881263526698 1.0779216306326724 -0.00657122545961449
Ni 3.3533463766724982 3.3220189759622447 2.9528575478391077 0.8181376243266619 -0.9325555716586262 0.5428766054309748
Ni 5.060312830572316 5.18637620303136 2.827157271720456 -0.0818137881436978 -0.4038058925473368 0.173979608945681
Ni 5.147281298330447 3.241273703709055 0.7892620554938885 1.3971667684187938 -0.7057408211897847 0.3990897180185901
Ni 6.2262749296008675 8.054993561437103 12.525479827439707 -0.30771271166648945 0.8796342981795625 0.8671611054132162
Ni 2.7579878784914515 6.0581659201557025 11.914849221412412 0.1261681458893569 -0.4367787479289317 0.5721478435912662
Ni 1.1806606065801049 8.110689782359469 12.296306286621826 0.6004096666504369 -0.9860571431211922 -0.08531948730411112
Ni 0.2819594756296651 0.1505700773573818 5.210458223096126 -0.3207232649935444 -0.006667898938478839 -0.5750369922136033
Ni 8.828333612597003 2.6255266565915814 1.492936328554376 -0.21063274139234048 0.5931319020421011 0.1046402991199101
Ni 1.496646345845062 1.4608882505507879 2.8706267978996576 0.6313081560015062 -0.08835287481379624 -0.7618201806818558
Ni 1.9733964369356147 6.813461462044996 0.805120632872213 0.5376667790952611 -0.15799917435702465 -0.7839856610353014
Ni 7.903651329836862 4.077921210470927 4.225271220789342 -0.14406945164980994 0.18403853584357982 -1.400032262892047
Ni 8.092332734466753 4.209803316688653 12.767233047797488 -0.5272810649855628 -1.368740908977933 -1.533604928775591
Ni 7.77681580313496 9.193599338718672 7.274041356366356 0.8666635969515073 0.12514176150737158 0.08143557886867264
Ni 6.951254225145554 1.075610860301707 0.5023221849977869 1.5685829875126729 0.2831756457570736 -1.666403692607588
Ni 2.2378868420518505 7.2086757420146705 9.750832721158586 -0.6080075336023528 -0.17273930878067667 -0.7396421019229198
Ni 9.13816969485634 5.078734224651938 1.1232270386113061 0.49676335601267996 0.31866432558198665 2.159416323328584
Ni 6.654581534264472 2.2316820311717387 7.337772577570658 -0.661021623905539 -0.9928314857305481 -1.2695570049869038
Ni 3.4428794995944094 4.655593699565551 1.006731944145016 0.4550469501105002 2.0710523927711946 -2.148577066621235
Ni 6.1259040703416945 5.811664870435583 5.136744150609156 -0.49444807761594195 0.49239505174165527 0.08387298466557169
Ni 5.388331306788483 3.4516949272003754 9.18568935388558 0.21746416249187708 -0.8540371664367485 1.1217705094968227
P 0.51816145852004 5.879200789748445 12.596327736915686 -0.08513282521460178 1.0330525380341242 -1.0111202567374071
P 4.742727628947152 6.4777306357126605 13.132559443181096 -4.0410120945644215 1.7420388627443997 -1.5973304919590103
P 2.3983110783180916 8.86566359331424 1.438435108245956 0.5588824939409278 0.7345297203970188 0.42753871738790233
P 6.355858957714848 8.043098709172117 6.0555635765110205 -0.4209541221918492 -0.36789015248733414 -0.6212494862139236
P 4.877762698323217 1.5904998556020138 12.861665673236583 0.3264426839758249 -1.527976783955536 0.9079274886973008
P 4.197412079553259 6.698989595541242 8.515699390438549 -0.3003187331952634 0.8958754426287733 0.06194173181011913
P 4.88085131529465 1.5243703600886436 3.5771975686021054 -1.556566422667771 -0.6748377038530249 1.6521870347875738
P 0.3065342036398742 5.903155955901885 3.891628887837689 -0.5663734030013343 -0.2750419609063457 -0.6368709948012644
Ni 0.7956718549408545 7.716403925943708 2.698282890124911 0.5025228842042765 -0.25768958567082717 0.40291012020594485
Ni 2.019266075886368 7.040033578449437 5.008260442291246 -1.4515674546568613 0.011265288501174147 -1.4823407312839763
Ni 6.259495946668607 6.198670415418681 9.673701866146967 -1.3528378645944314 -0.0315651764007908 -3.3773802867295446
Ni 8.968332530677158 2.669107409751004 10.597754475506681 -0.4759186513531868 -0.5303990417892542 0.19952326174274027
Ni 2.3499135534532187 6.084262895101832 7.324654228523239 0.6971772478904896 -0.8256367609171845 1.3003745045883928
Ni 1.1766159891175134 0.4615653102122461 9.567469988492002 -0.4629222390935189 -0.23949723103251658 -0.3834214153537139
Ni 1.7581584417388443 1.444167434267938 12.02105352213013 -0.15883761109792 0.4412151864337304 -0.6067088693955873
Ni 4.78609695892103 7.490328194409676 1.6755995262461794 -0.5066677596105854 -1.2257940009683403 -0.22689316911526083
Ni 5.852892391616771 8.448029263364425 8.629653729753336 -1.9867330645968235 -0.7236516400319344 -1.8321786542552898
Ni 7.029011995863875 1.0573457355331406 4.9393226953350995 0.8576397961863423 0.8767991427236125 -0.1357115666034179
Ni 0.6987159397438469 7.825047866376363 7.119482734652114 -0.0015485754340424942 0.8470663915458702 0.11711040656246281
Ni 5.001298184868141 4.9758722487283045 7.500698961276257 0.37386925288890455 0.5541398370496198 -1.0627333529280085
Ni 8.982488691796227 7.505385202145414 10.044302810394289 -0.2873914836106341 -0.7140603967990734 -0.8647789783342847
Ni 4.702060838823278 0.9334885180536923 10.834556716397755 0.5984569137994403 -1.118951809101105 0.04887924219920614
Ni 8.189054245697179 7.240848835467103 5.162428390727852 0.4189795149639817 0.35257357673492185 -0.18192097527994475
Ni 7.150672250676143 6.48046075249991 7.496312389791828 0.5985065360904531 -0.13204260239226293 -0.8283988970433539
Ni 2.144014947670069 5.4324819833176345 2.7352810283639664 -0.5927416085822179 0.4092576596905274 1.5732166296299424
Ni 3.483776097528658 4.885190086754521 9.641668495843243 -0.4476591422868613 0.11144086698151129 -0.05641308868240607
Ni 1.318287908057194 3.6802893523361124 4.502636378673999 -0.038544435932101356 -0.8576056005142971 -1.2511065115912001
Ni 0.39299341729021553 0.419959065759561 0.8922398545539499 0.1986277465116644 -0.019838374882165832 -1.1652614908009222
Ni 1.0871564046949225 3.5878514586910675 8.630985695822268 0.8880405199653867 -0.5566042394297124 -1.2637555678137784
Ni 5.323736927448414 3.4067720964283654 5.00143882724809 0.6348112840587583 -1.7429531470285529 -0.8186603295993513
Ni 4.0025442486680864 7.27006200432191 6.007735055784636 2.417420354916037 0.8984311191710914 1.4753722703859429
Ni 8.700946547150203 7.382539139031613 0.5056865713416698 -0.9830055007790619 -0.14183387745107184 -0.2636599443216492
P 0.044042207242654924 6.112520063465483 8.163881098148755 0.3092705430719125 -1.0589867414013827 1.5061622591836061
P 8.929614510785258 1.6895194449361843 8.524431168001538 -1.0561171331630714 0.8490266005960346 -1.1562217491961573
P 2.256786236377051 3.454443428612455 10.761555967354187 -2.370684641422395 1.1792529199840078 -0.4489040704375559
P 4.06939993686224 6.7895246805163865 3.9208236720676677 0.3568200107161016 -1.3965196217530982 -0.5389387038291493
P 7.014074488189531 4.314099293349023 10.536068543814713 1.325513722858182 -0.21490642906702986 -0.6674689221927795
P 6.892873848998013 8.34962555896206 10.411673576058988 0.6733744890439372 -0.4227906611799558 1.269167739968285
P 2.305211338179168 9.047478340570139 5.872644832534081 1.5253221199415086 -1.2374485544881333 -1.0868287033143154
P 6.918639900697204 4.286081125108162 1.9506371906273643 1.5627396413580183 -0.91984660873239 0.5075948994105451
Ni 2.963169483906233 1.8528300673007294 0.618909202588227 -0.9977528342915655 -0.2824181987657588 1.0758655194345923
Ni 1.6516930793485396 1.568116574871536 6.802227537042648 -1.4428773830820312 1.4122781701389355 2.144536320892958
Ni 6.869589721650867 1.206592119902765 9.46635087500225 0.7223267505729237 0.5453268667436801 1.1958475911178954
Ni 3.2098635721870665 2.077848682907039 9.521255637825687 -0.6825913796565147 -0.14197683078683934 -1.2422310634784413
Ni 6.49921306982647 2.2139684451480712 2.5253332089620173 1.6819917768538322 0.7232880860449286 0.9722048106191321
Ni 4.434674855296323 7.528393560120111 10.620895202780153 0.5899982415091258 0.16566671820461146 0.8067064996715848
Ni 7.293226631607662 6.225135082861409 11.517730294310352 3.12215047545312 0.5329873713417208 2.69474571253992
Ni 7.7548094072134965 3.9008313117963263 8.446425204848012 0.9625965981054067 1.2233005451225256 0.7541516083930044
Ni 3.5680787946864445 8.848712969221014 12.8638856166848 0.6733199816569179 -0.5236774067947046 1.0563027668113163
Ni 0.2747140949841774 4.991149871962001 10.307097233869962 -0.03251159947446013 1.5515108625217344 0.9708729791815861
Ni 8.778741087118183 3.055460300552638 6.194649697968368 1.490916131657813 -1.6499501750372552 0.6638655211122373
Ni 3.6759965424383165 3.2637856768133426 12.276960145913257 0.4924289903033842 0.9801220085836798 -0.5909215246543437
Ni 1.304039823813974 3.8133848437926163 12.858450202353824 0.37652931621957086 -0.3658762073810989 -1.0380713314049543
Ni 2.935482238912311 9.049123764492421 7.916773355809247 1.3539624651171778 -0.8371421904536228 0.6414161909697856
Ni 5.942747245473207 8.612433770906355 3.6118277671630614 -0.8593961167558167 -0.71396166643768 0.4042429800847554
Ni 3.325852170239292 8.748516763897728 3.638560850128308 -0.09539589770350668 0.7841977770461075 -0.628858151799117
Ni 4.127256351202128 2.695397423257849 7.110831849438377 -1.4740118997033067 1.5246819152543483 -1.400546483524304
Ni 5.155490033317025 5.090013191985118 11.497281076111987 -1.0619710208406872 -0.6285267366016272 0.26544943212190414
Ni 8.155566651569405 9.11207271991021 2.831839835664647 0.27798638824665034 1.1977568923254662 0.7660211061370807
Ni 4.893702168050793 0.6293645387290259 1.4291517919380674 -0.8109997277303 -0.10472283153138738 0.9243979755484982
Ni 6.239603782602589 5.374239491856318 0.2841362152095325 2.072374711127044 -0.3898692278615866 0.8156765643806791
Ni 8.619824390087999 0.12912625095571512 11.498868588466054 -1.5082564227084736 1.054950109438164 0.17065440122718997
Ni 0.630338923845014 5.351332249318186 5.964305975780061 -1.363386072423923 0.06198544056386099 1.0533580823606956
Ni 7.458504408829013 6.300227082979386 2.7267248239681026 0.2979731157812223 0.5008167001464472 0.19235399768781067
P 8.987011309504398 1.8862900844912587 4.005972981198874 -1.6744324764493357 0.9932814287837732 0.35597746021014826
P 1.7164713049369076 3.5462746296381105 1.4987890738689942 -0.8377983359803828 -0.6707205963608577 1.4581260817109856
P 4.887929395854186 1.2378000205516242 8.294679430732755 0.697640046459521 -0.7967203349931504 1.7168343384543143
P 8.932418166071828 1.939605496498146 12.709825218303452 -1.101080585247639 0.3239230028777647 1.1261223587076155
P 6.856086214713261 8.269321517704789 1.3788606507157086 -0.42638969138512367 -0.25003309756683395 0.17841296212668628
P 2.110233199545015 3.6871835866473477 6.581529308271379 0.31725278994644074 0.5591470604562241 -0.07690452376753852
P 6.970319081094225 4.0612095865004925 6.281911400492537 -1.284571476117865 1.8735474470100637 0.07141624695945765
P 2.679687761340647 8.994898313556451 10.924670793464292 0.7516501821273893 -0.7390605183878369 -1.0138127159679056
