# total energy = -340873.8019127372 ev
CRYSTAL
PRIMVEC
9.19961502752738 0.00000000000000 0.00000000000000

0.00000000000000 9.19961502752738 0.00000000000000

0.00000000000000 0.00000000000000 13.46456650412353

PRIMCOORD
 96 1
Ni 0.6379601858283958 2.550998058574045 12.908708500838397 -0.7040837452023357 0.4118249061970714 -0.04394092435732433
Ni 5.637413713666621 5.052511387737899 2.1172895662409026 -1.6978359429749406 -0.4003377314930783 -1.7124647486317088
Ni 1.3627021804450838 5.615288639446225 3.283455770341938 -1.1255693144176229 -0.6569577382488105 0.31888158379911535
Ni 3.1951827039523453 3.8257795178863523 3.0517570253138144 0.4211410413916747 -0.09043958213949585 -0.09916024984194535
Ni 8.383443611522331 0.057870178537797544 12.658927912408947 0.5914557998912587 -0.045302323481225204 1.2363918310888447
Ni 5.672344652051173 1.6699877226944302 5.195262734592498 0.21155525320660984 -1.2087051638068538 -1.1549539382273268
Ni 8.194796305092623 4.494002757417624 6.1064634472160115 -0.6214865419253942 -1.0484436757782136 -1.0645207838457345
Ni 8.642780760076581 7.407024067850728 3.652801915789119 1.1963846945682879 0.008254269588992237 -1.4843454204188309
Ni 7.553049557705344 2.1759297525592602 11.90698541594301 0.5194343152476345 1.106400454798656 -1.089602923625343
Ni 7.298854993969887 7.359416059912869 6.928960551465104 -1.391982653114693 0.9716000871555975 3.0226708945985425
Ni 2.201274692050816 0.7686278383010865 0.09527673333511709 -1.3177829298728274 0.24857811028786225 1.6474713744794596
Ni 8.102579363726614 4.480782910575749 0.8109341080796049 -0.2193420962408803 -0.7622896641191066 -0.6011370317347646
Ni 4.475483932300926 9.349660782091888 13.527446090997968 -0.6512763715933171 -0.3670499159742259 -0.03416121926274116
Ni 3.4529099198710163 1.3912761848228596 11.733898338426556 2.0201795171807273 0.9954730371184533 -0.8078195302301054
Ni 7.081845274308795 5.163881927659777 10.521131484236783 -0.9616607165546988 1.028329421526842 2.0513353739582416
Ni 3.877646947597203 2.705588390049946 0.5933549322462695 -0.42208592180344723 0.3971832450244966 -0.035513362415261415
Ni 6.084423009454172 5.930053468739723 12.924166614024479 -0.5687097644439948 -0.17364562264502997 0.7381986846081737
Ni 1.4995280552392436 0.05084903232365764 3.4804554072850333 -0.6301030799498115 -0.12536647592366798 -0.8949917544722393
Ni 1.5519382622386608 4.156018099711536 5.967307309927039 0.47915901266735544 0.5388574569692526 -0.9339401107109787
Ni 0.5228435626538996 1.825295624145046 4.734262664221007 1.0925944021534988 0.02569586210420736 -0.7916724881565979
Ni 6.252177990081584 1.4819107923984707 13.708409878929185 0.05370571705357202 -0.003696732125296859 0.03294148792302714
Ni 8.143168065373345 1.3020767171966796 6.2851116920365095 -3.21071495205709 -0.9447773105357987 0.04860721948474209
Ni 2.4829485059718532 1.9216983903635627 7.0171526612421635 2.4281629381445216 1.1914463767264063 -1.0590805866667696
Ni 2.3267298426302525 7.184936160676264 9.430434322284196 0.3034171696149291 0.3673278522259609 -0.271233642903849
P 1.0939446260689265 4.232706090855497 8.66898586357629 0.24808497270152757 -0.5095656499836707 -0.48168357886142205
P 0.9729880872540528 0.654774322274391 6.525292482150372 -0.631535441520964 -2.170862617492313 -0.8834798971778979
P 9.095392621435948 6.245618664543478 1.7006150811536997 0.6402689647392199 0.1406617115198416 -0.1483714214592735
P 2.5838406843398727 3.3635448591737482 12.360472160694627 -0.23925529022503955 0.8077801923517378 -0.19353439114915702
P 3.883985482373857 3.2017696283356316 5.406615610952917 -0.31842984097367744 0.6076802321699212 0.09698663922939425
P 4.857056366163453 8.828806176214059 3.637547114095871 -0.1466058449184185 0.1045585380393812 0.5711119461275841
P 5.856778534783191 -0.08729790719318374 6.925714927271774 0.25960402908472063 1.0870904416161342 -0.1631452373343384
P 6.890888864498913 3.0826806113780307 7.565779985026002 0.9543508131568467 -0.1099812517168493 -0.41799966754921564
Ni 7.709553409113819 5.174176296912427 3.3223140243957974 0.5493591278315249 -1.1020388353958506 0.941828769430436
Ni 8.287464027596595 6.559113946958632 12.925512517707825 0.9020329775897367 0.015662903348237542 0.4644273628841356
Ni 8.973948503022871 8.156157921838709 8.582866427072352 0.14891032468187904 -0.9242827901268728 -0.8605268879261503
Ni 7.069931772805505 8.68171353101243 4.780365615134976 -1.1869901407272654 0.9077534250132819 0.6260775037301862
Ni 3.3700673862516113 7.4923504975364565 12.174149596990695 -0.4366823315603835 0.5458056061523117 0.07373101113556334
Ni 5.720716228039049 5.398867695149001 6.725901128081685 1.0199787355693015 0.31024833360414955 -0.4266899962343619
Ni 8.255955346014535 3.385863125310414 9.674802777173579 1.700829992606258 -2.7755559991197685 0.5136825003655218
Ni 0.43183361078382193 6.028194962204665 7.415435275900503 1.346184878054288 0.08078457554823507 -0.04280681075288112
Ni 5.542850870460195 6.760245131025379 3.6454367039717184 0.8198767185049558 -0.4364167366038225 0.5170457604107999
Ni 5.720909419955318 7.252185346768195 11.034441485803532 -1.155951783364222 -1.4385772130447805 -0.4740882830126674
Ni 5.197690513006952 7.518413007002728 8.628565514885164 2.085490422573395 2.148132779994965 0.1478739129975647
Ni 3.668447701122436 -0.19103736642241417 7.522680708429273 -0.1142225434917065 0.22563075746306946 0.9047148952972741
Ni 1.5632445891479607 4.65496842213042 0.5419530030574785 -0.28476792994485794 -0.3621342238401634 1.337930608465296
Ni 2.3801428076712594 7.936323920354056 1.322646136510353 -0.05710702942563713 -0.4342932625029166 -0.2176161146887091
Ni 2.532424035766985 8.45664494855838 5.690570009447441 -3.791918735203037 1.2519349210297666 -0.04927853452015384
Ni 5.842795119891298 3.151926113938082 9.462196913241927 -0.038467045726946654 -0.15987196589970532 0.2044304692363705
Ni 5.26162783767712 3.6554118465817704 12.345418830571202 0.29642376901623146 0.11104748819783457 -0.882068618652668
Ni 0.9035337534321294 3.077694420015264 2.200729154877731 -0.09008451279292227 0.4253692205404094 0.7585381674964743
Ni 1.4768602037302805 5.924496901243207 12.135357580165271 -0.018435323887052123 0.11062865549286108 -0.8091331068352066
Ni 1.287697718857187 0.5579235348024298 8.607102812949122 0.8151461457985058 0.93055165385472 1.9225501021610116
Ni 7.772000396144192 5.085988786942898 8.32698649385782 -1.6372885204091867 0.9419771220828422 -1.3011972576000042
Ni 3.4840138183904177 1.4319568826201952 4.135062296565324 -1.289112044300696 -0.26243969876130285 1.7338681540081493
Ni 0.25943926428142156 5.60248277528207 10.095044872981227 -0.2013333183682855 -1.364677537541837 -0.5390646878840523
Ni 7.591476349812868 0.934828083983282 8.638529617957145 0.1678434141409561 1.0655317416087522 -0.027580737831746048
P 0.013951216239181302 3.7455588745591775 4.18591868858103 0.08136615908331793 1.4550327874976425 -0.04679844841077747
P 5.524221649962773 1.7611559079435477 11.198250751531514 0.5121925460835566 -0.3053750646722483 -0.6590781270259229
P 6.3189947942656755 3.1972526173409483 1.5086108351884318 0.3943048950354371 -1.0301158240033033 0.2932808525118756
P 3.174189182384385 0.09439817009684356 9.738045530906684 -0.1580680799217471 -0.043683042710247345 0.3264431981964572
P 7.31282000963166 7.109434919875102 9.30335543964659 -0.8565087679056925 -0.9592688192837545 1.0403074198243245
P 1.0231719874088396 7.863518166765608 12.873297342547689 0.5252756045197599 1.0456776829973025 0.3522069374241224
P 8.576506733181057 4.216744758725605 11.779408834130631 0.3784388745374579 0.4377719650801364 1.0430726412742874
P 3.8393581497155855 6.417090289655316 7.659089840661194 -1.7819033030395055 -0.8950591173750648 -1.5263963268422938
Ni 0.4005843583464655 2.709461427990397 7.331213719983535 -1.7743213769271893 0.6552332993585361 1.4797056076539743
Ni 1.5657836829046465 0.28305559610311776 11.326420708515291 -0.9228810246833395 -2.3345701550880245 -0.5065695434698243
Ni -0.18058752367524233 7.5670881702876 10.893601818958494 0.28291262190367406 1.7604464187173101 0.16451486398835538
Ni 4.785234971386474 2.1216888221628127 7.141457859939043 1.2511425070354583 -0.2848018685065869 1.9173001666159817
Ni 3.83299201609375 5.386669005578837 0.06655277523185578 -0.362715293154614 -0.7074462339166654 0.5776811147046695
Ni 4.7567161646990614 1.3154161590343407 2.2832000240486936 1.3441439363648593 0.4940205031602201 -0.6637832458110762
Ni 0.1438672601614328 8.684455016300447 1.353363651197215 -0.8253505971353335 -0.31141638577032177 0.6358489812946533
Ni 6.614560026928 8.856303825629762 2.362156640266562 0.05784725002577134 2.061307911789921 -0.3684488532042816
Ni 3.5233421727738663 2.5478241913781883 9.31446397483209 0.6883213401617565 -0.6912909643130418 -0.5973233144156294
Ni 2.529130573575342 4.79239227190351 10.25476214993032 0.5179016806531919 -0.6303514485151918 -0.3183336817154453
Ni 6.944053439933287 9.037030263492417 10.836026948064138 0.12228269479202164 1.8915346276161038 -0.7419059582564319
Ni 4.519476491520026 7.698541469886454 5.566225252405801 2.8836757721478468 -0.3737525248053821 1.700436099601949
Ni 5.020137942340154 5.447892443806171 9.412162966812625 -0.5332041153382172 -1.6559297896594578 -0.10010744424656307
Ni 1.601588584719941 2.4413386470534117 10.44857136037045 -1.7215055186777382 1.080151548404456 0.30038455343619236
Ni 7.072397269641707 6.8544399896293875 1.6575415634791395 0.4568472365440326 -0.4017076152574114 -1.4557038454227382
Ni 5.597524182764484 4.061722045341864 4.198831268279886 -0.3720525113951399 -0.2228951036994613 0.8412767814472867
Ni 4.689292185920981 7.391780305695552 1.2408983570831422 0.6944030275794622 -0.49432286489198735 0.47208899319445147
Ni 8.31680160002439 1.9504747862726688 1.2952450830527853 -0.767161390389111 -0.5835468294568272 0.23430900196335774
Ni 9.255364727722215 7.864226537125263 5.880151076805785 1.4534857547254967 0.9509353597173944 0.24814205119170812
Ni 3.5905269615603754 5.429879597517798 5.113519554972818 0.4480797747640477 -0.6435314375405755 0.3793858118317595
Ni 7.331614823200171 2.36501864051187 3.786478762348085 0.9879080802870018 0.7542644798217849 -1.2030919313851345
Ni 3.8901400248493014 4.2452359665678365 7.535242782794326 -1.720015307285457 -0.15921582037294515 0.1598439408752473
Ni 5.226871691978718 0.5772381266218569 9.194723625128209 0.1656482062618502 1.3412172496363675 0.8176519429394951
Ni 3.0271517348731196 7.457686347988659 3.751403390007085 0.4922060756593007 -0.5795099403832923 -1.4757070280175424
P 3.146148755680116 6.0013412858431945 2.1474229053714255 1.388681870876234 -1.1716784500708597 -1.0058901186867193
P 1.6267679311404084 6.324450165996525 5.376037930414974 -0.4211081312712103 1.0339714503039676 0.41524035963652356
P 8.89784928724278 0.8439579662621233 10.496208807076503 -0.6134330754932984 0.7963441826006543 -0.6486435619561604
P 8.479754381590244 0.6205765932101583 3.2407327580011804 0.5817992506381012 -1.1619763922917472 -0.32311876180891447
P 4.174564523673415 5.541682519347518 11.369951447058357 1.1314057185937416 0.7537206915031728 0.9399721758376715
P 6.315765729379455 8.29521930309256 12.987166497919986 0.35441114416429287 -0.9939257472359915 0.12838495103501762
P 2.5149723659973002 1.665985890143132 2.1725074957567707 0.18102905959329468 -0.28837724456267105 -0.2610050231973053
P 7.411863065372528 6.356060043344251 5.220091575679162 -0.6562350011501731 -0.8199728777631878 -2.4800652834407675
