# total energy = -340865.3086175084 ev
CRYSTAL
PRIMVEC
9.26717975589730 0.00000000000000 0.00000000000000

0.00000000000000 9.26717975589730 0.00000000000000

0.00000000000000 0.00000000000000 13.56345431364362

PRIMCOORD
 96 1
Ni 8.52085681300748 4.999328459655814 1.5266344373852594 1.8064439684933467 -1.4101215288072488 -0.1449827074926987
Ni 1.850980172780776 2.5613373119109477 12.496552971218959 0.12764730153804468 0.9673783357647662 -0.4919456229090624
Ni 6.851392892482227 3.91188050414082 11.716125758318977 0.7668132630210729 0.9709971634642761 -0.07098635851089065
Ni 5.869905871683609 0.34895195140556745 4.739220035015371 1.8059600868783932 2.7004504762341814 0.4556475598089766
Ni 0.06223745333756434 2.5433682501289767 10.658311463897437 0.11456809975658333 -0.3724690301072682 0.18789313370297964
Ni 1.7107492068783616 8.812559834003402 3.6104691855055 -0.3593389204832134 0.5206671592134711 -1.2475043960622387
Ni 8.750377057027112 5.242897748369344 7.752680811905212 -0.2919472213021166 -1.0149540286612004 1.4938510459164207
Ni 1.6707798600678203 7.630873926316741 1.1476021468161548 0.2488107951239586 -0.25197530889486924 -0.0535229116188046
Ni 4.403726808945521 0.06296863382987868 6.579997969469292 -0.42312310481870996 -0.1558150222215123 0.14824518029405437
Ni 7.067484992859738 1.6892586167430392 10.572509425568025 -0.6086137997277842 -0.7749888568533299 0.4798889488548445
Ni 0.831661743569296 6.659219383367876 12.60181886744454 0.6459531596081908 0.6059632494788144 0.1468470143949471
Ni 7.835122570811138 6.014001251594833 13.131350159220043 1.8551571174283341 -0.9023687636626007 0.29106147626305356
Ni 3.457881361954773 0.25697611784193597 8.706300496094977 0.8058662631584766 0.6665564376808392 2.285280564824277
Ni 4.785951642982336 2.76025732797593 9.527526468404512 -0.6989883329572995 -0.14246791149064497 0.017152343409570458
Ni 8.6515981867156 6.2285920688322305 5.700028270635913 -0.5130469236640519 -2.437058697972254 -2.958306926500176
Ni 5.089034760867509 2.520960209185808 11.895271465961905 -0.33551533570105446 -1.4609398970106968 -1.3815210914617368
Ni 5.334818905571701 7.862803637104458 8.659573521717952 -0.9396489881702978 -0.44504767280594326 -3.7454622435127107
Ni 7.838338282228541 2.943562145947762 8.69294000286596 -0.025383215959794994 -0.21319484569256184 -1.003216428509298
Ni 2.9143241934350654 3.693555013412894 2.0065372007641717 1.0849201734376928 1.415341896665924 1.6904903012431467
Ni 7.6159259651747515 8.401616009527016 3.672942951929934 1.7822326613544661 -1.6410238190819029 0.3537483137693133
Ni 6.616896172868516 5.925388477608653 9.7939124806938 -0.373436279116544 -0.4069120422764863 -0.07763600261692435
Ni 8.674117433817294 0.54768477043703 7.395026051876928 0.113371765455637 1.2862817739407526 1.0704878000624467
Ni 0.798570497663643 4.234860257222431 3.4797583934909757 0.41165624182969107 -0.20144079048042726 -0.4335486710274082
Ni 5.269096065882306 2.7389984173375392 2.516075478672514 1.2929792405655862 0.7533013445775671 -0.08436277981779663
P 4.657184178588069 1.5391395699116088 0.11927231189204546 -2.0590440554564085 -0.24027961772449585 0.9410494680622503
P 5.889200140188025 7.441276693208263 4.570762165924868 -1.009076486834501 -1.0311244677734757 0.23421258559480954
P 4.788407445649804 4.583565701643264 11.157378755262485 0.08790524575341635 0.8347240679304333 -1.3739191107447628
P 6.987147810503934 0.9487090055728159 2.903678057192091 -0.7138269406320286 1.0843157070844744 -0.44825769510280866
P 3.395318630603517 8.62371324246498 2.099799318894764 -0.5620935446790577 0.6251840453816394 1.1065418654725265
P 0.27977986736586347 8.842353817308732 9.173317245854587 1.055894218518988 0.9663239263583229 0.7927757485231056
P 7.162529189680725 7.145440509987091 11.528950039312424 -0.8979606072925762 0.7851462570023059 -0.5983340150683308
P 2.5822904056133895 0.7974232207948406 5.490716965774579 0.36107390089644914 -1.6653058315577192 -0.8014203115719811
Ni 5.330935957203137 3.07299684729319 7.026669552526404 0.10705430787804143 -1.3941598632716699 -1.0541304417503459
Ni 8.340591630035384 2.78121968885825 0.19265262231400465 1.576139459703692 0.027146478507804862 -2.2101236198754646
Ni 3.552323192083738 1.5304840239062654 3.1787993132336654 -1.2054254646143174 -0.8315526121809873 2.115169694805383
Ni 6.628980575428438 2.978193597149012 4.572796311907922 -0.5161134784045176 -1.047336558756964 -0.40509735766525073
Ni 6.734302074733284 7.938970588515503 0.16405039834088733 0.806404909270766 0.45608824689082095 -0.5925153515040247
Ni 8.904981418919128 6.871752886672526 9.777311254661708 0.8915868425557484 -2.3399442749157444 0.5184310707941007
Ni 3.577316776212657 0.47528585436407067 11.726012912530008 2.0186317130776334 -0.12733388406268395 0.19841254517706475
Ni 0.289170300735472 6.594543735004609 3.171392983075774 -0.17939820885809105 0.7627511771365574 0.3095837034369572
Ni 0.9076062826632879 1.6213857913221246 3.362882574315185 0.2550117817283479 1.6167320364140738 -0.29314329849274673
Ni 2.6709402483190794 3.974155952915881 8.483683374365901 0.6699320390212914 -1.1637710222983249 0.25689614323525434
Ni 1.822020235664397 5.102944797863248 0.4661882638785829 -1.4200899528738704 0.08555808567747845 -1.1406244089785325
Ni 3.497044464115994 4.62086610064916 6.330213183212095 0.5080805807977121 -1.9368042980871802 -1.270679034406489
Ni 4.4723688102962464 7.2967086871233 10.582845111285112 -0.6613594668609319 -0.5497311664589629 2.759668124244918
Ni 1.910688612729841 7.409128846214114 5.32950139775814 -2.097060643909498 -0.3218128985132974 0.5371489589185782
Ni 5.593021071311396 8.188304063112678 2.2488480064503733 0.2719136996900091 0.6917545342130216 1.8012539396519751
Ni 6.695676469004943 4.73974548411441 6.091754744200863 0.3058417198960217 0.8319704164446962 0.207660546137894
Ni 1.4242172722539401 0.5343771001333115 11.321008423636945 -1.1119995461529881 1.3277356702101648 -1.8267176311407185
Ni 1.2183376041011493 0.4637018795175191 0.09716174742293562 -0.9501979673307378 -0.3309161463661462 -1.303116071889272
Ni 3.0207114184257953 2.2572811401386628 7.102163706678362 0.81331089236198 -2.0422480669449925 0.8881369363339351
Ni 2.573801668845837 5.518957769732484 11.377338049802768 1.5559357310623072 0.42617269027831123 1.3375279737102383
Ni 8.931003660014422 8.390847546509663 11.575228482183391 -1.1166987514008704 -0.2786404768908814 -0.22011034186547251
Ni 8.18111273152794 2.590121172609659 2.4068348889975817 -0.2875444642487306 0.6442271780560196 1.5204131126756655
Ni 2.7296200313017707 1.7319339800777351 1.0910306472555358 0.4297609218502018 -1.4878495769173474 -0.8626012539566756
Ni 1.200387076678933 1.6811498343504532 8.764053561089945 0.13676314779638382 -0.07849397974184547 -0.3471791451922279
P 5.247531338307966 4.97287066110629 1.7437579748831071 1.13911234320938 -1.826482632311777 0.1110210058352733
P 0.8772303204616666 3.393474461807946 1.3337890577298082 -0.18501452660360396 -0.9706536640819284 0.13478134147966467
P 8.538418118874851 7.473823028937134 1.2381823430902734 -0.10932793440356657 -4.131281726784956 -0.6112152419063732
P 2.602159239270195 2.463892915501756 10.265852883122186 -0.15958734477975095 -0.3214195197296207 0.41684035713379175
P 2.3214100248891723 5.8299643264127 3.9840208658952045 0.6475377304864912 -0.6943770594375331 -0.8687500471668909
P 4.31494722572155 3.13396562370556 4.753570263055279 0.8562583424577833 0.3942110497700501 -0.2085277792341957
P 8.57926784777373 1.0832777245702356 12.21763402486369 -0.027118453483346842 1.3291366643227496 0.5128456062865231
P 9.011887605982983 8.233907855288582 5.494908511233056 1.2089365630913695 2.862689656814483 -2.980511230511357
Ni 1.9129776061595196 7.703862235029893 10.432045853450692 0.4764845511589859 -0.6487476916341924 -1.0338092136944905
Ni 6.176519785102013 1.0839912974207833 8.208942072699294 0.16358309620270536 -0.2972076983701075 -0.5006858309955378
Ni 6.9308867614692025 6.243947785888819 2.4110394085078863 -0.7710640678776269 0.3271163130040818 1.1879118812105864
Ni 5.658039605330121 5.723345421925039 13.270469990255178 -1.7756771196241352 -0.02701329536405025 -0.17734646853538488
Ni 3.697410160241826 4.133078820630691 12.90785172868464 -0.14742962637129448 -0.27918400809917726 1.9108690662786574
Ni 9.125920254372437 -0.06087054430567126 1.8297101415265318 -0.0060824587486540405 3.3721648039668763 1.5142812887463146
Ni 4.509113178509508 8.270791231200002 0.33327558992522616 -1.5880495808777166 0.6606608981320106 -2.238892207367725
Ni 3.530156097817377 6.051792811134223 1.6332301739232267 -0.32547903451097493 1.646146742130765 1.0578490282525137
Ni 1.8106586731348993 8.987663197783874 7.303092847340731 0.13058170157602028 0.06517772224891355 -1.1374935766590346
Ni 1.9035528842243654 5.9253699432488975 7.347865373481647 -1.293721003827617 0.4202627525517795 0.8536260470412588
Ni 0.10030239468333267 4.429248622327443 11.947341896256146 0.8167965369177352 1.1143415640226035 1.3919919090860735
Ni 4.04312230556231 8.666833430433783 4.2322181842394295 -2.414170480520171 -1.7424893200182572 0.07759075120128572
Ni 9.239118856572938 7.573482281336986 7.349276764976951 0.7230435741342903 -1.5528483503862354 3.5964645013233483
Ni 6.0983511228374825 3.3002466322428994 0.30820138133137454 -0.6689830448444607 1.8760696992112853 1.1706392101730678
Ni 3.7753656773691797 6.8134623252446795 6.271049653439811 2.713067393667244 1.4610016034865676 0.7466126197034819
Ni 6.626700849178637 1.1140725633023083 13.505646920871879 1.7857090499388408 -1.5433326975863162 0.03206782706882219
Ni 7.3339256815103 8.398085213993788 9.244470652952044 1.322417600431361 1.6927366740751624 1.0069859228540594
Ni 8.992686009277339 3.3053528483552594 5.42785027092335 -2.9371729727350386 0.43293829113691884 -2.2649945608817315
Ni 4.8164591991382135 5.380997262899994 4.224025997227948 -0.30006522242356065 0.06656071863936923 -0.3505498614366737
Ni 8.428620571689297 1.1270373479505686 5.068418992512599 -0.007768073981193073 -1.9107811345505417 -1.9282013869095178
Ni 7.066660213850663 8.357291088174172 6.529433455905101 -2.0137337615553834 -0.7450265061632846 -0.22431203865164598
Ni 2.138105206917341 2.8762082825999724 5.156988210753356 -0.7441590159566668 0.7992613562474493 -2.003233890465324
Ni 1.2798716784860311 5.041753609133824 9.704271976459234 -2.8805174290245232 0.6045416865409395 0.2658240418525035
Ni 4.848319763556169 4.904302797194583 8.329724008193342 0.317925133423117 2.2353744240224533 0.42787013258539214
P 5.314143827265576 0.3569995704109637 10.027977349725234 -0.5193039603173573 0.14473716714079587 1.266494049790864
P 3.3887760016101844 6.911499821166014 8.70178367262281 -0.9676845541512753 -0.1520938646161832 -0.5629268392136305
P 6.709586506000682 6.374142395984181 7.503506732801926 0.08579334161673612 -0.12655689668734332 0.4579661806398242
P 8.234204405044654 4.461637415998402 10.17584632528247 1.154370040699399 0.5840397099328458 -1.5451106154223455
P 7.324602898553796 2.0174743264552917 6.59529715672863 -1.2241050433016918 1.6906404536677655 0.001444702866326544
P 0.8488764569092593 3.6212895447301667 6.930409501705525 3.570788179603166 0.930115851868882 4.0729847908162755
P 7.886963175044426 4.718254893979088 3.903901462266515 0.11040805484162275 0.5300586277307 -0.3620645469444926
P 3.0399222823113163 7.649964316863858 12.463878748407781 -1.5132873002641616 -0.6251737609689942 -0.920848310524027
