# total energy = -340869.62424298766 ev
CRYSTAL
PRIMVEC
9.26290754802399 0.00000000000000 0.00000000000000
0.00000000000000 9.26290754802399 0.00000000000000
0.00000000000000 0.00000000000000 13.55720150557303
PRIMCOORD
 96 1
Ni 4.491870900119842 7.934856492071986 6.252703263400972 0.20258236028403817 0.7355666463019654 -0.03921086587150666
Ni 4.668616434319938 3.659450472656616 9.56074126405562 0.2734707597644838 0.9354069250644922 1.7284454403306813
Ni 2.518232504517922 2.331751654745042 1.1328507839741873 -1.8823925561055195 2.219451839254926 -1.2769679527389943
Ni 8.153229531680353 4.007105909457517 12.360696757500492 0.14548098728535588 -0.5909315519566727 0.2158335688669896
Ni 0.867944603251224 4.040137436890961 3.085659679929561 -0.7307861941941866 1.644923154136309 -2.7123672822764253
Ni 3.357053600925767 5.643315117918244 7.95685682320131 -2.191297745418213 0.6656511522577504 -0.07706316083258986
Ni 2.611241356721851 1.1590120130628794 6.38127982705721 0.4902404672924976 -0.15963156775412507 -1.4878436633800762
Ni 4.814979632574522 3.8721360871825006 4.205633170174647 0.7363269215067577 0.46477369047996087 1.0660145947824415
Ni 7.138459511100252 3.2888693402870737 3.024435567836434 0.2555401434279922 -1.1747627454231382 1.1707824206191513
Ni 2.3403661585344704 2.2769893467847164 10.396299038221512 2.701873581833953 2.274834944010921 -1.0321565085824158
Ni 4.688309375240718 6.75884704411276 0.44547914821960966 -1.0230074950932964 -0.5134960953863286 0.6892014287738647
Ni 2.653989673913478 7.956161178863046 1.3419729580615847 0.552538811111087 -0.25937982888905653 -1.1372660340292606
Ni 4.685410085255674 6.861933939459591 11.658406283247793 1.6278289176581835 0.2889958519832765 -0.48566416077572483
Ni 8.702047526325366 3.214682715717682 4.882422860629178 1.6712373665508056 0.2364730994942121 0.3931363286486326
Ni 5.225094853302432 3.6856181857804184 7.172152410114949 1.4133161244851467 -1.4082870467016713 0.010539466078743138
Ni 5.604549850865816 1.6947878342288425 8.581396306155401 -1.082598981503684 -0.5079877639735896 -0.4865373074092975
Ni -0.0675664247217525 7.277412383514467 6.587295222036033 0.1589751651170488 -1.119787160518207 1.3453551830641413
Ni 6.656093613428746 7.680895362615247 0.9168110707148059 1.3063885719929564 1.2628649376787089 0.22207723578385624
Ni 5.50394541467551 6.453050685402642 4.360036571966032 0.6016779918398992 0.44450234182543447 -1.2993162385272075
Ni 4.632602250735746 8.17971218365237 8.751187249554311 0.06149847362511345 -0.8835829984146654 -0.9222860714118182
Ni 0.6277750164741418 5.431101911664683 4.843988279367376 -0.3983548967350946 0.8063334326028823 0.5566448628596606
Ni 0.09153419736169528 5.704542935174292 11.15585465798712 -0.15427930230327624 -0.20970920113680655 -3.257385102420119
Ni 8.139177701305554 0.23835498323692195 11.220495856583387 0.37675120242238985 1.2901307153731976 1.2473989808326258
Ni 4.712355882592715 1.7244291375903178 0.8638402090263898 1.7461850237022896 -2.9123335450938557 1.5052250920813175
P 3.9466932280439107 2.9765055803009286 2.589642109478636 -0.3377282841919732 -0.18942911073153182 -1.0093017154714294
P 1.5612722883999983 7.210747239673049 11.899047352006468 -1.070074366674112 -0.529930586793268 -0.17648463475572188
P 0.3395707713090591 8.894586317472747 8.12763704509991 -0.07200168714928246 -0.6244759635710213 0.13954302453436612
P 1.4354356927232357 0.5329321086247218 0.8547838645587291 0.6157568385304686 -0.10427186003689784 -2.2625818376751807
P 4.066527459789975 8.895290298427582 12.753516277716981 1.1769175869826116 -0.7954201281244881 0.8113349995825317
P 0.2779261232244913 3.3780155601467103 0.8452236179339233 -0.021463569190414648 1.2500137927476538 -0.22484939921235467
P 6.616800360660191 7.537839022266928 10.623463503148747 -1.8694889606699738 0.5672954005949714 0.7651075931838758
P 1.0788137616554883 0.4127088347720388 4.162644017393208 0.5709939324924811 1.1250592075504238 0.20105461078560213
Ni 4.366404820735099 3.78813078087462 0.2546187958750713 -0.9959972850530396 2.3148559644885487 0.4597214727680341
Ni 7.536514426522961 3.159012642841911 9.297474617924838 0.7185490286980465 0.2382317340565316 0.1846229475921401
Ni 3.2166001375288773 4.218485454054037 5.944534674131205 -1.2107877573674954 0.2692569787934524 0.3033204961360647
Ni 8.555137816540055 7.738047500659091 9.987698302837227 2.1045574665071753 -1.2565053140092683 -1.3543298757589257
Ni 7.701431228100369 2.3699981989886454 7.012313534319655 -0.40266535118499036 -2.1109728831152164 -0.19338835248959596
Ni 7.416124420338869 8.610817152323126 5.4661416374008684 -1.92047213658606 -0.27499850926291997 1.8844406968837997
Ni 1.4912169204866117 3.523035636842727 12.47556699722424 -0.3267026225054309 -0.2673623328739009 -0.23895318560358847
Ni 9.058419358896002 8.348769504793085 13.339757344146586 0.500902574992034 -0.3610438189894621 -0.919276595161533
Ni 8.08763888508579 1.0059980473665644 4.191777713434617 -0.28756194775022736 0.9526443719887011 -1.9657338366373374
Ni 5.13423499559221 5.73222050218807 6.403133804251188 0.78071161826972 0.5497144542884146 0.15008609015753507
Ni 8.71056940104179 1.3999587577624701 13.999301353789118 -1.2607034112510158 -0.5867658506147573 -0.7793023966270192
Ni 2.476780994348359 8.393351877630202 7.4878860157770015 -1.0492373753241027 -1.012271853843347 0.8639446553584476
Ni 1.175805663998615 0.4863304219961027 9.90190896058328 -1.626314023675554 -1.9533094948310552 -1.4044910699943491
Ni 1.0008386080002076 4.960898211278684 7.131928235162698 0.20493337701471803 -0.055855159296407025 0.05290996062515403
Ni 1.0825837649267758 6.522476175619597 2.400560235335786 -0.4485330602513824 -0.9509620991902719 0.8127095113325551
Ni 5.8865683265356505 3.003738527764284 12.312650057333002 0.014614664589381283 -0.4768378207333466 -3.293262275932703
Ni 6.865694679823577 2.9042178517281307 0.7006426030439481 0.7956445854304685 -0.10241038134812684 1.6900866380468251
Ni 2.8125521210827693 5.438595603670757 3.8034182830833005 0.5718943328195634 -0.4709610502375953 1.0134512188634286
Ni 5.0505075765033425 0.1770428735244407 10.592322535095327 0.8879227634405998 0.5747050627954812 1.3184506453638132
Ni 7.180966992702068 8.05694161029206 3.262336668615633 0.2778686317218634 -0.49435731767434854 -0.9112295564873403
Ni 1.577324906751697 0.9233303048728704 12.01666960148918 -1.4010607041565613 -0.940353213326174 3.546020999960816
Ni 3.7469108433875684 1.7270412774490478 12.294036245112725 0.4208944725985074 -0.31696045551700247 0.1259521732238089
Ni 6.8639625161583915 7.047896066423645 8.331985116764649 -0.1860375685514796 0.27539883002513216 -0.6508809359271113
Ni 2.7237856804224516 5.261062722350122 1.472555867439103 0.523056485381254 -0.8794849170858917 0.04607236887803033
P 4.2647258872979386 -0.001108770003865179 4.6130408430986325 0.2876629921044659 1.6326494789752783 -0.6990680371552992
P 2.655332795472045 6.647858888838638 5.722765852706488 -0.4807217291687851 -1.2165382866980274 1.3319620495866868
P 4.2517578170772925 6.664161605687449 2.68497687770571 -0.3934163217828966 -0.04742682602339574 -2.119513059375743
P 6.804892956303353 0.6490426516360003 2.1508229916080577 0.8272421577310913 1.2318378931695753 -0.9576955612593636
P 6.389081047585658 9.231098476791194 7.208607508086643 -2.3347694155830245 -0.08052746523210648 -0.9597755837168439
P 8.579397370759962 6.7852741186409755 1.327676586934053 -0.8688552052861874 0.061033875283869075 -0.18057885942975352
P 6.627072924856403 3.4197820091644884 5.314314250129741 0.04722293754270577 0.7739843268482154 -0.17024533871422937
P 7.543044776169787 6.549940695765464 5.171733096925936 0.7910564518391537 -1.560195534779926 -0.09669301924837542
Ni 7.584931642982471 0.46576213633542907 8.721280100753312 2.480525253796322 0.06502808404492673 1.7244951974336817
Ni 3.0260806601729957 8.288681025134993 10.914930144265051 -0.9179105680519418 0.3137578894193048 -1.092856911786266
Ni 2.8177764008002293 0.6676583164377365 2.6956458943343815 0.04063088614748486 0.9183548546782119 1.18248839620217
Ni 5.910429575741637 1.4857425422720394 5.23832599009041 -1.0204600460810942 -1.7489453600562461 0.6754267435872755
Ni 7.522888689883984 4.603081365169177 6.933301861337453 0.5186480719009132 2.1879771656854126 -0.273782891688264
Ni 6.870205715678902 5.33418411257996 10.169690347732303 0.10495268815400634 0.16570811296550816 0.04704887385868671
Ni 1.3222429655116028 4.357429063560951 9.423407547837524 -0.483733005191283 -0.8778766920585076 -0.32980003048383205
Ni 6.409653964699982 0.4131256656005596 12.851562298910899 -0.6820154525483867 0.4022038381675395 0.5076329517373322
Ni 7.922351567216363 5.593508465363666 3.1754765342777507 0.5656028433838969 0.2584516606478323 0.0005054788815088069
Ni 0.9031204937247247 2.1592948466250594 8.015451195911837 -1.366029423584041 -1.1417364110957884 2.438747141418271
Ni 4.955748034819627 8.875365784824291 2.378624744557565 -0.5758715722997566 -0.8837269801916974 0.5079394272341575
Ni 5.820106966654843 4.990456148474455 2.1445325512603146 -0.9419030743117971 0.643890106431575 -0.12365155011509027
Ni 3.2865350876473576 2.8019924067602435 7.9326574778788554 -1.1686347781485293 -0.7721007366722574 0.6526621961972502
Ni 0.512761201687238 5.870404553296346 -0.33957910792562945 0.37496891371098645 -0.4534968320145609 3.8641777897787644
Ni 2.26741150063604 2.72153479394844 4.2320834019711135 0.735983679234726 -0.9255423735655867 0.15718979108185185
Ni 0.18870394752499103 7.754053804474287 4.273988794598399 -0.38823374914069264 -0.6691861619942023 0.8091853002293806
Ni 0.3038798631896528 1.9134480239635245 2.617109408496693 0.8144614610266553 -0.5185583404005843 -0.016348102340720233
Ni 2.681481982781247 7.921508642652022 3.905016629226947 -0.18885344073371993 -0.4045993349829096 0.14863418820235694
Ni 1.405034830963123 6.643440482056317 9.128118104878318 -1.1379198655631757 1.6791023711211792 -0.9713699734226624
Ni 2.8984470604799437 5.56425620410881 12.80049218580054 -0.010480073595717435 0.160477203583872 -0.2570681500367444
Ni 0.3250909946169785 8.738191390611764 2.1892983296619826 -1.394017938377167 -0.20824830032056396 0.47364528193797784
Ni 0.07503881204103438 0.4346804508887323 6.141791990257443 1.105610869017825 1.0804598236734941 0.579433321509086
Ni 2.9272732279989784 5.610607792240317 10.490941867273241 1.2812282706772449 -0.1924668691165911 -0.21996790275033729
Ni 7.357879259233572 6.4102931053037135 12.519045231511141 -0.2516685762877278 0.38020985039495164 -0.4664947869361256
P 1.3095249937880697 2.9481055065177153 6.250222656825908 0.19844339841500014 1.2925460096829093 -2.3402016423421887
P 5.241601354111853 5.5362266466176155 8.626826235010512 1.5752501151202032 0.009502025953164281 0.4775572153978743
P 3.2774574384929056 0.6777687797561899 9.065307256764623 0.8444415523285135 0.4846071802661202 -0.5837036667496657
P 3.7410474230663766 3.7849165520413597 11.637636992498699 -0.5165963315782071 0.8945302414547884 -0.48436883900306904
P 9.534866258802513 2.725916149101558 10.376206865996082 -0.9714728175491142 -0.17916449558073014 0.7478881439817959
P 8.638114940137584 5.5890530069521445 8.518125091548871 0.8237493140864846 0.3374374924244318 1.46735248540526
P 6.650498817419268 1.7147308736467353 10.63600362705211 -0.39817749061696583 0.06289483975200781 0.30611682793427925
P 6.184630157649884 4.977765965472822 13.600177498863935 0.5364740443387406 -0.04856222517941959 -0.678259070829748
