# total energy = -381172.8733782768 ev
CRYSTAL
PRIMVEC
9.21867308520346 0.00000000000000 0.00000000000000

0.00000000000000 9.21867308520346 0.00000000000000

0.00000000000000 0.00000000000000 13.49245989794689

PRIMCOORD
 96 1
Ni 0.17136959704874402 5.894400981945239 3.4542588411243664 -0.8946009467917239 0.4093751591049982 1.6343111829484176
Ni 5.882084835019727 2.4620954883421415 4.42991155083504 0.9206652479789434 -0.6749546890468634 -0.6340654070316694
Ni 8.15950265018912 0.9894401568227966 4.669066049338345 -0.2574625572616856 -0.5515201400385856 0.7514447509848026
Ni 0.30066793681907383 3.127231953029755 0.46078337805444536 -0.30447543567611435 -0.26456394419315726 -0.5485476876738231
Ni 0.7071671598054949 6.366645935952147 0.9404253951549393 0.4400810728292872 -1.0485899715480909 -0.0293357728496398
Ni 3.761172428798257 6.951939475099444 4.672425333724315 0.95387310218948 0.6474508271996398 -0.8473245303032634
Ni 1.6353003765843277 3.099271718280445 11.801368858717469 -0.05768501341629421 -0.4570727222912773 -0.9528510886828685
Ni 5.943582601591653 1.8904087103191385 13.485577982231897 -1.1255065795004875 0.016706771231719614 0.9070949654936765
Ni 6.775742980947258 9.007574458881127 13.30357833352162 0.27661753292358165 -1.094227823991864 0.020012695676501015
Ni 3.7460722426725166 6.328582035760949 0.5631742555147559 -0.7855172671884794 1.4124267799016579 -1.411021414913699
Ni 8.73556829781513 8.321769729667317 9.394448971107794 0.11511805872278238 0.6929848070756969 -0.7813703348996414
Ni 7.296920650433672 4.2116520962100035 8.486257587434702 0.864457333328808 0.2618709707420264 1.1242181997063672
Ni 7.956203257862527 3.5557527417165242 3.7463027094937273 0.22102539748057418 0.2313087816844532 0.610763241970619
Ni 8.574103242874749 3.5275896961645477 10.91665466918749 0.10568545255497283 1.0902642113584256 -0.9251060573591164
Ni 3.9707405186617866 3.8279709322580353 11.09853263141617 -2.9685674278859198 0.2522316478800494 -1.3190057465363347
Ni 2.7991486050267134 6.780711845612566 6.886537600576204 -0.9338889457580691 0.05154007686082091 0.8073158511208096
Ni 5.522980652881692 3.6743878426030663 1.9099652028998138 1.028707630801867 -0.7356661479943073 0.2979777437669126
Ni 0.127308950169637 1.7066252484126887 2.8160648697035966 0.14119110166075038 -0.03256919218527294 -2.0175130260921574
Ni 5.442768980427438 2.6936593316220434 9.355779404110454 -0.03091931528667578 0.5740257773402695 0.6753406116313724
Ni 3.511125146457238 6.28685832244892 10.54623272239343 -0.7986242368840826 0.3677294585397538 0.011726801518624964
Ni 4.426779045801141 5.645552127074517 2.4929881829245404 0.21431147579550833 -0.042639431937081404 2.1899569151196023
Ni 7.081378860564354 3.851045270397674 13.035160079928234 3.2576694664297574 1.015115236829413 0.760904867956438
Ni 2.312439553320607 0.6793157053957956 3.683697780312704 0.5184164155060814 0.13093677092259384 0.32458660460369265
Ni 0.7617997807071901 8.229721281275669 2.634429358570832 -0.09040204403334108 1.1573345226443619 -0.16476117567120657
P 0.33237464021398977 3.1319519135281553 8.910325757135675 -1.7690706700512115 -1.4313377578735478 0.9430754973533435
Ni 4.958300066223503 4.344530046647382 13.099288855731105 -2.3421176284179794 0.6198574909624034 0.9073914136881729
P 4.330277978423697 8.117179723141945 11.215822727934125 -0.29377270454662957 1.1800445626473677 0.9005021427675072
Ni 7.27498020905439 0.5889588834718356 2.3614367995100527 -1.0234417544172374 0.07398143658347259 -0.03844390579849508
P 1.1420368484829824 6.539486833187501 8.555959972841737 0.2504429314107429 0.6005724174805462 -0.21075975388850798
P 6.5942273125615225 0.9482050331717358 6.162006148593392 1.0621980492498286 -0.6091483320750154 -1.7391576845418628
P 3.3440920131163994 3.007066552450373 2.024233418458051 -0.9250726330180198 0.38997310042930255 -0.6592614466813227
Ni 6.789349742071551 7.5965090806621935 6.302247053034817 -0.5164397513956848 1.9685239977879647 -0.4518281860628864
Ni 3.314158982377523 4.953349638903892 8.46580319611859 1.3353579626421133 0.06538546738434546 -0.12926683941933864
Ni 6.535522803862674 8.461266687209873 8.431059861887398 0.5482370984119397 1.462475874039249 0.2582385161957617
Ni 2.919378536316035 3.1941134245451694 6.391472743800274 -0.6338995708777663 1.1744778671928675 0.6666821646254261
Ni 1.7052240101397262 8.394339122330216 10.712446315718044 1.2167398611858722 -0.3415332597603602 -1.231213372211699
Ni 0.5337749859338038 2.2790863949549602 6.739645423674631 0.5794927139921117 -0.21021853667305732 -0.03938544377615798
Ni 8.740767629301649 8.730627089168369 6.818806167424164 0.12818749031223084 2.0624970470020156 -0.08784996703544871
Ni 4.030846265633599 8.56371379857456 9.09788426557356 0.21134673674022955 -0.14662924195718616 -0.7502607579790305
Ni 8.13048226806224 1.7219374640139433 12.251922275512003 0.07970059845543692 -1.2045458902228416 0.7760651206366441
Ni 8.034939942661032 6.594983243735095 13.05704428740314 0.4813845595637645 -0.5899020822508937 -0.35092318561569236
Ni 4.141129248919457 1.4930101611686948 5.482498694802349 -0.717672539630364 -1.3411290607979354 -0.03562032030677091
Ni 6.474568938988805 8.097276608462167 10.79515532664694 1.0686659163623597 -0.1518938327902352 -0.42788350232183087
Ni 6.953746334977737 5.525801566773314 11.204192450268536 1.6598401804574574 -1.053933238137875 0.820125087070336
Ni 9.038383263540606 6.431453206076663 10.59031272848552 0.16194684615086302 -0.8066982721414687 0.6871800274684616
Ni 0.15477690778884137 6.6056861229121315 6.344775556486514 0.6975482580766632 -1.2631382459447535 -0.711901955695174
Ni 8.944675454036238 8.414703170652414 11.897125057328758 -0.7136760168764612 1.4198387560950125 0.49833867091959977
Ni 4.080995845929099 9.191016829892185 13.503388458175078 0.8769955750051348 -1.0581444480057456 -1.4820537961711766
Ni 7.313541917579405 0.9675826834991513 10.158904651462619 0.3217265094470782 0.5350776782118463 0.09246998230596333
Ni 2.2619765381482604 6.4346613042279195 2.763107281658462 1.2406120398177793 0.04865607044480653 -0.5776806004840374
Ni 5.3043229515896035 8.972746312859732 3.9297192682208095 0.0905614524293408 0.011533968781528523 1.1078556991879436
Ni 7.9704461074133635 1.606418274550173 8.06758695068649 -0.7815405419289185 -0.29756431037857783 0.3334738797909934
Ni 1.3340433665702387 4.092629811063827 2.466664262605827 0.38651162424326335 -0.45130445234893246 0.7436990456011127
Ni 1.8807936345382184 6.601463970747547 12.208045080222579 -0.13289492309022918 -0.03842307986288866 0.701680535077482
Ni 3.1366442180080103 1.162234960693909 10.425218282044707 0.3536668097991006 -1.1326997548148168 1.52245431147541
Ni 8.184641971046808 4.8840897497935805 1.7607794201935498 -0.37789405777758145 -0.6142005497869423 -1.055100261862783
P 5.922379654040247 3.3943061241218384 11.348237900994512 1.788756835626229 -0.9801621177929958 -0.5199716758083432
Ni 2.411024040761798 4.304438038429527 0.3860070351116294 1.013699587428809 0.21740656978106426 -0.6630317123570324
P 9.534320206767998 4.326415354500202 5.436031052442515 -1.149059170009447 0.027079629825611427 -0.01961108936270816
Ni 2.1941916366936995 5.304359826280997 4.832243011826683 -0.5690985152419812 -1.2715084722863197 0.6092912854107828
P 0.6459597814282942 4.879415882659423 12.369576509607471 -1.356476232677967 0.33058550249960483 0.30567459819053805
P 1.757097482257884 8.120046730397807 0.3904983725233882 0.8104795935607719 1.0360756411311642 -0.08127385647982777
P 0.31316200413056117 8.359796755167121 4.713630957622262 0.033150261499723555 0.06637842742523407 0.8322049010530054
Ni 4.708197471845392 1.40554339318272 2.2828430041406986 -0.024816287712731457 -0.6689501347239962 -0.26050057275706107
Ni 5.366346182513891 5.37992528761964 9.795310053780112 -0.3239636263077131 -1.2307629149378416 -2.073971109079886
Ni 0.5521708476028608 1.291738876868759 10.334548947111184 -0.23070997175818977 0.30620707365524036 -0.5013275783445947
Ni 5.333942547451633 6.686220448916082 7.738991044473074 -1.6937080368494961 -1.8794704973627179 0.28511708575416056
Ni 9.09304999353184 0.5473716065179642 0.6602422712723784 -1.9314414911133706 -1.1926221422020622 -0.1900505463656146
Ni 7.926353195179287 7.530484945721684 1.806734504343011 -0.5752349671570222 -0.4843115034025724 -0.4036012327356985
Ni 1.4638607176219356 4.907837051051155 9.99663111891343 0.2869711082437638 -0.3138414502720466 0.7886920653720352
Ni 4.336030430281123 8.494841093723883 6.322823130832529 2.1353767658808773 0.20725251206619788 0.7405077923573247
Ni 7.365092736147867 3.142562605976707 6.318222091213874 1.8542297205180582 -0.9950837720998346 -1.410369640262313
Ni 7.08647678664954 5.425391782108133 6.409863074265622 0.8624235907282308 0.027426728752385023 0.028685540860150596
Ni 5.394665945504291 4.841499481233798 4.898221975270235 2.0626880799668994 -0.6718541957446688 -2.9887135638164914
Ni 3.2833870524094384 8.6348635156188 2.044984651039884 0.15073760769860492 -2.3545016039046285 1.0015272137323332
Ni 2.466216235105393 2.8285653900860774 9.288884104585767 -0.2853711107464956 1.138064618671156 -1.1874719654596904
Ni 3.635549573892599 3.3921581733481525 4.155502081757456 -0.1360452957937528 0.032877724564627245 -1.4022606380019333
Ni 3.3918078637799116 2.02828318144037 12.766592483834705 1.734389316618942 1.4547466237157913 0.9114005348475659
Ni 1.643163904524045 8.628410444624894 8.159713757797348 0.45495439039669394 0.7550856901714996 0.14984466357069032
Ni 1.106646363417831 4.4985832886176205 7.572966433941854 -0.24307055020607168 1.4395981981101271 -1.2600403237457203
Ni 1.2391371295955749 2.52835930877671 4.493461393983028 0.40927257208886286 1.4485955165127309 1.1508255178812503
Ni 1.5730466788388293 0.7861177178140835 12.533496497127393 -0.9704559462488254 -1.090007101042297 -1.305787190963532
Ni 5.372808472180645 3.700790121640991 7.139089596330143 -1.1541635811155477 -0.2567799293723642 0.5726386671847558
Ni 7.519533162377741 7.361276205588614 4.263630661198634 0.14185598893825893 -0.3169440004567703 -1.5849197769994834
Ni 5.365571813994622 1.0466881152115934 11.328700767626819 -0.663811013725218 -0.25728103737849883 0.29377013344346825
Ni 5.2887802691671375 1.2257977099838857 7.638014311427714 -1.2591934023643925 -0.41079543649129246 1.7402131223895707
Ni 5.51420447632998 7.994469968856391 1.7649886662161463 0.2126541426977434 0.0668168005142333 -0.2385181549486989
Ni 2.2089046385598055 -0.3262193323530881 5.7957261515101335 -1.5679265848755963 0.5212281739232637 0.036474183666633964
P 7.2807879729489065 6.4564634655144735 9.152528870749958 -0.5497787318674467 0.13344308228421536 -0.07162450631552181
Ni 1.923079686894001 1.0485871618183715 1.2600699700325217 1.650781669799615 2.1745691198096226 1.0265306777552063
P 7.596297051186679 2.521731082998684 1.317769643390892 0.19062390237058136 -0.2503814820451881 0.6873309512240292
Ni 5.7315254700590454 6.845555990428474 12.499818841477481 -2.54261713803106 0.8032599358838811 0.5056719713562194
P 4.204221845894163 5.258782707718322 6.356945126513737 -3.1325117640827855 1.2321268851649037 2.061823675084075
P 3.0460523199264147 1.479126839858948 7.709092122823737 0.023985050060687726 -1.7006788117403744 -0.3870908937855011
P 6.539394646459017 5.443515692928162 3.126243711300403 0.9517234028363285 0.7774774276031384 0.1086324509984387
Ni 6.198958276839069 5.85746175984155 0.9004827294372293 0.2568586051290995 -0.15031440411825725 1.2478862048816897
