# total energy = -340859.79184889165 ev
CRYSTAL
PRIMVEC
9.37542922020416 0.00000000000000 0.00000000000000
0.00000000000000 9.37542922020416 0.00000000000000
0.00000000000000 0.00000000000000 13.72188834667815
PRIMCOORD
 96 1
Ni 2.439092968436678 6.048492665749828 5.542586056072191 -0.36458268538065597 0.18211817889241538 2.8527217469684936
Ni 8.521187173246913 6.741758794606331 11.19933859134259 2.5754871492862033 -0.2929247547240375 -0.5161114215219885
Ni 9.026250931819211 6.7885234365799105 1.331943819883985 0.25798294854152987 0.3606167587543725 1.8408309306136492
Ni 0.5960541762310747 7.519272532278908 6.640584785505756 -1.2168164800600787 -2.0973455221397685 1.8460626113262333
Ni 2.6875043464903925 3.322961577510271 6.083819283824496 0.1206580147044051 0.09627495787435032 0.19734630869607947
Ni 9.166854246910981 6.115001962093165 8.963398052951757 -1.4815447177452419 1.756743515944426 -1.314803021308897
Ni 0.34393950355435243 3.6882376833508044 11.947991944615152 -0.9509803540227171 -0.8549342243297212 1.2407596211392373
Ni 0.12121117686840473 8.111780921101321 13.125219615493407 3.7054929022086247 0.869983662463676 0.05815038308848695
Ni 4.668757594370191 4.757196020139389 13.450510452377824 0.4327102342865129 1.8039962782838028 -0.9034967066194569
Ni 7.6896709620843975 2.2214048726097912 10.267526848816654 0.21315139404913616 0.11766062263897802 0.47803492636524125
Ni 5.571930212630551 3.286875549652151 8.885115092336083 1.0218764668126468 -0.934008759165385 0.8939661414212023
Ni 7.479417581791803 7.72303811540917 12.85064516408535 -1.7840434893109596 -0.08297489833133452 0.9301271647227917
Ni 0.010471417125158273 9.531905342445308 1.677363703744598 0.2444206364760629 -1.9769335620078985 -1.114874296597622
Ni 6.055786749842739 0.1014505842686231 11.129591021675742 -0.9003105955819913 -0.7826461162882714 0.6545964371054855
Ni 3.466799415753783 3.755112621441729 10.89796541246515 -0.05743484507870108 -0.0917243623891904 0.3244001996244994
Ni 2.3573110975594687 4.271951919372251 12.984789745846005 0.725620333722531 -0.3742975986755747 0.6870224188446749
Ni 7.102469066316726 3.1312996737681185 12.714167037940726 0.943758382352981 -2.241322414075772 0.0005507302971474386
Ni 4.898746253603119 2.523171819523095 5.3316951465786735 -0.6153716872769079 -0.1948096583171548 -0.30125050098091344
Ni 0.29964903740612053 2.899998454415643 4.861143281263979 0.3144052931953166 -0.3801735978403775 0.09497320834379128
Ni 8.681853907308902 0.4641268835295105 4.668831660262651 -0.8978307665829312 -0.49245341578341634 -0.6767179515948731
Ni 1.1807603326857221 7.879748418253668 10.090514053551589 0.13182174463070848 -0.4598551701324209 0.403902308915885
Ni 0.8863737238160431 1.4905901489048154 13.461982227822665 -1.1055046824572639 -0.46631249572199046 -1.2905140668545454
Ni 3.1649293391168003 5.596831353184245 1.8932910939254068 0.4814424093848934 0.4424503443924122 -0.9845818441272461
Ni 0.319711518833398 7.058142035993735 3.793978464124461 -0.5966226888041789 2.0707443746124725 -1.8021108883356316
P 8.583636908649078 2.502564625646206 6.711897114343692 2.3323145262846285 0.1404079436378227 0.5004055807509575
P 4.1296985287016215 8.336575592432613 11.27638774544589 -0.03250594304750531 -0.0802767826738811 1.0460147546217469
P 6.690765833961926 6.762206606182991 10.231644267777062 0.2631902037740822 0.4389402743566247 0.493726111848253
P 2.8436990007164975 2.079245236233415 9.476377486587866 -0.43804861578029075 1.881341746243502 -2.598637619260737
P 1.5224759843803848 5.7021643027779 7.807507921902624 1.6653886210795126 -0.3365532900472656 -0.7300647426471297
P 2.3610518939001777 1.1388615385838936 5.806472517935365 0.7270544950658963 1.058419556044003 1.1366407417404358
P 5.494611046159801 6.08101603042632 1.5615508991393021 -0.5002577423191836 -0.2359377958160324 -0.394010760833786
P 7.671932649611661 8.15693298921374 3.3590082285648046 0.831456195812439 -0.33419841666184374 0.3532063252229143
Ni 3.22093815450376 4.449794440141458 8.702504228161148 -1.1965944965862487 -0.9930122342827867 -1.2012319953582602
Ni 6.494106826336069 1.6808082365154666 2.700165863929309 -0.468246993740542 -0.04840307389373599 -1.5795973363453055
Ni 7.000539397604467 3.7455965605750126 3.7632139300081624 0.28742542217236305 -0.7171470061441971 -0.4517610802703768
Ni 0.16074548766916344 5.348326220836277 4.989498535354491 -1.4594913374896283 -1.8445106934580813 2.0502043456775914
Ni 3.5035792253893776 7.021034086328253 9.360276856299214 -1.9321891679126721 2.0192276947904193 1.597543893521397
Ni 8.2735164541178 9.083966075361582 10.078700074932721 -0.9154965592938102 -0.5839713185887556 0.09008374146197388
Ni 0.9889577975021892 4.670445171666751 10.107502331670297 1.858896272755792 -0.17494762928590513 -0.8379993962475956
Ni 4.1393083438625915 1.5491678319543176 7.679235171591055 0.394210792659734 1.1040283550220533 -0.7735613803781839
Ni 7.059960869302251 8.540219294980345 1.3107150350361956 -0.20716046657302387 -0.9143891851622445 0.8430467288635158
Ni 8.803800117844254 2.04720939388704 2.71084166541594 0.5800964090143816 2.1582827239447733 2.0189135059841097
Ni 6.83353487325095 1.3750754829552452 6.690696455784179 -1.3591398955530594 -2.3774623264658605 0.7472445968605259
Ni 3.943765012338349 0.2425911114664655 9.623571728565649 0.8815297154300624 -0.7208051717220748 0.22601616582694625
Ni 4.010293059540536 8.145326207585175 1.5315138983464092 -0.7102042562777768 -1.3151871441211929 -0.5915768988501554
Ni 6.363122701834694 5.820229085531162 5.909550676752227 -1.9082794511746104 -0.12369243065535472 -2.602275473123641
Ni 2.9311436309666106 9.168504322489841 12.960199869549234 0.11977252677565825 -0.08539944861242713 0.5193083311927316
Ni 7.990772253508503 4.424846422440638 10.521985378849708 -1.0521823168850395 0.8922625284665342 -0.6949997806231966
Ni 7.442797154456438 8.250321641719518 7.516590221920319 0.051556789031369274 1.0559659522971878 0.03797725057472169
Ni 4.048882327055221 6.2237006908505155 7.4021218538946165 0.9156739654119392 -0.34289980109058366 -2.58780093365655
Ni 6.885887271162029 3.5633569634053233 6.028053292059652 0.11137324696836948 1.1755147930978143 0.030831383558559806
Ni 2.2156671098014855 6.734455335083994 13.56086206934286 -0.40200689166538506 -0.10426620360994303 1.6015393878340352
Ni 3.562466297609916 0.7225427823230014 3.6015843393441895 -2.1472380360948375 -0.7021330492338682 1.8171194459293218
Ni 3.9896483639459457 8.934737365198503 5.769038303325883 1.272362592756499 -0.32181161296171673 0.4160044914960578
Ni 7.925650520720116 0.4377584882707517 12.436119927473525 2.3545903069636935 2.045576359987277 -0.3068737607049618
Ni 5.453612293282806 8.665503158391116 3.3350915081007715 -1.0818381920782594 -0.5997758897211799 -2.674043961216195
P 7.900149352683201 2.0866799517677066 0.8849936606046335 -0.5527990067510092 -0.3765007769744806 -2.080543362980765
P 2.9666765084886357 2.0529096549776447 0.17696873074676564 -0.1551254523536554 -0.13653869049040357 -0.8562907383576156
P 0.10811276441826718 1.6155458722856997 11.250329676901108 -0.22544718069735367 -1.0351628995089075 0.1316235125769733
P 1.1530465633044276 0.5834282854239741 3.460784140234487 0.11257343792405773 0.7102392232807704 0.006989543943955705
P 4.959883428885738 4.1497150705247146 7.067129322640863 -0.7524971035087169 -0.0101784831948986 -0.9817438604578189
P 4.717050431340099 8.291770415208928 7.942174715082271 -0.0034115967847102536 0.20214295875377444 -0.75825354637652
P 5.639367676486996 3.8690709661066935 11.36907886600242 -0.08260671635863837 0.406131712467036 -1.329943476494761
P 0.25239593555948237 4.582541145374797 2.874571352271188 -0.9023641356769105 -0.4035292418471825 0.01415957932983368
Ni 6.924851555853727 5.428054872669338 12.409211507479865 -0.18371097730083197 -0.21082943078417882 -1.1917291980741476
Ni 0.6296904043803543 0.711665409103726 9.017873985627674 1.6909525855915457 1.2262035777019333 1.3912092652837782
Ni 2.2236080985247453 1.5444894926710748 11.328709204439864 0.2067660593480826 -0.34985514936249423 1.5229171100444416
Ni 6.202943490102821 0.8135678890706503 0.04759718010654805 -0.9659801698656589 1.1480443555916875 0.22894825187207668
Ni 1.6383375412186925 2.2078198753724787 1.8272618195686472 1.6800719341233 -0.15807810722407614 2.4676730804240017
Ni 8.067519518784307 4.107825651852311 8.121258542707393 -0.8129609652217289 0.21168175148214513 0.1601804982790596
Ni 2.5162902543248986 9.157919462668637 7.6436816681242945 -1.3734925647303056 -0.37146218610930865 0.23925606155598797
Ni 4.370328300332306 1.0665957285734005 1.607656448424279 -0.05270864324762536 1.0002246928708258 -1.8871696657791885
Ni 6.32941803305061 8.381052629626408 5.271222689242311 2.20347140466627 -2.0726945563603074 3.099291311466759
Ni 2.1679367985970974 4.637199898924508 3.8618059458450005 0.6841237571406411 -1.822196089121281 -0.9302762887061462
Ni 2.7455476300626507 7.326419948999737 3.7740275503073457 2.121895700675307 -0.4581649269141916 -3.498508813312465
Ni 7.257904310759378 5.943919125939626 3.2998258303173684 0.7217145709102216 1.165586992461141 -0.7277312094179468
Ni 4.938244937772062 5.109487156225832 3.508837903754049 -0.2267928960919707 -0.3593119239000199 0.5858065720252814
Ni 0.9539499440279829 3.4810594439097198 8.002111835398447 0.5377984195771189 -0.7288987473634867 -0.6916863999792474
Ni 5.491029632119323 7.01881210955445 12.805636540043137 -2.4379786386833624 2.3378557678178318 1.4603595990271947
Ni 7.426990180445321 4.558361912886854 0.7958117632820056 -2.326594335971399 -0.5785138950186102 3.5338982485553525
Ni 4.683786407739005 2.521052972472969 12.730728734020584 -0.2581156174646522 -1.3033495280563165 0.4460565736864318
Ni 4.951736180715121 5.441930508218837 9.90445959414873 1.8534067103961307 -0.6440438584006198 1.2981340452936483
Ni 6.525280129175313 6.284350343803017 8.155947631581137 -1.7937992831461427 -0.9211977234436458 2.1343328979973952
Ni 5.088992467502046 3.5182986495871558 1.4628763795235211 0.0883670158811833 -1.0818667313233497 2.1917741708339995
Ni 3.616468771099854 6.357375563596963 11.901021043194216 -0.5928837905870369 -1.2383091027162156 -2.479078494047466
Ni 1.6810613731099506 8.585155728215982 5.132054752395558 -0.8604888355993633 2.282386273995617 -0.07605837371715932
Ni 9.176801577531263 0.38320848970237414 6.989038558328408 0.3290487541401043 0.7632571702386984 -0.4907001805377355
Ni 0.36088090452593535 3.7547938568412675 0.6861642410668108 -0.5683922332035759 0.6717577793761205 0.7866776060451678
P 1.6632199309135356 7.917812661720534 1.4879875296963423 0.2973339395353266 0.439142877285734 0.8661864002047727
P 6.368194809153802 1.0350567839865685 9.241788304135927 -1.1645554658728332 -0.6845608446780598 -2.0950551834436952
P 4.570568721998643 6.810246306558414 4.980688444323502 -0.1540998393026185 0.16891582126952842 0.03921832207067439
P 1.4699454533102247 6.028194861043976 11.702177560512258 -0.8739166789694949 0.37454750990285174 -0.8855506636639974
P 8.78655870313106 5.549522936303997 13.462819453670349 1.7380189429517292 0.36791843462210827 -2.933427132539361
P 8.127015993917492 6.1572476470837305 6.856512175686564 2.994926891716055 0.3877619517105967 -0.42232477728713075
P 3.746524728088121 2.801378312290529 3.417902801128883 0.15625905173746638 2.459692633321686 -1.0257220658109818
P 6.133387179196249 0.9012572180287646 4.552634463050916 -0.12980342864909902 1.630691069697327 1.6367251917065488
