# total energy = -340856.96191449434 ev
CRYSTAL
PRIMVEC
9.36880050531148 0.00000000000000 0.00000000000000
0.00000000000000 9.36880050531148 0.00000000000000
0.00000000000000 0.00000000000000 13.71218655239190
PRIMCOORD
 96 1
Ni 8.500996545717362 3.5206265603481275 2.1438045141060185 0.8818595879656553 -1.8310810503157366 0.6955088590491312
Ni 6.174301804804662 0.854899291028156 3.434450460302372 -0.7990932061007012 -0.33188236693415746 1.9962975683568072
Ni 7.18187881503719 2.804053860037238 9.959256889631595 0.0926306762535437 -0.19740801517195034 0.4293760277069573
Ni 4.133421058379567 7.897514635305835 2.316879985590143 0.1867129973519494 0.25786493490642687 -1.656376390278573
Ni 5.8986154835737254 5.520734287334733 12.96997337066743 -3.1948579304201754 -1.6039770507412505 0.26554456293887174
Ni 6.687758911956893 5.346933670697911 10.445929533256088 0.26968738146265164 -0.17461312876462184 -0.5955569665438258
Ni 3.2437504014635397 3.0929408210634035 0.7096135553570951 -0.7254015328435056 -0.07909407521968959 -3.476995621831038
Ni 1.5267116104407603 1.5588372270893325 0.061424666209691864 0.6161800421108161 -0.6846724305552595 -0.9782638723290185
Ni 5.441343072554914 7.9694763913506526 4.327099458872695 -0.752889196740813 0.8428708654072838 0.3308405559332044
Ni 8.696710786542287 2.458944727675966 13.705262123582244 -0.2624610389175415 -0.8788529399288478 0.3604995164502178
Ni 0.2255772921714772 6.826454633410804 0.822249958435969 -0.15778577279463796 -1.456179756617892 -1.4558902504019315
Ni 3.7809574176866736 1.7728018911371861 12.57340329134574 0.7801207787632564 -2.3914858944384623 0.0012608689902946027
Ni 3.286219173778494 7.310559288839506 11.000862319878493 -1.4963835825302874 1.0207927468301645 -2.4927739892566874
Ni 8.237705147445322 6.422790498409236 7.701107103249648 0.8315891218458775 -0.6411557382195473 1.5533083207417893
Ni 0.825687371310965 8.357382204041665 7.814245674031164 0.45682641060842616 -0.4035734648215566 0.07990243005359787
Ni 5.050457981329563 5.690796752602997 2.7910883771326134 -1.4514129313568682 -1.1169126671838892 -0.30972974209651816
Ni 7.6936214317121125 6.627892277257454 12.561350329602261 1.6111200895439348 -0.015968350403798307 -0.5340451231822738
Ni 9.112282666880787 4.725960209897675 10.55392744324581 0.26551345259062015 1.3941184685107733 -0.22849753748790325
Ni 1.0032579932377794 1.2790473712733634 4.414350160326905 0.2937271960206748 -1.019478141783799 1.7582625236921139
Ni 7.449751556715807 8.368428019739731 8.904419902548073 -0.6418764184356559 -0.5316493692565877 -1.2791855292156036
Ni 8.928953980214336 6.570911233088128 5.3640017513075255 -3.145395047803357 1.1765961990874512 -0.977253428786633
Ni 3.6420649514238903 0.4639973359620453 3.777186475516638 1.285321209799696 2.7627717028709062 -1.5236853556690337
Ni 4.653042836209766 0.04619661800304587 10.665338407229427 0.2627274052050508 0.6322682059219304 -0.4881604448350173
Ni 3.6826412260535104 8.485294436209339 13.057648478780779 0.24340967871304534 0.01889709401481907 0.48045561999159186
P 7.449845244720031 4.039217770131859 8.26167428644611 0.2538416726796467 1.6494724640698883 -0.8688690892432583
P 5.9774633079290425 2.527721091577152 5.212728415286478 -0.28501141341423175 -3.7697951638311205 -1.5464625014645494
P 0.3587332419355953 3.4810527473637096 4.370718719879526 -1.812326138305737 -1.4287036626848106 -0.8910816207845557
P 5.856587044878626 7.9114835167357045 13.351610518995784 0.1280090557528376 1.4674170200946084 1.2203229505514401
P 3.092875239460447 2.6238637215123073 7.103667132230558 0.8738516300595143 -4.7956763809277865 -0.09478346093048838
P 5.501818679281811 7.298051940275538 8.999130042898637 0.8643552605333049 -0.49233154549357144 1.360530862363315
P 2.095013675265997 5.264891085398539 10.550526568692462 2.4182263957571 -2.877642935690205 2.5870190611852024
P 6.705850065572638 1.91813072329019 1.8377895121475347 0.7515370535882928 2.162177173903173 -1.7485422110805564
Ni 7.619607908374778 0.4618359537045867 10.519715394743157 -0.9572597592735256 1.6504466550576995 1.9861288553539214
Ni 5.44684255840289 2.9384024580951342 0.09175522069732307 2.284836535308323 0.11955141190378765 0.0006011239191086421
Ni 6.813759908838387 0.5969303082761092 0.08484104598555689 0.7030270218030473 -0.3153069790739796 -1.2751504399142815
Ni 8.85791973541134 8.506674038773365 12.30070842808969 0.49670216375744136 1.0132527296993776 0.49528445747430827
Ni 1.9466868269778097 1.5204813581598329 9.212367688033709 0.8093681056641481 -0.4959809693207006 -0.5120629624842278
Ni 0.5073495861568361 8.999201245781848 10.308945491639358 0.5152418744328418 0.15997043915078257 -0.9478366661874128
Ni 5.952486086002798 4.441195521057386 5.492594158385869 -1.1116334210628211 2.2148158831448113 1.9235505184010682
Ni 2.871780918291111 2.5829876452691694 4.888421767383209 0.5371448451535201 0.7941559167000839 -0.06950463175904159
Ni 4.3109223511832555 9.026708043822152 8.033037144056664 -0.7625452317733383 0.10959044403633383 1.038479108366334
Ni 8.102710102158278 1.8552473348547234 5.675035619652315 -0.16851087252162592 1.183765977363013 -1.387505848290262
Ni 7.538118082300331 8.489922623618028 6.602074673933315 -0.09412680118309595 0.23726782748136557 -0.856317477830493
Ni 5.535714999210226 0.39266516330561524 5.816352731464427 -0.16088343788335516 0.7877926934862174 0.4613075863082314
Ni 3.532131447266893 5.7988190214738164 5.526477361993693 1.920927478955924 1.8393985690424965 1.9374928395137732
Ni 4.724592365035997 0.8643046297722509 1.2226228338491316 -1.2273819142807505 0.06639051161009211 0.8202089050333939
Ni 4.308608257478911 5.1071485926857925 9.894741456162537 -0.6450306477939214 -0.18824408928449515 1.9286266473723948
Ni 5.579261183573761 7.227982681916054 11.459329252951168 -0.36450838049929485 0.1627138062238746 -2.3128566746703325
Ni 2.000801018217866 5.314976692456942 0.5811907235663974 0.3090789958863967 0.5000790506494742 0.7164636069239274
Ni 8.33236750691373 9.347102280669008 4.400309139133784 -0.24724499329873545 -1.7911695588327796 -1.6261556437208187
Ni 1.3152390473052777 8.41880405961123 2.08404655749148 1.3787674399759997 0.5720537412155632 1.4670005013824798
Ni 1.5097072376740184 5.141503983834907 4.786499524467445 -1.6100610521518015 0.47910270550812323 0.737953144256271
Ni 6.684554782212415 3.9637520827290444 3.4953326729676037 0.3019040754045123 -0.7431169478453975 -1.702681701103016
Ni 2.999899264068079 0.4453946458432337 5.9826545602431205 -0.6222126214581414 -0.23110206499028588 1.4248706620919656
Ni 1.0813282071580337 7.922576176435881 5.112328602439363 1.272562624582447 1.912227894299397 1.512190724765873
Ni 4.398089670313706 3.7397628022291722 11.778329412295163 0.6127720448705318 0.682085900775006 -0.060415524973579826
P 1.5303373362042474 6.277011963835953 7.089255106540707 -1.2045906274178482 0.924393347562808 -0.5007547365602601
P 6.503512082849042 6.287804821922613 4.112901511694322 3.5499673862030727 -2.378647090802581 1.2933057706670694
P 2.6576850910373424 8.126544330432983 3.8987176177165836 0.21883867424190054 -1.8681602145562213 -0.9824138899416499
P 8.39733076904298 7.239852952051295 10.397909746690836 0.7536397017535925 -1.3163554533976813 1.2136627649224454
P 3.361478747572013 4.467540587845309 3.985104515771844 1.6706907500187163 -0.09481585683032058 -1.2357027754416203
P 9.380230358962782 4.599893631413223 0.4367313160925966 -1.3868535594182436 -0.2655864719204007 -0.4576422216415022
P 3.9686800717512516 5.965611775394647 0.8409163563976533 1.6373941927491156 0.9079639983621912 1.626079539067245
P 6.004717148357942 0.873354890980335 8.701438283235454 0.004774281460191777 -1.1904451891554013 2.2297815033157082
Ni 0.6601875118484317 3.366341154991264 8.808790682876067 -0.6117441178266497 1.028755453320667 -0.0028187003957177263
Ni 7.730337760567684 3.971799882291927 12.304396924816007 -0.9063580873276519 0.10753844660331156 -0.4570691227468515
Ni 2.1117650904213328 3.837488759435721 2.3719066979913452 -3.1617192388846775 -0.7773432160181194 2.1533405494481492
Ni 1.0299215992400648 6.304153378659784 12.331822214292638 -0.4073522151376984 0.7849228281375901 -1.1527214493523825
Ni 5.001768325534104 4.055491376465649 8.009823130369924 0.7216726619286925 0.7352151764998177 -2.1227909587960667
Ni 3.5066389413174135 5.852652148701199 12.536736617132407 0.28156510673684415 -1.4143270822481642 -0.003898820833773931
Ni 2.52595038829731 4.405013213825894 7.458154433814699 -1.1798309039746646 3.2991423888625637 0.842005174972879
Ni 2.4504753320940735 6.126839461864544 2.7064562553964775 0.15474647174768189 1.4379048695681043 0.999157685058892
Ni 4.672089607468602 2.503399685680479 9.546081548441157 -0.37290251810026104 -1.2100076846683614 0.9898778024188629
Ni 9.178988525888613 0.07955423190716981 0.7592260379941654 -1.490628168103749 -0.17946300065775544 -0.4616698547436565
Ni 6.211411623277978 6.362577218094165 6.532924494895273 -0.09378792978643848 1.4748459655688277 0.3359071718228344
Ni 8.793696608515463 5.460071304599386 3.1207286831163827 -0.11529495062027886 2.249597509600371 0.658892236267362
Ni 8.877078932275245 1.266493178707284 8.476558029815408 -0.2417991396928158 -0.3183149126623679 -0.49630492831902273
Ni 6.593817950121013 2.165832437659277 7.280458269962224 0.09316443726982665 2.131799075831948 0.6241005825094735
Ni 1.0679870353564684 6.533436031398339 9.52688393949552 -1.4342526175274977 2.924198414852241 -2.4155647897645363
Ni 3.7801798072516104 6.4052708416192585 8.205386533508047 -1.1917808772476897 1.0128045864183655 -2.207285121985405
Ni 4.421174394554616 3.3241815530902508 2.453671966798213 2.488073755567541 -0.6799886519263452 2.2460889822264805
Ni 6.589555145928799 6.849820421664387 1.3454768506687267 0.1797648481688904 0.6133505430818211 0.39970266901224066
Ni 1.5466952617418406 3.8956315348574293 12.700761827408448 -0.051811328244336576 -1.725617741073899 -2.511511417765191
Ni 0.05596452932348952 2.5756143993367036 11.22748329641703 0.40054239130471664 -1.9967318276807484 -0.43630129407188084
Ni 0.30741470074159744 1.6829363574850706 2.4236018649623254 -0.18417069054606994 -0.6619227955635697 -1.3870291657641596
Ni 8.672464331048994 4.665344071164441 6.1525896098256405 -1.1411147183513894 -3.2080687726834944 1.133529449804964
Ni 7.150071737602982 4.642062602114659 0.8544926850898218 0.10565845597177931 -0.13929902684436007 0.35883267027075616
Ni 0.7040138233445984 2.7726871162228846 6.4451941108594335 1.7656953258210752 -0.6030085377258647 0.799890505191016
P 2.4157545577284836 1.5875526003841336 2.093987791619739 1.2280308607186592 -0.7256108206408342 0.3905305155946694
P 2.5954106746293353 8.842676697124018 9.670546998933414 0.10729804845773133 -0.30546299640036423 -0.8179609895394816
P 6.252831089945617 1.858573259004692 11.898530184835122 -0.44137073817498823 0.4305715906769552 0.12589895138837026
P 4.479420226780972 7.687447392233719 6.363291120686356 -0.09944538518253196 0.6586595514312656 -0.6013103240878354
P 2.160557803021439 1.7838477068352516 11.334041221781822 -1.368852237744817 0.8746216754563194 0.07129411955929657
P 1.4802329915449988 8.400684799594217 13.365871706998833 -0.24691692053535544 -0.028608921985944277 0.14092113582881535
P -0.017934694648691053 0.3053413852081098 6.406539377196458 0.9719286741396098 0.4485096632126147 -0.43673118252044785
P 8.426261624747498 7.773303079305028 2.136207353843456 -0.8141557568607785 1.6601376570932185 2.3820337478866267
