# total energy = -381173.94849325053 ev
CRYSTAL
PRIMVEC
9.23602564960489 0.00000000000000 0.00000000000000

0.00000000000000 9.23602564960489 0.00000000000000

0.00000000000000 0.00000000000000 13.51785712997608

PRIMCOORD
 96 1
Ni 0.450557343773829 9.133284078374029 2.681023359509106 0.3109746702472128 0.07608099942497865 -0.8238824972302391
Ni 4.908642832146002 7.46844427889734 9.09874780774529 -0.020390647841210044 0.16544148956768281 -1.672261694050262
Ni 8.42909254043444 4.487895684687343 9.278710843493664 -0.40642816066153226 1.293806878673204 0.5368049453155981
Ni 0.7771653764221021 6.096571212323485 13.51053032883935 0.5426562618900526 -1.5295243309483142 -2.4021999384218566
Ni 7.811534922880367 9.343902406782485 7.3076044342106075 1.025756518593343 -0.8610315954767107 0.42185683651177674
Ni 5.300739828108299 5.475716333620412 12.48912102550692 -0.1700008268035911 -0.09796520109257967 0.2430947185757878
Ni 8.943742360447422 6.918124927911131 4.501041319962899 -1.0698139139238736 0.6201099732928418 -0.11650105511323806
Ni 6.842158617125324 2.5472219798467455 8.995958231332231 0.4431260303031982 -0.1491754054178076 0.5122167144532727
Ni 6.151996602113836 2.9593242073181076 13.404104529136763 0.5097366283438963 0.790909127628012 -0.12438071497163095
Ni 1.4030723611433928 2.3965362217348365 2.6784012518334723 -0.33430871698746295 -0.6840548515759186 0.14253038929746423
Ni 5.983919407745432 5.331107880371368 1.307747340642442 0.10882348396332225 1.0994433067545324 -0.9168785272430017
Ni 8.592154572887138 6.909895629077069 6.978309641707308 1.1878823135242318 -0.03335183598756837 -1.9607356120917976
Ni 2.814854294453475 2.526542518466876 0.13974106774337638 0.8128295818501873 -1.8303667978575313 -0.2286654305243352
Ni 6.045385158296137 -0.025124760514362642 10.20576583261859 0.987664339707312 0.049098300188547696 0.8977562045912539
Ni 3.400058114234577 3.4045468226895195 11.240463006021239 -0.35849765552884066 0.4472912174244813 0.6604883771098883
Ni 3.7275860550353443 0.6605254559781133 9.738683391792122 1.9076325616192307 0.3900173234036767 0.569665957709677
Ni 4.695262932074937 3.5405565360794045 9.30273282254811 0.8266158370010022 -1.9152715662217272 1.440313736119913
Ni 3.7699609406141024 5.573082515785031 10.04774205214567 0.013489806956318701 0.6782734690074512 1.4083382116545808
Ni 7.860901479859108 4.413822759155163 11.901080822255627 0.11901816510813697 -0.13810654919815568 0.36523111759793225
Ni 4.615389782448716 1.5859456685669788 11.935335394102728 0.5162266069436141 -0.7416267364531163 -0.0007363639453922803
Ni 5.532148450204155 0.9154009719882036 7.784920391432297 -1.0093991602812424 -0.46893656360839886 0.24102112387621075
Ni 8.528148915288881 4.451200954869469 1.2675900248168357 -0.5838687315726203 -2.152995250293589 -0.07362508168531837
Ni 1.8568013561176895 7.589500866796377 3.8684594595206465 1.0998400279723188 0.26739318611183627 -1.1577245589939287
Ni 7.516342307801315 2.13531370891356 6.213077210395877 -0.45063493708573354 0.06830444080335334 0.12411460579443785
P 1.7592319813892674 3.426842588554193 4.598194149935522 0.3929627791852458 0.27486558322948146 0.34590233536233334
Ni 7.5277672715024755 7.149709034493908 8.782294785274404 -1.139430131560115 1.0769960334946096 1.4091388531790054
P 5.892556642238659 3.793365029554071 11.334520843806104 -1.6512503819059177 -0.08158367441076272 -1.3281272492216287
Ni 0.10727643766287619 2.359361218584335 13.194780167918712 -0.6807404424907051 1.9974260255342955 -0.09905020662664231
P 1.7193877668324316 4.0044451592439 12.468695554831806 -1.3542648268489452 0.8086227428576912 -0.3161420733807652
P 2.0969842025596264 6.961423416052634 10.362640651503458 -0.1631642634977319 0.2123468958699698 -0.8560680808238482
P 6.166866603374037 0.5506684727549265 5.552703225238054 0.295595102467349 -0.518285803465488 -0.16770251768771763
Ni 1.666419159858984 1.3059093715425787 9.454537986966066 -1.4195153113173231 0.5290116745234245 -1.1115241491784662
Ni 3.8545444633103245 7.906194949536141 11.25161550696639 1.6014686824971 1.2778531835574252 -1.5807427628036583
Ni 6.387413659332006 6.5405284921839355 10.6609522724369 -1.0247998111070287 -0.8061305725634568 0.6787311253701601
Ni 2.952535728481929 5.132791938098679 3.3024120804934465 1.2335533331987854 0.11526589715455633 -0.49435397524023894
Ni 6.101614082316075 5.339678912153644 8.163676871978298 -0.055823791837839344 0.07413698832473038 0.8126668310200778
Ni 2.0837212697586027 5.958464921116168 5.484600466671461 -0.6357857321568857 -0.4253612501206093 1.14931730876684
Ni 0.046852510802947764 1.9786984223488253 4.862413753072908 0.4368677080983122 1.5904787591444998 0.4426213227526377
Ni 3.7708291270230836 2.547231215872373 3.516602903614603 -2.3121923016134565 -0.2294172210886952 -0.6968815710269418
Ni 1.2433075898396968 0.5615799134312005 0.39326997121698387 0.8465136043661937 0.07843792969292943 1.3986875759386943
Ni 7.053137150533251 2.052651279547848 11.365989830323963 -0.2730894651656652 -1.1887428617523141 0.2334368837710496
Ni 1.9253234302477695 1.3865583473215057 11.788179644985632 0.6857664349503867 -0.08643997406179951 -0.6718714221358494
Ni 2.045798148532277 7.583054120908415 1.2448509297220443 0.41812513738348633 0.16754542328456304 0.5598895950492034
Ni 5.287421479153512 7.719516399554045 0.4342391336952436 0.6976996960528629 -0.7785485491801302 -0.2711531673749008
Ni 3.6826804984346637 4.805559550117991 7.880924259816865 -1.1096117626471018 1.1303327972445372 -2.273163212735453
Ni 7.322210285137864 7.915551043496752 2.2090883108179726 -0.4973503388644015 0.07355463345869913 -0.4154481047719555
Ni 3.1621196220201115 6.518694527600636 12.770373707106454 -0.7621382261429067 -1.5233958494530733 0.9243023305108984
Ni 4.331169565815079 6.5599795621553545 4.708418726978682 -0.40720849047098256 -0.9030747885906898 3.7739798913364293
Ni 1.5844771404922138 4.0935728065488295 9.7028476123576 0.5522922423179198 -0.676729521559099 -0.7150757254374653
Ni 5.636968105050128 4.864226784903576 3.6060510410088047 -2.379775290869753 -1.8002645791555125 1.2950577203611697
Ni 0.42430301732522874 8.02979144448273 9.249174957139632 0.3240351029755968 1.031694481344333 0.04088645380171668
Ni 3.7541950448680383 1.852026330868296 5.9161574585244905 -1.8018342376354772 -0.6085315244266228 1.4026874411267067
Ni 2.4488860149912446 8.24960885441613 6.089104809206252 -0.8848076148503858 -0.5762754926063947 -0.2279041268782785
Ni 1.0930466889066506 0.9814847353526357 7.107675881863366 0.6636495484466893 -1.2241035006397951 -0.7317202759726819
Ni 5.507876174855206 3.133127737575534 7.068108748075353 -0.6531365647305074 1.4948545474802708 -0.41285077635842443
Ni 6.82497960945826 0.4933256840443167 0.4830367514953331 0.02933011642268497 -0.11099092392828626 -0.6631983198418837
P 8.740743753181613 1.8984927758000163 1.7696095797842746 -1.0037805285428842 -0.41832259810627304 -0.06814426107640521
Ni 7.81101770544523 3.582100179351692 4.25552928673392 -1.1371842729487318 0.9044279601844745 -1.3899301414610385
P 8.117552159994796 0.6933133469555743 9.452442332751199 0.6137264383640011 0.3299141874641931 0.6234395518867069
Ni 3.6148049460985057 4.150808457362161 5.523693792344784 1.530583368340448 0.2493712956131189 -0.6321450500805048
P 7.2782006230230465 5.713202260579132 2.9525163328281114 3.352967405102819 1.3682595984661403 0.2509000735528195
P 3.703710928788376 5.923571216295648 1.2017888838366035 0.4222409593240728 -0.6910711349927517 0.7530110670306579
P 0.003109769828763703 8.822574940240855 5.472190942638414 0.7785161532802979 0.5172277945146189 0.487671935234373
Ni 6.45309103756883 7.5050004683308025 4.373378202932543 0.3192307396084179 0.08477801297834431 -0.022534947877722478
Ni 4.279253865763161 9.04084993389447 4.9745852843183345 -0.03368865050169682 -0.6805111000887183 -1.3998957373141827
Ni 5.508541168700384 2.45826058100311 4.731709212803432 3.3370952139572525 0.5203930796164778 -0.4306415246829422
Ni 2.805692157031041 8.383364977552915 8.245378754678756 -0.24611062258397615 0.015823854406134038 1.315650456910857
Ni 3.0226556350455587 0.33545706880193665 2.31244590280712 0.24322661616796173 0.530730456986744 0.21253638617295656
Ni 8.840677550470664 0.4203149014592942 11.790991091186628 -0.4134598706973331 -0.4793153357395616 -0.2412298974529071
Ni 8.398355047146273 7.3965879995157495 11.272717054717432 1.0034038619297556 0.20304490174275355 -0.015754691731095446
Ni 9.074856980254756 2.568926640071262 8.121664038604138 0.7775761579645317 -0.6521217503127479 0.7585499945710161
Ni 7.553480366849307 6.30125077625349 13.468949741464552 -0.06361217753400657 0.5347231230859049 -1.0133208639331515
Ni 9.25218867230187 4.728355611898104 5.840904168917123 -0.7112452959477815 0.07894675100854792 0.3391156514578031
Ni 1.6045839682831806 8.241453443787087 12.125192984105794 -0.924667170049485 -0.7425502767086501 -0.4969500181021893
Ni 8.892620958599464 8.235588567513654 0.2790129453848781 -0.7607117781090253 -0.21637118653801446 -0.12260845356255656
Ni 9.209084140698543 2.424595267591041 10.734205962495924 0.616925404917273 1.5029157272218503 -1.2446689834959728
Ni 1.7360587930899858 3.596850112278735 6.96052013274627 0.473585632344636 -0.8866480104932344 0.43125524700754114
Ni 4.2365187751849325 7.361140133157582 2.7892474134013594 -0.1060261237238432 1.1014048013562772 -2.4878112459347737
Ni 5.861191099207825 7.989605496977677 6.775717419569109 0.14755432487461684 -1.5918766679332907 0.05373399918834616
Ni 1.6228620629999118 6.255532449397594 8.075567958300077 0.0037738652201354363 -0.6043678799672366 -0.02512893385714382
Ni 1.8588609898326118 0.879451589438465 4.731763705354634 2.2925007367218 -1.467098460412925 -1.2622501869128455
Ni 5.506804795882421 0.3209842166437165 2.9061773450500503 -0.5315876627807168 -0.6120644772805459 -0.21608322298395044
Ni 2.036617539058588 4.14642134518912 1.3102687756387368 -0.9056698030113757 2.9206898874783507 -0.1720790494888585
Ni 7.819801165816939 0.5458888294927191 3.8997668155900267 -1.7166289073117276 -0.3447677075372579 0.19427898262466542
Ni 6.52915894463654 5.2277567536001595 5.836050637449896 0.24555809251461583 0.29343331892933977 -0.2776490595118896
Ni 6.509144477101849 2.189021197937204 2.1306707588306386 1.486391504314582 1.1533210306095945 1.1182074747359128
Ni 0.6417827891723212 5.076553778053113 3.5143585493871314 0.01525718326938663 -1.915231199902095 0.19602116212675272
Ni 4.6919194907977975 3.6116000452057793 1.6679412568823884 -2.3047908669430632 -0.25304051693459 0.17962780837039385
P 6.79693903565331 8.248657543776503 12.276985218087871 -1.0017691545398102 0.31009483874542076 0.9187322926222887
Ni 3.5502081828600933 9.072298601155952 13.319644769183947 -0.5530052092245444 1.0930895966223626 0.5438222571736958
P 4.022658601781239 6.798232079241154 6.943325423835638 -0.9038882856309206 -0.25812641609792963 0.38113236220922103
Ni -0.08512383019542819 6.461449640761677 1.9496132540454103 0.02772394827782967 2.4478915269217 1.412113105315981
P 3.3404580408606175 2.072942827851364 8.021698838827954 -0.1403819754958937 0.2361964487940577 0.7979662915851096
P 4.651918263805295 1.590960830482686 0.7715628032764886 0.6601942429082372 -1.3090141825412618 0.5804900449083745
P 7.730858239024558 3.97437265980091 7.259724877357887 -1.1306410725135752 1.6030100588422909 0.21140535789230688
Ni 0.4732530295481713 5.635342564539697 11.038750053522774 1.2599482782525462 -0.6165009157853447 0.2389948374748013
