# total energy = -340856.7719378097 ev
CRYSTAL
PRIMVEC
9.32490774439973 0.00000000000000 0.00000000000000
0.00000000000000 9.32490774439973 0.00000000000000
0.00000000000000 0.00000000000000 13.64794506004898
PRIMCOORD
 96 1
Ni 5.486794410456699 3.56877277100269 13.356288334308076 5.101265618493369 -3.4577853674511743 -0.5166187001757103
Ni -0.24371392577321999 0.5831433678535443 12.81750821540295 -0.016352473216094416 -1.2983325344576995 0.4696472165221783
Ni 5.985378581717672 3.971813936751208 1.7364554268214145 0.7633049927574983 0.04451685146545236 2.0335202001536916
Ni 1.8649722388722836 4.254358643663894 13.37202504874325 1.2767972314890847 0.539052346588878 -0.3754985609622114
Ni 8.007913788005917 4.855936421784623 1.0166452774832826 0.8996369665537344 -0.4789057590059687 -0.8248327769586504
Ni 2.196621910359299 4.764244603201374 8.980621032337321 -2.800746639452783 -0.7746540992217305 0.36026940271728275
Ni 5.874673276091684 1.4388892259032624 6.109857708682957 0.8885395710889924 0.3057350191148283 0.3893624634284972
Ni 8.823591449648601 1.007947935960594 8.419322193540333 0.4654277791241919 -0.14154539967637556 0.018621471755929223
Ni 5.531003798426106 1.5119032541252533 3.667325856759086 -0.12411794822854752 0.6387674404930289 0.21012417718703816
Ni 6.915836533703202 -0.13496125584451088 13.081473975977257 0.15579316784464137 -1.4565983322125495 0.5631525820711913
Ni 4.144846926238726 2.6807711243166135 8.66793262840926 0.3507776611767636 1.4425043160133286 0.740674656952492
Ni 2.9052962547801 4.423913442534961 4.42041939957522 -0.9068548244584124 0.22606990188301712 -0.6872355632967454
Ni 8.36755683276527 7.440138800728702 0.08930184470926453 1.1320294682206697 -0.5556580734663592 4.480605943344645
Ni 5.189684197530891 5.5665410221239355 5.116560135396637 -0.6008961193685521 -0.4364069664118097 -0.42860855341331344
Ni 0.5554745013733027 3.5495541359879366 1.6572431323722006 0.8539782881743551 -0.5037140762989002 0.34375186467823377
Ni 2.0887886763415335 0.038712354810165474 9.759113759070578 -1.6643558089396238 -0.9378535868327719 -1.0045585443594893
Ni 4.6832391289785855 3.438224061538083 6.335293882640349 -1.0818366494163627 -0.037447603323496795 -0.652017877745032
Ni 3.1682773050887323 9.096997746898763 11.781752471835611 0.994790923449764 0.41192055123467125 1.1518974107891906
Ni 6.3637367164695595 3.939335282817978 8.034558779607643 0.4917558754957595 0.4686264885671477 0.47722631442101676
Ni 3.2255229141889625 5.39077583464548 6.3434279997307765 -0.20344470828433348 1.8870202846855182 2.4223527592206473
Ni 0.8306739783970403 2.213602567497517 6.424305722716446 1.2420217756811125 -0.13392362146505968 1.7566005626086585
Ni 1.6185801995734752 2.39269674706732 8.850378179849175 -0.5060491521899801 -1.1899114281391185 1.23395879616732
Ni 1.6469372442507515 1.7302925952439032 0.2737820910352647 1.0229627578982898 -0.3130495504983705 -0.3029805962981428
Ni 3.2443499030753227 8.487204724989583 1.7398123936362186 -1.9959676958212145 2.2958639967670784 1.6701068524907883
P 8.957692948992209 0.061047374017995974 10.433499484950499 0.3127253343897324 0.9251173702130261 1.4364583669295647
P 2.314143723600902 6.792104331854211 9.773798623903783 -0.21890655136535847 1.1744701538833837 -1.0735443275005836
P 0.6802184557206442 0.9989307500997173 4.589313062481928 0.3803723441147449 -2.1378599373140474 -1.1744341584391258
P 6.234334970666677 4.060922755868622 3.904663410565742 0.08903575981343376 -0.6226841617779212 0.5255774520308948
P 6.517056850827922 9.175755918337199 4.735468870163028 1.1883168299584892 -0.516080311173737 -0.31097518446784506
P 5.872304749505683 8.288985159483216 11.387122372939743 -0.5931709828101526 0.10905205503436058 1.6435424717386984
P 5.578691377011964 1.0637481843488947 8.194553682982775 0.798201033303735 -1.0879509898442168 0.7054520863047721
P 9.07693987018031 6.567597851206362 5.398090292338626 1.3568395295546567 -1.7771483048530234 -0.26281559404348287
Ni 2.508400203284238 1.9427699448053704 2.682844983815537 -1.5640976980478096 -0.351156384672421 -0.8504468779823289
Ni 3.463494561727303 8.001423652163961 7.6885972396001785 0.40340839999860206 -0.041012437856619684 -0.17050707701604828
Ni 4.804024659956804 7.949689063584702 0.4901441971940857 4.245971953941701 0.9414307626610691 -0.5032363653315333
Ni 7.673569218159238 8.488053291601103 2.4523313975507524 -0.8662185389942888 2.6575287371699905 -0.8723151388103298
Ni 5.311840489958487 1.1618275647880902 12.360657669085466 -0.9803791188998083 0.8689827320029874 -0.5469384342051742
Ni 6.232497963826354 0.9005138079974775 1.42868031682313 -0.34917277858348894 1.0718067759841865 -0.5420101436656214
Ni 3.6561191825423314 3.1643421939891563 0.9335081293330932 -1.0655633661776358 -0.7635857572227108 -1.5506508285142844
Ni -0.16234384765471224 4.7414731783076185 8.183266814558777 0.7670516042841241 -1.9789189678690433 0.6182904035855996
Ni 3.6208896808025255 6.748370514183568 12.858029602329982 -0.13400178300116278 -1.4834172521776066 -3.155827555990591
Ni 1.0995651552812915 1.7748749795260668 11.443528740336271 2.5192650935686807 -0.9527461876738882 -2.5327150484259993
Ni 8.623236480251705 6.712525568527714 2.9957105609921597 0.4213505862993195 -3.396450930207751 1.1103969775525586
Ni 4.003341450086911 5.843341585820179 8.769078038539309 0.7043105165011612 0.8952709762755549 -4.434311688263795
Ni 1.1137390151660205 4.242003140803851 11.047370289048885 1.1506295998203602 0.7880140654684041 -0.179450145141949
Ni 8.171584570043258 1.9341164303494305 5.3071398039269795 -1.8331957826658947 -0.6071433858298446 0.12332836244771664
Ni 1.1953039838579431 7.680553574115595 3.3272595234747313 1.666527619779962 -0.4580721100900691 1.1068249439305842
Ni 8.328541418450992 4.29441844765389 3.3611882005738005 -0.8899161397215448 -0.0438535068498406 -0.4435389494709006
Ni 7.816995625321748 6.2510358805703286 7.347016541286035 -1.0735566687957574 1.220532238348769 -0.5047327473714017
Ni 5.821968897099258 5.904037410813403 9.876949821705676 1.669026732052732 1.166314614655785 1.3250866626230922
Ni 8.619944787791633 3.055436595572217 10.370514395087735 0.15037096838780556 0.5398581303196252 -1.350715676045106
Ni 6.46245019064044 8.350063305697015 9.428997102428989 -0.7364403071561704 1.5086485159405696 -1.5260003769554558
Ni 8.058286940043617 7.535252860481487 11.733984699042512 -0.9415678024595655 0.10671903602580976 -4.310147203068029
Ni 1.2715071305539982 6.799974554053363 7.487781619757029 -0.3220329849439034 0.189083554466655 0.12343557744954227
Ni 6.989689803628894 6.88439294453787 5.061312854041997 1.1288500420514234 0.6089837814726932 -0.29238508017048354
Ni 3.6107162063721048 5.194365301255979 10.756354835873509 -0.996596352089619 -0.1756323140577556 1.4148240764892406
P 3.6076016871605923 1.4709296091690045 10.32937942922622 -0.5938988621151127 0.23629312227292207 0.7234950598494121
P 6.871076976172479 6.490508838267512 1.7286346266337027 -1.7438484051493128 1.492945760493332 0.41222805517276107
P 1.7100109207377945 -0.01479583123624944 7.569437040054795 -0.9839447247638797 0.33839805656548816 -0.3314403943007324
P 7.947581634417631 2.4950842349188473 1.0086855361690692 -0.4498394377676317 -0.07399300654769836 0.29451061115391863
P 7.172094325474407 2.8603968236320942 12.137008147466174 -1.1992877271476958 -0.8482444710143714 -1.276277097319557
P 4.147513849874931 4.5540705058711755 12.558047317795952 -2.7389396334483154 5.591218122231803 0.5900730606111192
P 7.839310129732377 5.561580171164281 9.735761392419706 1.753222647275361 0.0518151848990785 -0.005770326824873932
P 0.3787945404378128 5.676910631068443 13.689981093098211 0.19530176746222494 0.5526187724194032 -1.150827060543147
Ni 8.505733316825738 7.796807199893827 9.119993902070954 2.3307788063663923 -1.358431042411493 -0.4514024113793775
Ni 1.0357361612609177 4.650816424492268 5.697129828692164 -1.2170067416940138 1.236872370269689 1.6379282108757145
Ni 8.152645682263072 1.59029775415875 2.9751705865394675 0.5267200502757704 -0.1963654328400489 -0.36833186801044304
Ni 2.01036620158458 8.312539876633759 5.554386004781999 -1.5632723739330368 -0.8856619924308812 2.2309523836953575
Ni 4.377177004546633 8.98337374512546 5.548653983945721 0.6703256749152843 -1.6965624755791555 -1.2596009222154567
Ni 3.5141847606308465 2.727059966729636 12.130989851959855 -1.9345401846433523 -2.4142370720920487 -0.9563932975081723
Ni 7.889534083244975 4.905479657026441 11.883852752526316 0.5135004662617026 1.1596307748777062 -0.6622518967682143
Ni 2.8581495208477388 9.362860193723437 3.8479017641813127 -0.03353129898822612 1.2207070733637364 -0.8205704021378706
Ni 7.94028955650325 4.349211605997749 5.633653316187345 -1.0123644135571532 0.39450029887569477 0.6825772385891277
Ni 5.646017211464425 3.6147818661811453 10.416425578734092 -1.040302277618002 0.7418195691902127 1.2885106632712713
Ni -0.12149888642636421 3.0670647556223862 12.6916061075045 -0.9841031047186148 0.2141672369081602 2.843133846169742
Ni 0.850708542845948 9.276520872228236 1.8072473295101616 -0.5161952394850464 0.6226731060343276 -0.9158940518425452
Ni 0.746925116293931 3.020244393463687 4.1196463628581474 0.9452048849915206 0.16336069577925416 -1.1647390426385489
Ni 6.399059467287555 8.318153471140738 6.8332262428447805 -0.2638124107391134 0.22297429367682892 1.1149527152440413
Ni 3.637478691812349 1.1043395080845688 7.04122017672692 -1.5349329035583952 0.8398307930293794 -0.13717195319902828
Ni 4.1586384649028805 6.432414662555762 2.410649992091049 -0.725818051555634 -2.7547192648800753 0.13482685000561942
Ni 2.3757906891916534 6.595134303995576 0.9785185268841441 -3.126735009500009 -0.6223596885589668 -0.052796317865425206
Ni 6.808115198579263 1.7250519970496812 10.231823176115665 -0.21848360489532695 -2.960028280066657 -0.9498256715929835
Ni 5.5553604576490745 7.7210423238652615 3.347103859804133 0.5097607967136124 1.524879118866819 0.5119400637531183
Ni 1.129246336868852 6.781679084912681 11.46970562156549 -0.33853638191556534 0.1775364730590039 1.4375287171756082
Ni 6.309213980452449 5.921419038987833 13.387419539061474 -1.4157036508807166 0.6583908711509112 -0.4436821599169843
Ni 8.83047323161895 8.62939091941218 5.618954463992411 -0.48421945790939835 1.3531937052719536 -0.04954490080766306
Ni 4.2294984394187045 7.970772680163235 9.917975686145711 -0.6733598337559177 -0.03534521226851332 1.1015274429770707
Ni 4.104852396603462 3.4447235222878567 2.9596110453528497 2.69281378562453 0.3340814314680053 1.7609164163751931
P 1.7355052187146687 8.711953653240723 13.254979738291192 -1.5618965766314328 0.005633287026377396 1.5527732741739257
P 5.5849017656193505 6.044824869063162 7.400312119434178 0.4385931754298511 0.4495699861563289 -1.3624239656209696
P 8.152515133553607 2.8720809331291766 7.34002845536655 0.15928626859956438 -0.2685710084700213 0.0760761143289722
P 2.2322057585962236 4.986121459844292 2.39698900213636 -0.08812533218402242 -1.1709405434635705 -0.1206490158433406
P 3.4868068312745546 2.0478336812009226 4.7564452503016454 0.9714021122121786 -0.1096709195652821 0.006302545179260113
P 2.393685187296123 3.5714769942701716 7.333136415997601 0.9054800555980728 0.19247355398481047 -2.485814527219719
P 3.7861923217081745 0.8360516527362002 0.43415465317706137 0.7496647762662444 0.8376291573923702 -0.30632920105540146
P 3.3314631919194913 6.982332451359781 4.458442643697568 0.954745220381788 -0.14047299254780327 -0.2035573226027978
