# total energy = -340860.5070984839 ev
CRYSTAL
PRIMVEC
9.43314206241087 0.00000000000000 0.00000000000000
0.00000000000000 9.43314206241087 0.00000000000000
0.00000000000000 0.00000000000000 13.80635692494661
PRIMCOORD
 96 1
Ni 6.236372820834626 4.446377523524946 5.5623191679064945 -1.0908108278905149 2.467491560540815 -0.7943176390889288
Ni 9.187153976378807 6.481360952258297 2.125653846523623 -0.14210230062111012 1.4911387891915802 -0.2613858035754918
Ni 8.639965707174973 2.8004923368678916 5.400742651488048 -0.3355698430880737 -0.44964171993452884 0.21424848376805683
Ni 1.3058675825152746 4.839333920687772 4.827751908914564 0.474203468434293 0.029535804675587838 0.42580630807782793
Ni 0.5138798447281888 8.004907720046859 7.337250680723069 0.34282806731238374 -0.5269848739013827 0.3173782597807115
Ni 8.597120376116242 5.506417424976695 -0.01050380364022392 -0.14355420257628823 0.11540345117368514 -0.6444791461658256
Ni 8.765068036655574 8.933845813692743 9.86610531664417 0.18188395139442226 0.22174504925541813 -0.01648565635984903
Ni 7.913925065255697 1.6744298744121662 13.563585695133302 -0.9026880946752324 -1.1923454915019078 -1.11086774654139
Ni 3.6684734667749987 9.095284606237685 12.274679845285732 1.377186468642125 -2.5657416398636648 -0.15849668281873347
Ni 3.00505945473219 5.022648169579081 10.261822794476501 0.48538339631051247 -0.7877284159071852 -0.07256475874160406
Ni 5.189699681626432 5.818663859009073 10.95516439289468 -0.7629272977031054 -0.22604599062361716 -0.26804264677037715
Ni 1.4167070012603409 0.3116295065442132 5.788066519550221 0.278973434750268 0.015239956878206014 -0.1784895810008926
Ni 5.124535536546353 2.1881587888680216 8.655067224236163 -1.017678626681215 0.09448855539788888 -2.0819117040832014
Ni 3.015228381830673 6.837433764119574 1.1377614451899918 -0.9586283574862781 0.01884978571665141 0.4338155515355496
Ni 2.6941336605827324 1.1066773556028648 10.621519819502192 -0.7425669888791985 0.42874944986655195 -1.4629366157257515
Ni 7.4948954635472225 7.547230535478935 8.180487735795268 1.3799074671177136 2.657329219564675 0.9282402321127239
Ni 6.320497581376627 3.618374049502229 11.825972635465437 0.843044929091303 0.046855784011274146 0.831971959106593
Ni 1.9583580160979317 9.491061512864748 0.141681076582257 -0.2659939917714645 -1.0021298803133387 0.16647173060441006
Ni 4.510239895006145 1.7269536091842965 2.517354692483474 -0.697178019221438 -0.46787418378215556 0.3128379487081967
Ni 5.811315441374824 0.29182556818562666 13.67951806725543 0.1490936443372787 1.2438745126191353 -1.2180346687378958
Ni 6.937434502682675 1.4540433773788914 1.8731635372507665 -0.202218034966084 0.15027660890178632 0.630609844382901
Ni -0.04951927903848718 3.164715383435189 0.5069332789440301 3.63065554538276 1.6514460428564912 -2.7110310799635053
Ni 1.2929064453786174 2.2699063976207654 4.359274720046961 0.7618649178768621 0.027450382901468857 -0.6372762006594831
Ni 6.118826438112732 1.3552689472785011 4.544183169939794 0.8409659350750871 0.36975034562452447 -0.14108182977639575
P 7.0768374754668955 6.085150121098274 2.8201000658724444 0.23201454950222622 -1.5152171702970225 -0.9173503246730976
P 9.31843501388307 8.148480141604297 4.939734624472559 -0.0295183211740911 0.6131435692773375 0.975430002424649
P 4.84548432928537 3.554106052914132 10.21979626014518 0.47703733833866224 0.8740503763338818 1.3427848512338034
P 7.953176369204482 2.679804717853051 3.3461496071217405 0.7964531973746928 0.667827848194095 -0.14777029754016485
P 8.295995616526456 2.0051086679532975 7.889380029717428 0.8082892707776724 -0.3943668586216241 0.6187331475499731
P 3.2693383615885105 1.6270943677515075 12.632388363973424 0.38078474906181514 0.4404734231716995 -1.3484813873979486
P 7.096288614313902 6.364522055187965 11.471260082683568 -0.7417601767071871 -1.9699859270454718 -0.7362988964822996
P 8.939184972076548 2.6607780703969834 11.821334359533783 -1.2091440511164853 0.0020687096035706307 0.05651824680170266
Ni 4.892451943407217 -0.10872733824659625 9.253034096938269 -2.301056082490979 -0.6086991603527387 1.0434817037872481
Ni 5.809881603787654 8.59554504139876 6.004840123189508 -0.7412313007869105 1.4526192929601431 -0.40219561063742354
Ni 3.092061323590551 8.638748831854283 2.819589732889116 -0.12117917731519777 1.3693762285690867 -0.5849596506439538
Ni 3.8150267612110285 1.6406026271253742 5.5511078786147054 -1.0713542618278 -2.4219231278823967 -0.31063682729181985
Ni 7.712442584832219 8.561887590668343 1.9553941228749785 1.5833244074879054 -0.4402050000016613 0.39386086551948296
Ni 1.0392398232957605 2.633478557388624 7.214884905742719 -0.6671593613721606 -0.5254496682037789 -0.21709340941601968
Ni 0.32645557585839363 0.49853872585966963 11.970208206906944 -1.0009325175711279 1.224341070571898 1.235989967664736
Ni 0.6912766836298135 4.6625568392169185 9.775729212884947 0.11470231134160246 -1.5481715137358563 0.2473576076171998
Ni 0.7051613253703125 8.964786519521153 2.700440659337877 0.21883867424190054 -1.838683288143027 0.5186691549468357
Ni 8.668934886321024 7.4607380562897 11.830846739947615 1.8215772245903594 1.3943287847493664 0.13432137112411058
Ni 7.479321346070788 3.7841426542347434 1.019359476486805 -3.457335167287633 0.6414565572894179 1.5210170648082515
Ni 5.017393909473463 1.3688621049305556 11.007007998127106 0.3399499744336403 1.1331486694267776 0.8576387677450777
Ni 0.8501147589196048 7.1230504382270725 -0.2579068194212323 0.3447088292748644 1.0106258335994918 0.5124401433179885
Ni 8.380375071903018 5.043221852326569 4.350286822329489 -1.0504265105361974 0.26465264725222165 0.2162104925904341
Ni 6.304583870787442 8.419211317602885 11.026654403013945 -0.15432738193239226 -0.23386368689582307 -0.1104427647343001
Ni 0.23950275933854084 4.352961118092401 2.451787752239105 0.8988766913489422 -1.7015786978468241 0.46904840659591474
Ni 4.273543495418809 3.9071508261867147 1.5026702811822055 -0.8826260338180348 -0.9678843288669072 -0.014573784049116838
Ni 0.3660540194335459 1.288208740652231 1.4895129346915146 -1.785773070407557 0.5125483867610786 -0.39025977843178594
Ni 4.463140216896008 4.964964506121542 8.43630511425888 0.19583115760313372 -0.8003095950063055 0.014542930811181408
Ni 6.940990797224538 0.37722757615725055 8.70617787433357 1.0561384733193102 0.9330955033224962 -0.6910263977977453
Ni 5.073162645100768 7.552777222987199 7.927486150224881 -1.6766392542926671 2.7405604568811897 0.5195230183066988
Ni 2.5063575355155594 2.3588797931614858 0.5210094134675524 -0.5913020479222139 2.341745075569909 0.7264078626208328
Ni 1.7492535569216014 4.9075544037826075 13.937655055341972 0.09089363895777895 -0.4840639061681406 0.14305103768762462
Ni 6.470965629751312 7.74460959912334 3.82680498233827 0.11187564052608474 0.6115512850895533 1.919862013805887
P 1.5085292056913597 5.595617215925916 11.660710590459445 -1.5478262145812955 0.2627160923511411 1.1842722275754702
P 2.2668689258900496 1.4555904126703119 2.374789730493863 0.6489590363140502 -1.2939711721652103 2.250841152199485
P 4.6674243404996805 9.236253480597366 4.133899034198855 0.586675604893796 -0.10221857705229491 0.45175362407120906
P 5.439762843457322 2.708047545063496 6.232838222519412 0.1450654970144921 -0.7179797864581378 1.3049006745935205
P 6.1473333932997605 6.018957763537922 7.966710098061805 3.683127647139547 -5.009478006966411 -1.0291197786386213
P 8.817714402273976 8.9956989259235 0.2752487077123752 1.430148365551137 0.025382187518530483 -1.7403761303299963
P 1.3389684778664608 9.472666885924076 9.186087088016249 -0.48002496021207647 -1.4664698256899906 -0.07916503766694108
P 9.137224355662413 5.650376605356988 6.549004127061455 -1.5875826685436272 -0.6570875789584554 -1.3543154775812225
Ni 2.9861082724122885 0.7778285916137799 7.833050022139883 -0.5269506782293376 1.1731234100475023 0.4278349084720825
Ni 8.6354094995789 0.6473229583836317 4.148838301217286 -0.5587264279790377 0.4090000351537666 -0.8328379066513142
Ni 2.246332975710645 7.280140552300398 5.435866012488506 -0.8838161974713941 -0.10588651282218538 1.3438924824756855
Ni 7.520742272684369 7.011494100688421 5.998268053143578 0.6639362264491727 -0.6846541757228144 -1.4103261886188871
Ni 8.499157196229646 0.3383064321791959 6.466359426502527 -0.9597133630203406 0.0919760733886803 0.7667417863531891
Ni 6.010383037440963 3.628835404003359 3.4351324358044817 -0.147082784554837 0.21783851511216035 -1.1262923086265764
Ni 0.4682639998579322 1.9574996001740337 9.888250560852333 -0.5740270628918501 0.6886882365828719 -0.8769086717182834
Ni 5.5744586783731345 8.859342858012017 2.0651543901728586 -2.6148630799806645 0.2796210956365959 0.1494165748943362
Ni 3.4895173294973265 3.6445793180361687 4.5277666728808965 0.18960548840839603 0.5351208727449558 -2.388532982457725
Ni 1.4433650606112818 5.460751584453728 7.497638621246888 0.7326003645847899 -1.3103812380921174 0.061960500863196516
Ni 7.442664156177738 1.1127334327802547 11.09487111285197 0.4069938033570152 -0.5123856359309692 0.8157292719954855
Ni 3.268744073641197 3.662851314130568 6.897752104143537 0.07170960983016036 -0.6297076442836058 0.3493990356616821
Ni 0.4973473200224354 6.909144509762126 9.512607752554587 0.4439341280267903 0.3565814123427343 -0.0054805634985970126
Ni 4.092615831458778 6.750573392391525 4.011202155933573 0.6685711541180228 -0.44449925650164096 -0.6612908184065256
Ni 2.94317804307537 6.83013251219543 8.430727297381948 -0.7691452535883593 1.137134393547403 -0.17229990725041294
Ni 7.083072782342681 2.844686607235605 9.687078430801341 1.2537802017686213 0.6625095213049752 -1.1501845418631416
Ni 1.509170659348778 8.177156893347703 11.392950854197426 1.947499830127814 -1.20796160077261 -1.144780854349067
Ni 7.92859360109813 5.593041968154222 9.18876515703597 -0.17506718558290493 -1.3259379548797938 1.147559702645785
Ni 5.059003498927463 5.8902425406633325 1.7441436238889036 2.1197256896071814 1.95819381950655 0.6050409947748612
Ni 4.016867701031299 3.9959544251710595 12.752448679043878 -0.6386815656474419 -0.3271584790959269 -0.4325359134921777
Ni 3.2426803022375696 6.48227596703432 12.607371671334112 0.6303169957328306 0.524778096058051 -0.6609064384839134
Ni 7.586038481752739 3.8706162671399365 7.1872024071683125 0.5225612909123903 1.2157998658701061 2.05057304187092
Ni 1.5821548791641462 3.044339058107037 12.05619412636966 0.3934726289421288 0.538026476427525 -0.18592186890922174
Ni 6.797059916270308 7.336937500407977 13.347309218078514 -0.622467932002057 0.5904188739863122 1.5641740598116998
P 5.58971206902086 2.927264332486185 0.052298282677831556 1.216235410745628 -0.5769156972935547 0.5532044697195441
P 2.400612013461756 3.053045848192288 8.910112028368268 -0.726206288132988 0.4521102360796794 0.6107341885048966
P 2.5070650211671235 5.159768321994253 2.698466302712912 0.010793491071078186 -1.231091501921854 -0.8386180036682009
P 4.662537972932876 7.978749617223024 0.2949752943063907 -0.3401991143299689 -0.9700263149105746 -0.4738568837281517
P 3.6563424461361773 7.411157461828077 10.343819438178596 0.6552816360979682 0.650334576505338 1.3133572900013057
P 3.501818146692524 8.465848771754 6.793045171026231 -0.2502606401966077 0.23603318374331608 -0.5908341071468599
P 3.525504766306895 5.431508844189072 5.657665594196505 -0.5546286037605802 0.4499862477581411 0.9406925989434638
P 1.5776458372781768 7.109655376557456 3.4134833748666153 0.06266961111507915 -0.469906640831152 -0.8372720311632678
