# total energy = -340884.56552025373 ev
CRYSTAL
PRIMVEC
9.11657721319344 0.00000000000000 0.00000000000000
0.00000000000000 9.11657721319344 0.00000000000000
0.00000000000000 0.00000000000000 13.34303226925354
PRIMCOORD
 96 1
Ni -0.08908901475712427 7.862281958083142 11.737465386872033 0.49876495982374097 -1.6423973023906617 0.2095145686274972
Ni 5.406431068588617 5.360091507178651 11.800150971026062 -1.336369434625763 0.956508740040114 -0.530972397794221
Ni 1.9562989306079517 2.9941391844879157 8.180692999897285 0.7825095907104073 0.25610681456473955 -0.552598717814745
Ni 1.9877237718788843 2.7874207986978385 12.849246550996275 1.7279080797699724 -0.06115060336739146 -0.4512332327913648
Ni 3.1533875533073674 7.0942650366939795 8.30797226779281 -0.3206499885534478 -0.9608821865174614 0.8173308121546504
Ni 8.323535176563801 5.0300896492369 6.461002976424061 0.2444072667396242 0.5727494817310071 -1.938252857608249
Ni 4.855361332498085 5.665004544935428 7.027642002889556 0.7536067916331279 0.8227198443807057 1.0599218516211424
Ni 3.187902914215911 6.981784708408291 13.01623489377541 0.2762814897404016 -0.24259052524585964 -1.19177753481358
Ni 1.5939332239537514 6.383409053734972 10.681137626286725 0.47562811669596156 -0.07916632321852173 -0.0495065913705599
Ni 5.410387663050927 1.036080754499259 1.7658700447839035 2.3764369705251394 -1.0843259914971197 0.48698287958714837
Ni 2.6591505588713167 1.7416400061619468 6.040230095249848 -0.8550725496797984 0.13485461791976128 0.6425960702104998
Ni 3.1346074044770447 4.587671279049174 0.7120885441832107 1.856170389184197 -0.6860543985044507 -0.3136871840823694
Ni 0.25232953268958486 0.9724379297495113 7.164808198652306 0.0953735291060035 0.7405386455952601 0.5417466055915896
Ni 8.399941209256488 5.207379724141404 1.3282852837757113 -0.5262909331581516 -1.0314905928636429 1.8577117655293878
Ni 5.0413030390724805 8.354704753675875 4.172859727642024 1.9361188419843818 -0.7469360644811717 -0.7532175266145092
Ni 1.350055669895522 8.620626191166979 0.5389556284372633 3.005715497691127 1.3681438988238825 -0.19597436804921733
Ni 6.338537261238445 2.045996932715496 4.182960895071149 0.15753766133957384 0.08716296827075311 -1.6557349000398323
Ni 4.516507278190196 3.31806940207967 7.253218940073034 -0.05536716391639497 -0.735541706601301 -0.1423118455287549
Ni 3.617029314988777 0.8761650522359337 4.0322246742919265 -0.6684528833726037 -0.2339711590079648 -1.0417462091533802
Ni 7.657268372211157 5.783173617332825 12.602026859772417 -0.40408768545381374 1.0471599239697837 0.6687588446487966
Ni 6.05422768773241 4.215404969662096 0.5768824124974122 -0.19472609746441305 -0.02231074768205835 0.20464567057097013
Ni 0.9634398681497404 5.126944164369591 13.091262500010258 -0.5055871249518971 0.9707999598518054 -0.38063588218877675
Ni 4.1803973135900385 7.825742717057932 1.7772247415645668 -1.8183633456387522 1.1078438721134019 -0.5060671499121091
Ni 6.670216569366983 1.6987465108965747 13.01905009278454 -0.7182235270378277 1.3685467906892559 -1.127657050184587
P 5.154713258222582 6.216046931294653 9.379751714908465 -0.6486816142829473 0.8856252256556747 0.1753340660910464
P 2.6830359908788135 4.762718675986563 11.933607631565968 0.6132047615325761 0.45215831570879544 -2.0800605098070757
P 0.597979995227088 1.665543937090733 0.6138756590623065 -0.32919350724808466 0.026429912056754486 1.0102697358116537
P 6.694931609890771 4.201575122198213 7.5002517414662995 -0.7058045845481844 -0.7827019092268713 -1.1561348459093057
P 4.482247181440511 2.5825986609449973 0.4408229691948576 0.17057572547045463 0.3715452327414182 -0.046663722605126086
P 2.26573379060737 8.607881216378246 11.407745231162737 -0.3113163698573478 -0.24239614984686642 0.643986008579491
P 2.568158002815274 4.593597054165539 2.779980760124816 1.7683078237432577 -0.08452038844158347 1.751036952477952
P 7.460441472576857 0.12260975710382924 11.68973737076942 -1.7476950325889127 1.0827077391674063 -0.42531059938833204
Ni 8.75401994732488 3.120586108894018 12.708344381937088 -1.453204218929336 0.9209676097107107 -0.6370586853320384
Ni 2.0799288326895056 6.510074775991525 1.879352284893112 -0.7018939366398685 1.082683313687374 -0.8644743026096725
Ni 4.316872472808449 2.9513368549935644 2.6911160131644034 -0.00031830257136719375 2.005353250801172 0.6603629072756175
Ni 1.4149109993998488 4.1237833697860085 5.704586899397318 -1.1181100299261002 -1.5368892559538176 0.7357499659573652
Ni 0.9734498698078442 3.5149874674849917 2.0029493672970986 -1.1386950531663034 -0.7592904722814665 -1.815813582633705
Ni 7.772018728195268 2.4401430271476108 1.7306445025191062 -0.33745960391161883 -0.39470778690081054 0.6057549901227504
Ni 1.057604993037313 -0.08486165795488133 5.030736926211148 0.9405902690376445 -0.3473285262858986 -0.20014109783239725
Ni 3.217376807986995 1.163876932316472 1.5441357448489603 -2.9646719494862555 -0.04772713087263393 -0.09598416610680889
Ni 1.2738137355906742 8.572189817023531 9.260877931101076 0.22286810711626776 0.6611926022657645 0.04985060497353995
Ni 2.4135043888552796 1.8243911765176923 10.538473222873701 2.8408537918863135 -0.9138148007160134 -1.1817240072323199
Ni 6.86042483402516 7.286342199658087 6.251103816883062 -2.4515576629193783 -1.200729344690229 -0.6003986109068434
Ni 6.042002357838497 1.5406832971003959 8.612060255321849 -0.42493213300299076 1.4869800298282003 -1.4680361417358458
Ni 1.0722644490174869 3.647278117813539 10.373846985221721 -0.5982098307856407 1.647184696476976 1.2297966943698304
Ni 3.5184244170524823 4.977596398283017 5.09817224703537 1.3036246360945742 -0.844072599024869 -1.3138653399859759
Ni 6.021654157746613 4.140092926221662 9.542216412129537 -1.232328973873381 -0.5930128599657335 0.14121835535426003
Ni 7.759793398301354 -0.06708068597494894 5.12898171935191 -0.028228912938706222 1.5631577027320434 -1.3460475811454753
Ni 0.5628118873980339 1.0043641827610592 11.495329099040307 -1.268574072248344 0.05633312737409008 0.9650669140227702
Ni 6.238555760159733 7.406115789625453 2.366506610578543 1.942369450879784 1.295930095663794 -1.4942783632618264
Ni 7.585621192765767 5.994514107713667 3.419445739455002 -1.2111762510551658 -1.456952887338491 2.383700079845456
Ni 8.246554799513685 9.127790491933807 0.5458231459682739 -1.972565771957506 -0.0676475239456448 0.46974054756693295
Ni 5.3374003467715285 0.7817483098203432 5.904225351409906 -0.4077255393167172 0.28670165663246105 1.3294562524456977
Ni 4.1005269815985566 7.880861542217218 6.262058295928943 -0.1910450490684 -0.1065629700639197 -0.04042905454932392
Ni 1.928301922327408 2.5493596208307476 3.8877460720355836 1.463491202677641 1.5547828484047868 0.389168088029504
Ni 7.508312618939975 2.2051085528784165 10.20448377410749 0.9690120147134471 -0.49589997957112014 1.9054008440752346
P 6.509290750360745 4.174918250751678 2.8298037656454933 0.012192171190817712 -1.0505424672887715 -0.7637870746002394
P 4.247422388444665 2.520697102421751 9.29508970999212 -1.3133470055886607 -0.5684529112381822 0.9114092765983143
P 8.933716798584339 7.046302724559841 4.978432388403281 -0.22586781317454005 -0.796571468120112 -0.15412940698897326
P 5.471851625873273 6.691093530930788 0.22937763817734236 -0.2067370058823601 -0.904382708768836 0.7313937458711984
P 9.179207986789638 7.047633744816747 0.658443869541334 -0.9377211750199655 -1.4811639373670555 -0.2184293546186238
P 2.0838671939976123 8.54146695218946 6.997365850333488 -0.621246143779814 0.34587328189661076 -0.08702952801668239
P 2.28837025155188 8.732577757980746 2.7085952264422564 -0.41277287193263745 -1.2169247235031686 0.4364740722043193
P 5.454192816026509 6.382032450592556 4.781621898607763 -1.0348255707741467 0.14335545630192084 -0.2780835759461469
Ni 7.155838398441551 6.137844932912855 8.355300066160643 -0.199174877264386 0.43326353568682163 0.916617303161815
Ni 5.354575978031882 8.42993474792239 8.738018531195276 0.5457536698684536 -1.6015175334571645 -1.186693435422453
Ni 8.729961300352443 7.855134561635097 2.88457707253261 1.2015891215873629 0.8631267874428425 -0.7011945965799987
Ni 0.7885182799763613 5.37663809461896 3.6028183946020262 -0.1429008852630055 0.8358347844961088 1.2903366607364164
Ni 2.9119532419125003 7.1743723996901165 4.102822535712864 0.5417399207233703 0.4199933009404767 -1.106503041814791
Ni 1.8120655642756556 6.3754411653477385 5.887879328665844 -1.3369708156551878 2.670095775201724 0.7476562304766479
Ni 4.648661179862211 5.569526632945154 2.536657493954394 0.11979155293905176 -0.3865126526845279 0.5750537043841515
Ni 7.793132720763728 9.002364624163137 9.207639855797954 1.1616894571789478 0.013778541841331107 0.9043865654235779
Ni 5.982881355331389 4.357322725410459 5.194388601770914 0.2424635127496921 -0.8035299017158163 -0.15074197857397909
Ni 4.4637405299232515 3.0921332717583696 11.561217336730301 -0.13490244043856123 0.20343622364390124 0.006295603200724642
Ni 4.125643151514836 7.769976614924398 10.666673265056536 -0.8263628404499317 -0.6203814817866735 0.661833578283873
Ni 3.623347102920531 0.6636931946367222 7.889040935193221 0.08352717129037872 0.6060311266022723 1.0953945906064553
Ni 8.227027091360991 3.6616640764806494 4.028301811164893 0.7921841376856938 -0.4482551239996474 0.4706638307121508
Ni 8.86559773447746 7.6349145251568125 7.118107620789097 1.7965051121130802 0.5637709323814808 1.1383957767583297
Ni 7.20279788709446 2.338711990309666 6.464539296681965 0.9456365732123003 0.18582005322403483 -0.24945434224522842
Ni 3.7947843353254878 0.9463736358146124 12.586669073986224 -1.5249156285317091 -0.42536047878966093 -1.001624658542146
Ni 0.6712006958803001 1.059282443224099 2.844280890083625 -1.592275446033606 -0.6301956396636179 -1.425799858774454
Ni 5.3823633050390765 0.6766086494172648 10.699924156721021 0.5254982620535272 0.7939875094430197 0.46518969497145696
Ni 5.508946978101711 8.690951466932564 12.848005784852681 1.0901963342349674 -1.4223011015925764 0.5429221139569295
Ni 8.582126886064819 3.6103286308187346 8.497736555146115 -0.2248170033125225 -0.565037200688414 -0.39174819005185435
Ni 6.602753898811455 7.332462963217602 10.689423683214823 0.8759275387519366 0.03890310482310074 0.35074475105629915
Ni 3.427832990388932 4.729671083991457 9.739145417427382 0.15104716851922373 -0.191994814576179 -0.2853423143910892
Ni 0.7847458403715131 5.604506939285904 8.077805134038426 0.5364797007656954 0.07769153844520812 1.4967815892996545
Ni 8.057176143371798 4.974651743879041 10.541155319857138 1.2829591373254225 0.3834602390114493 -1.1452696210600275
P 7.037031165647007 9.305837242737782 7.260330781870381 0.014559385871413635 -0.32573614482710356 -1.3174571711022922
P 2.713412425783005 5.035422846841627 7.292060116816523 0.7423726134802053 -1.199639711170476 0.5992020194955809
P 7.300500243897646 0.40625837876996235 2.8194090444336806 -0.2708952857278238 0.39778642582613427 0.1359041422301982
P 0.27294667180598 2.264740083703241 5.25272466698953 -0.08127925579646647 -1.1339547102678407 0.8448148765075323
P 8.828684713791064 7.017521690648517 9.571930983536117 -0.08940445600676217 -1.0294565931527495 0.10774850573158863
P 0.45089314026183525 1.7704939726900877 9.406597299501014 -0.07981449832548189 -0.293355671613869 -0.9424466055200931
P 4.330665853963924 2.639905464608787 4.985490442395724 0.3530055220660179 0.9723336228875125 0.5998406815208444
P 6.746230589244278 3.656476744109556 11.698663411410084 0.4663340929885452 -0.26507173706751125 1.0393674245085585
