# total energy = -340854.8693475103 ev
CRYSTAL
PRIMVEC
9.44254137787117 0.00000000000000 0.00000000000000

0.00000000000000 9.44254137787117 0.00000000000000

0.00000000000000 0.00000000000000 13.82011377321923

PRIMCOORD
 96 1
Ni 2.512414724924485 3.2421059863705097 4.216433662693113 2.7515820048026742 3.12035533122591 -2.279552918311881
Ni 5.644770054155261 7.960383334004782 8.824128465302081 -0.33969003590403435 -0.7998115723239644 2.974006853733936
Ni 3.484156089194214 6.56769348007754 1.1594647501711457 -0.18585116357228637 0.3062278995908468 0.33998057056125963
Ni 1.9480812461362087 5.932729792616356 5.721347175317768 0.1735188672591786 -0.7532044139883867 -0.604750717227952
Ni 5.587850415401213 2.3622688762469584 12.276448082362394 -1.964428487562352 2.3981093132922506 0.42924515855604783
Ni 4.8512094435830955 1.8432501529962866 2.6698247205982777 -0.6015682057349124 1.8253480044867014 1.127007589526046
Ni 4.602898935899747 3.6437067089731063 0.8364042530603462 -2.4847979130297464 -0.5307764797333311 -0.8109174524291389
Ni 3.2212096425478967 3.962722965659493 12.464264005168223 0.25106051039008376 0.8467185212881482 0.4625471151422873
Ni 5.37614864020782 3.7115796955962153 8.252680975923676 -0.28436812340327794 -0.1811642996195783 0.4842567389052369
Ni 9.111787930950904 4.8597171732641495 1.0334153225514255 -0.20779578616417763 -0.9667556145791026 0.5647574646644661
Ni 6.587154557627655 3.4372361016413158 1.5951454927125468 1.867317664050268 0.15204707053864783 0.8603525671318151
Ni 3.919051212302248 1.4222827782562393 0.4924577989223268 1.5087387616615306 -1.2640121639092745 -0.485366427029648
Ni 7.831303794892665 3.2031082909401474 12.432519125684607 1.0217042029008403 1.0615372757373784 0.1358498919534951
Ni 0.0008753235753981968 1.1716588479626153 13.645261526443338 0.4922767809962361 1.0231404211267348 0.7546681430181068
Ni 5.365714632108413 7.951630098250801 0.6772247251532244 -0.5743924166510688 -1.4773972712357717 -1.3302278405043995
Ni 4.598819758072649 7.3085552678417525 3.4903107375916735 -0.5679777713739766 2.3704817813829693 -2.760523787376994
Ni 7.564806952730169 8.634741303629518 13.737151616777616 0.424954501600494 -1.2434168562564263 0.026642285177876698
Ni 1.4908922830981304 8.344600338135878 2.564460123876802 -0.1435493174802818 -0.3003040779072441 -0.5710867493166035
Ni 2.3181910936152565 1.5790006356552024 2.0484724563726546 -0.3580037466115576 0.393229145472755 -0.2723045073705246
Ni 8.796775311761483 0.30747747125880776 2.0360479605742845 0.14987525969830964 -0.21641335262985953 -1.7960292009179264
Ni 7.497670484325842 6.037966915030735 13.549612360430896 0.012499932239223634 0.2844185170252392 -1.0786965611254842
Ni 0.8065252197309771 5.199554233443019 12.780122676055116 -0.26920067163422023 0.14094247598505405 0.2878581388344075
Ni 4.628025538209721 8.446466473318141 11.321353918345384 0.7284310636984487 0.16631257931872648 0.597728520273848
Ni 3.5018797391513057 7.717473959925833 5.60192735592121 1.229284273509786 1.2074491799125655 -0.5596921343264167
P 3.342395217161278 5.5476440746887485 3.6473080942121228 -0.5336306613526746 -0.4793844984146002 0.16169924891643117
P 2.6829281351137046 4.873559938760739 10.064318445014075 -0.476554742275289 -0.17957561497621977 0.06302133802754308
P 3.0803174843114727 6.350278967417955 12.76268135808189 0.21284543277294313 0.2994939233011229 0.6841294135675959
P 1.3584984120014947 7.887609668464396 4.890965375077152 -0.03598901650009931 0.36423430090230174 -0.7476230632458672
P 8.466428005555379 3.7682821559011366 6.855964822400426 2.5351565679879564 1.3292083981009495 1.9905699218444104
P 3.197896008161077 2.5597785119169054 8.172496803997392 -1.6665330190966008 0.8119466650246017 -0.5076463214737709
P 8.498749824310373 8.570654776054248 8.906593010944208 -3.1713637039529767 1.1523221570314348 -1.762117892882462
P 2.2431040054645934 7.075551119551289 8.396409673556535 0.805903029933683 -0.42022752843846983 -1.1792205240841755
Ni 3.5909323458350206 1.2606831270225312 5.912493482428266 -0.0871169455241661 -0.15606570477973766 1.2073450502345335
Ni 7.308970739657476 5.498930004295228 5.9443346758328 -0.12603162031149262 0.7352755974241079 0.6226060002418181
Ni 9.174458077336208 7.086749973493277 6.075750299654234 -0.4892904446744025 0.40719589206549234 -0.11706464092619194
Ni 8.717656258490054 2.1303695052846683 5.48572838735063 0.1295206073013576 1.2096955527445812 -1.4777114600420809
Ni 3.839941601572085 3.0611868957056827 10.287443806631597 1.7395765172468363 1.260543488634384 -0.31925799330192756
Ni 6.884113037915657 2.79859926562749 9.989661936745163 -2.051866049650731 -1.0861288490338135 0.22218985010232056
Ni 2.048738736036368 8.78590694676382 6.864532984345586 -0.787651797032979 0.26058850448517706 1.6052062951626613
Ni 6.566333754135173 3.2141560642218723 6.427831503093284 -1.556201068908552 -0.962600968980781 -1.0849140027901059
Ni 5.562780468338837 5.053506447675123 9.981604616282517 -1.41397072735001 1.3781909986472394 1.5731798628547358
Ni 0.7523769668386259 7.88167031000781 9.576689561695401 1.1975401483289698 0.9653597626728406 0.821810702302875
Ni 2.73369123696204 8.603930291477152 13.660947475995135 0.579711257760821 -0.24161659136836452 1.9746008001096638
Ni 9.182928036852196 4.523118904739668 4.79651918882205 0.16721555074897007 0.23454631478514443 3.0191438552818903
Ni 7.095682617531321 1.3362612273190486 0.28667744135711254 -0.9769107007352338 1.5007344032998156 0.4279043282574373
Ni 7.182818388337951 7.110394096824422 10.765011662230888 0.1019753506932373 0.30449960404583043 -0.056975903164411555
Ni 5.014197148382968 6.094065052694604 5.208814533663007 0.8505000998177675 -3.172719189539607 1.4427791669412702
Ni 5.211414065273656 5.142606267065171 2.52830652187589 -0.32939122508118757 0.4771957182933975 0.25198867863130797
Ni 3.9869147563840905 3.6141043421028436 6.354888816064227 0.6505500349502539 -0.4683503520876257 -2.0625872927229767
Ni 0.34790099042040085 5.467930141317534 7.9705019612258905 -0.42732351605330277 0.9008808662631645 -0.8583211385240831
Ni 2.534226995249942 4.468597671467292 1.317748180912083 -1.947538139564917 -0.8305138865038277 0.5921242867131931
Ni 5.1589985187036955 0.20131875681682537 4.3351207408873975 1.296519906728993 -0.3340158683373925 0.8863600469391703
Ni 5.357055821767095 6.17306135292957 12.263471197899937 -0.9411875363020112 -0.2900379200945456 0.3245881472655894
Ni 9.028929631337967 9.154732608630633 4.1365677044075095 0.16845662224492278 0.33165199609090623 1.600324798700644
Ni 3.4407959396987606 8.950471555955186 9.369553255204329 -0.9518069636890706 -0.4421317847107289 -1.1144364377292548
Ni 0.9314481521776121 3.4390679546470033 8.751062080982434 2.9888279779071683 0.5724851723260269 -1.4473115075939849
P 8.505123539665213 2.620824541204385 1.3539622151771011 0.6410014720298702 -0.2750208778604231 0.3710639222296255
P 0.40563552048574275 4.803637920682814 3.009647616965246 1.548272815200411 1.357906023145958 -2.808758968234298
P 6.064217179751414 4.256027182477387 13.341592232077284 0.37107086420816093 0.7351835519309339 -1.0564596041041547
P 3.653498624266396 8.8682742342309 2.006818574084046 0.38193531772649064 0.10028613591627245 -0.3892611619639425
P -0.04615042043968378 1.1255509189586306 11.604790679539857 0.1508283676401983 -1.0890429373568147 -2.1322523613192828
P 4.669166690507563 9.05731391038486 7.406806798227225 -2.6970257668233484 -0.4145687874907957 -2.8441003238480698
P 0.5631843215161517 8.724813704770009 0.5866263744641944 0.1798916035547418 -1.9571682064555131 -0.8780044758856234
P 8.337886691295447 5.368009169636156 11.547450847699453 0.637473918492586 0.0695442267477254 -0.007287791910664868
Ni 6.147453181015007 7.689420169823266 6.61545385380315 -0.19869433808354167 1.4386106373858771 -3.113278369774471
Ni 2.1661378516019107 8.785821963892422 11.598585985673685 -0.9041934755761654 0.6230747123481204 -2.2239607828688728
Ni 9.244247899836402 0.27577319470263745 6.452528469775635 2.2041031247129976 -2.8717078011526933 0.9970583793277021
Ni 9.061846330192745 2.584801246272949 10.085365869496952 -0.9030665610605738 -1.2865352847124554 1.29584602059042
Ni 9.01746638624052 7.0595176844808885 3.1823847456227106 0.47629326108378617 -2.277522518145413 -0.7457561852404576
Ni 0.5412323015799518 2.5881722335050648 2.9824219377317447 -1.4117336104893752 0.29776845596958396 0.5413439708365322
Ni 7.5580649782659375 1.6917351358351274 3.316413120612565 -1.471855772592252 1.11298299311218 0.7270694074642317
Ni 7.043814738354814 4.470580605133243 3.8976175878815744 -0.8328893287145397 -0.6382131106514557 -0.536618797446721
Ni 1.552363226742599 6.515532882121772 11.09708128796399 1.5651590494327883 -1.1455881807417108 0.2682568196637122
Ni 7.829311418685448 1.6660325385079011 7.8272151745243 -0.29197961720194876 0.15932843469140948 1.0852737001223698
Ni 1.0164612397075479 2.9666670576287038 12.060840872101204 0.5647677490771112 -0.6008999760232941 0.16262716004733926
Ni 2.256455758815328 1.533497029292269 9.9702169115152 -1.4910806822601352 -0.8722760580422785 0.03501251151944293
Ni 6.049911729732771 0.09101098974237302 2.0105502663925394 0.9884788651888073 -0.2554144164834053 1.118723238030067
Ni 1.444642715975149 3.4914457310518987 6.288276408700186 -0.3952580029773258 -0.045303094812173594 1.4981756414337037
Ni 3.454034382554297 1.4876818190675436 11.992583574048552 -0.7879173919895398 -1.1646565102270716 0.3037030762864641
Ni 9.220830397495654 7.860056333048948 12.108119676222227 0.31771893094958187 0.43628535323228085 0.4424521441646251
Ni 7.726595454789206 4.890348777132454 9.459038330278046 2.146120634660943 -1.4017862694686762 0.7890512484836669
Ni 7.334645009360902 6.585133853796638 8.163956025421905 3.096841821485002 1.1250592075504238 0.5105292994485208
Ni 2.782358094649228 0.38784766124803915 3.8359521278870172 0.8373800174960416 -1.2524864226578623 1.7729702622159336
Ni 7.106126068171995 0.9534133916715849 11.707709658073327 2.2715120502852746 -1.8699412177160442 0.1696771249155852
Ni 3.060733653724894 5.046632277633161 7.809649215006358 -0.3621545355551376 1.149331192723911 1.4804013481694183
Ni 6.947472489813412 7.53120094836294 3.9994025172089462 -0.6439849801382264 0.11550835218266557 0.6322509795307498
Ni 0.7451496457532992 0.961382896500453 8.269333841701155 0.13888456501476082 0.24250850705501462 1.6464761004457256
Ni 4.929412570351681 1.4197144070317698 8.293989261201933 1.625330833826678 -0.05964702223867147 1.0986730042474109
P 5.5998330002683145 2.8128480603985353 4.566649019977917 -0.6192674227868883 -0.2694858069748069 -1.044607332751259
P 5.31632069874371 0.2610796562379435 13.081455885711856 0.21874200076303618 -0.44715931983230733 -0.6212160618728269
P 6.518252334006505 0.22038796890438372 9.880662905890237 0.163038536553145 0.032404641582950644 -1.4574907621198319
P 6.812604672904973 6.476157485040753 1.7322681884754112 0.28724081696538273 0.5581983233897096 1.5706115879069273
P 1.5201169483177355 1.7577951545350818 4.957150035321822 -2.3019662530100744 -2.6887151900751243 1.4296158900864346
P 2.0319876678297186 2.461236151260427 0.1445388676735197 0.3419996578738175 1.2653352535960722 -1.1505282983558056
P 5.449375547728995 5.786398730610468 7.674709634784292 -1.1419850367714848 -0.3753823470993212 -0.6436245114750141
P 7.435529120251456 0.1474103444726415 5.637501185888363 -2.7825949082444206 -0.5565376478578351 -1.5257941744819206
