# total energy = -340867.0465344449 ev
CRYSTAL
PRIMVEC
9.27916512289308 0.00000000000000 0.00000000000000

0.00000000000000 9.27916512289308 0.00000000000000

0.00000000000000 0.00000000000000 13.58099610973892

PRIMCOORD
 96 1
Ni 4.307917403750057 2.906039681876717 7.115953326408955 -0.6993860826163504 0.20493337701471803 0.5567605625019185
Ni 0.48489855272520527 1.2675803637624776 1.7503456364054821 1.2355428528249883 0.3336101482585416 -1.1437220740672496
Ni 5.903748236881135 1.3560757623877309 6.880539977068224 1.8728614766866325 -1.0014958462737653 0.4935247944707242
Ni 6.64156250036963 3.410148890339981 5.931703577914825 0.7987995861196824 -0.27976404897236334 0.6970582058141221
Ni 5.75404746451863 4.065072370991169 1.3842705058838862 0.6269195400155073 1.5463298325414272 -0.13973868548493998
Ni 2.4155244504487894 2.500076203859013 8.840088104840572 -1.1738330345200172 1.8360309381218445 0.19068278063297484
Ni 8.603048117838208 3.618159936893646 10.10221046362545 1.8055983326636 -0.21180722131641586 0.3581040196348477
Ni 6.8369909988960496 3.033739553521966 12.822103595937143 1.1040203846022534 0.16116934455489018 -0.1290110146547907
Ni 1.9588781720440527 8.389042730557698 0.9116742703965296 0.02598331143763912 -0.3440979351637428 1.117255909455921
Ni 1.8583940919651107 2.691273403048837 6.425509201326869 -0.17378394799510716 -0.6731135220730666 0.25370643265336307
Ni 2.5711546093816557 1.4515119765914357 13.498029539128796 -2.263426445063663 0.5804789891647809 -2.3115117306066644
Ni 4.687685798374755 3.0319115579752345 3.1818777144627983 -0.08772963940750053 -1.532458988096606 0.1458352853009811
Ni 1.6008137448498323 6.227043632026616 5.316484717288549 -2.3850689351685244 0.3609890544921267 -2.095455504205907
Ni 1.250525258103128 4.883587534326979 9.188032674454767 0.3349977726346876 -1.47378255730132 -0.279975393652221
Ni 6.449752876275825 4.2496628045501685 10.731472412883313 0.08015414105308777 1.2222849593738176 -0.2018197710864008
Ni 2.7512910436389744 7.455521593586428 12.337995628087986 -0.8618818592921479 1.0117013260518577 -0.693456861616109
Ni 4.793421885963595 0.1726843366756951 3.195377971929495 -0.7991700820852236 -0.7175038752629836 -2.0049801837324694
Ni 8.20075918924439 4.402555609745544 0.972001835104742 -0.5837131798313625 -0.7839231832284822 1.8011333549137107
Ni 3.0789290881035942 1.5180064744994324 2.0074481065123515 -0.21991339536331805 -0.4009118588289934 3.041040912465298
Ni 4.609675856438874 5.250430051811594 3.440175341048952 0.6937381403019536 2.1003804523113505 -0.3233591599544947
Ni 5.852156078303342 8.722238994984204 8.670121635655423 -0.08255529429541265 -0.1577297227457219 0.24618852700976313
Ni 6.095910469252989 6.210693742923366 9.206856389003493 -0.18359759165141928 0.02306742334242479 -0.09625824570380195
Ni 3.03472314503442 2.4550536942511987 11.489549589444888 0.7413372302371556 -0.06201989334622221 -1.067307345451936
Ni -0.04693308972493126 5.2076623793502534 3.6685662181573666 2.0718023835633415 -0.399413419906596 -2.372712727596017
P 2.876346353198851 6.046805126951967 9.650384711548261 1.226406694851675 2.6348510930668168 1.0105278745690467
P 5.284215492347878 6.847300151446396 4.878361508479673 0.16794471560551077 -0.3717200677563856 0.3342500958353856
P 3.6201178407533425 3.441540306251613 1.275625400001137 -1.0818456482774272 1.0997880916884608 -0.5417167807949187
P 3.9224330433548693 9.395433151937493 0.6926933947294349 1.501091015308286 -2.2612685181803958 1.9407895079871738
P 6.13099499291893 4.5597261101035755 7.802771153726257 -0.5715657458355512 -0.24339965141071626 0.12075623084516623
P 2.529481878415313 0.027926575621533268 11.03939408710583 -0.6441428458723294 -0.28713900128019576 0.9391977595654922
P 9.12881489790589 3.154591401240882 2.866310008105732 -1.3604616996882763 0.1597945756945506 -0.4964442821103644
P 6.484327045855116 8.847164396231117 10.840582404943175 -1.622596465614651 -0.12619025737654396 0.3949170746981392
Ni 1.3822894041111597 7.611894085736242 7.1440933228303605 -0.975385779450275 0.15480920666481723 0.5863434183653579
Ni 2.558971065458519 5.56226567792046 0.14439958527698507 -0.5372685152155778 -0.5622673512527607 0.3135653137925245
Ni 8.662444054359153 1.1339047097208081 3.799772686336167 -1.2047572349026994 -0.13229508472270118 0.48551760789553156
Ni 8.09947710095723 1.3357822280694518 11.552185810457805 -2.3349951584405853 0.3088393690717649 -0.05039876416752611
Ni 1.257809402794417 8.036675710803543 9.573149579907568 2.2400538317759935 0.9216677211015287 -0.6739789553971554
Ni 8.52303387621657 8.450081079321137 10.717457161747362 -0.1231473567851621 0.8398570182816245 0.847321959200102
Ni 4.890017995818779 4.79501790238003 5.7780211157599215 -0.3700635059895691 1.2830591532383968 0.17201117236540053
Ni 4.383820975182853 0.15211892281670913 12.274286735576583 0.343196506395396 1.760194450607504 -2.9239053090918548
Ni 3.269977820650028 5.037630956008622 11.475032335470976 -1.7456237518821809 0.9718381713083326 -2.0758842669421993
Ni 3.032960103644172 0.5225571168209092 4.668181921016003 0.801376088597607 0.5357595347702192 0.47287266543801143
Ni 8.567230540120532 5.290748024657009 8.185144210025918 -2.017373672300816 0.6289450550859684 -0.9669114234306767
Ni 1.043553478053188 6.420718368327999 11.132057686744238 1.0084414243536632 -1.0642230500996577 -0.45362692983452196
Ni 7.951659999132727 9.38114323751127 7.989767674824684 1.6379042996163145 0.15787370452275393 -0.4859122722307889
Ni 3.7157860340873436 5.159178741118425 8.008088458618927 0.329604112422942 -0.45199505065805384 -0.9936856062007272
Ni 4.886018675612478 8.854160886800837 5.647276750008671 -0.0009191693801597074 -1.239124913749292 0.12441876729841797
Ni 3.5145023823122568 7.740002240650811 8.32084550583333 0.06119379790050106 -0.14086765688306063 0.8188914717735509
Ni 8.085038719887617 6.092644203098424 10.789897748723101 -1.2490504003931198 -0.481005578957791 -0.7063530008524866
Ni 3.020776559721035 7.692270214801142 3.2026565491216568 0.487891764554663 -0.1563672951805565 0.4202041313997022
Ni 2.2695167858405934 5.523710746465293 2.72214796945817 -0.5565828992734737 -0.2570498952042992 0.09593814336022187
Ni 0.8410728139657753 1.3910582152363422 10.681929093984294 1.636883571661284 0.014043622577259685 -0.47596544543072217
Ni 4.469467670088074 4.0633650045921925 12.890415882310139 1.7303339156026458 -0.09068280849855351 0.631479648582364
Ni 3.8316735284179284 0.789270018337674 9.501156248695038 1.1864630645792016 0.3173363507991825 1.7292460818551056
Ni 7.321020093840906 7.515019600924703 12.800075785640773 0.5008364976407891 -1.02618177905622 -0.6674396116167408
Ni 6.202500240041318 1.4093010540428064 4.399115823201518 0.6944727044751331 1.6572647064207975 1.2374567820182494
P 8.645908581951666 7.345609881652264 9.017578121179476 -1.2586390725228194 -1.3380933592954052 -2.2437677902924715
P 6.876956363463416 9.173540474226925 3.051446056579186 1.1381016425566788 -0.7470584489916489 -0.47031878866790616
P 5.4744662166860945 2.410652888712577 11.080422844006472 -0.09630863932576317 -1.361180837242488 1.062550547493241
P 6.83274114122903 5.26711399086247 12.625492003846215 -0.43576264795959146 0.5127689874123169 0.5149361702669648
P 8.91516211890343 6.923584168652877 6.01972202744819 -1.2936497842700494 0.8965079340064496 -0.5480067275686885
P 1.3021452541765564 3.7025910611561166 11.1878755771595 0.16420864560184625 0.8325337451473339 -0.5620459792705739
P 8.065617427099252 0.9592986579297423 0.08260684038182409 1.114832644726409 1.3433764620712154 -2.0415741808064194
P 3.7889244142870133 2.533648223595426 5.014402421733839 0.11202373606817481 -0.1259819980204798 0.660961717201881
Ni 7.21955242224951 8.553627283919985 5.394561469213956 1.544191703152502 0.9172122564333364 -0.8775573610458757
Ni 6.624396044727738 6.844664868526236 6.898426495930555 -0.05163752167063365 -0.7848045573921709 0.09210539987769299
Ni 4.816452774019365 7.377901376589444 13.252404468472445 0.5445971876665072 -2.07044766930766 1.1690294424837868
Ni 3.411234552669765 6.747113004654233 6.271350717996598 2.5544807222378654 0.4711271435018144 -1.0072036952918202
Ni 7.166930276333204 1.9527724813346663 1.6727578964867387 -0.015337915908651006 0.2862990218774037 1.5088318355959691
Ni 6.5871773130630755 6.336463548204553 2.0199155928909707 0.09481997059537864 0.37730681781554376 -0.1827866657143497
Ni 1.7026618622149137 2.4410699922769665 3.7290023490985575 -0.4132981483084882 -0.6399565757051237 0.256283706462236
Ni 7.51378547195153 6.158684021911041 4.5177453108522 -2.9467133081253056 0.37846150024527725 1.1615390476440124
Ni 0.9215547255140895 0.4574062420355858 5.439446647176636 -1.4668035548803255 -0.6018024332329055 1.9980963121284427
Ni 4.522414586786794 7.690117448471996 10.617215267880447 0.1830322060662525 -0.48693171463423884 -0.05348383085075305
Ni 9.116167395722162 4.9086505595641405 12.596781338764282 0.2883898429681614 -0.8116712998760279 -1.1557183271971772
Ni 5.097444454964099 2.106416898912201 0.35011496635724293 -1.3424894314805718 -2.0375519470209036 0.31811616638800055
Ni 6.988965166735454 3.7762583537728607 3.503720920252628 0.5676669250017772 0.36692984545659385 -0.09622045048733106
Ni -0.02439399742538836 7.597520658823113 3.5886828127652155 0.31510540458613473 0.8041659926379182 0.010271042908704894
Ni 4.435710067047424 3.5478609812487973 9.64669067587743 -0.1287569896624557 0.11984657454670329 -0.7605302582258385
Ni 8.337701109440625 8.695329415869889 1.4026451088363585 -0.6571796244516295 -2.4050888299338777 0.8953676497544193
Ni 1.8564733047662612 0.45759368117286475 8.0015429354785 -0.33949231807093144 0.14889541228354358 -0.9090762575897634
Ni 0.5017216792542588 2.7332709047975943 12.866200972773338 -0.7129681921761591 -1.7820033189524795 0.8462143279582199
Ni 1.3658374441905794 3.649217302857652 1.3601771534113611 0.6349020440003517 -0.039779079670150846 0.009326933827880711
Ni 8.891760064239188 3.6527248273077246 5.2078368276562355 0.22694484828880268 -1.7892011222524993 1.0701072767945763
Ni 2.56469631039422 4.292532547828837 4.790275321040262 0.9005322246744943 0.3994332174009379 0.2702049445290185
Ni 6.137286266932554 -0.05420609941796614 0.18554525965929597 0.5105843210561722 0.4135979389370942 1.4818871886863254
Ni 0.5200721563771803 8.97581074272797 12.60510660579234 0.39890022771560335 0.656960823572604 0.6050242826043127
Ni 7.047006345135471 2.211883890709897 9.16690123151786 -1.1324380165129981 -0.45840815327324924 -0.24094759032579793
P 0.3317477867369403 6.866322440130654 13.059540731210575 0.7861207051004332 1.5607241535898864 1.8243990103098708
P 9.373163155429094 1.7956762142983298 8.71203284116771 -0.3485888810555609 0.07602134983163682 -0.22871685258756094
P 8.802318190762326 6.354214591254791 1.6800912207536505 0.06703123051788457 0.4936880595214658 0.8578624537201096
P 4.111876480319657 0.3825567837708542 7.498353292287729 -0.7457461579381286 0.07922108771585712 -1.0294702199995045
P 0.9413341940796331 4.653417841247456 6.692239733257535 0.23639930883348315 -0.2862540275720812 0.6206401347646988
P 1.4731231523697954 -0.049556309730316515 3.376738328078254 -1.0376787239522256 0.20081189864717672 -1.5576964225071561
P 3.9981603106486405 6.273281712277181 1.5316644777747297 0.7500121323033341 0.894179542983589 0.3169666261645896
P 8.024881891819303 1.5344120385939537 6.071126746888703 0.2546016907741228 -0.3609512592756558 -0.7910664791414828
