# total energy = -381175.99827536766 ev
CRYSTAL
PRIMVEC
9.17351495592187 0.00000000000000 0.00000000000000

0.00000000000000 9.17351495592187 0.00000000000000

0.00000000000000 0.00000000000000 13.42636641110144

PRIMCOORD
 96 1
Ni 0.3869654651420302 4.265409261266764 9.654618140723159 -0.22564592697172106 0.07670654882411951 0.9621150304832979
Ni 8.536295110977893 1.0332955540783857 4.21919492748951 1.1944252568490719 0.5959799130138574 0.5617757563283228
Ni 7.341096190978916 5.28607288521468 3.977587476646201 1.4215446830425258 -0.6545383301740405 1.8877088261121102
Ni 6.533771831456703 5.758719897641821 6.24861770499296 -0.034947462609462396 -0.3988125530978035 0.9281181047125628
Ni 7.8517582494922324 8.894429135882412 11.596620989852376 -1.5947377915311696 0.5725239959837624 -0.2649786631330727
Ni 5.3901739332325205 1.3814396211673055 12.815144489045055 0.6963881763302909 -2.608410639487101 -0.09174647387637747
Ni 7.822779115663509 0.23289903307072038 8.878319526222196 1.5358636429027808 0.6027827948683039 0.6232112379259848
Ni 3.7578019832425147 6.21100170680851 2.1458291785183947 -0.47485164354125314 0.2617920378749749 0.8003453333402475
Ni 3.241030363751062 4.180856973675961 10.531870370251573 -1.0446335580035042 -0.20657785459667646 -0.25794669598695574
Ni 4.043245075428197 4.8261587115828135 8.22916766407732 -1.0534465283094439 -0.6150148181581215 -0.5389839552447879
Ni 6.471428623637772 7.3803221410427415 10.230623146454583 -0.8975497450074026 -0.05392503215322971 0.10279527549137137
Ni 1.1198384944203232 1.5128777438320584 6.488936276981273 -1.1929198759481392 2.3814344237397305 0.11446088475475773
Ni 7.81443121702972 1.8732684534221955 13.141673920132952 0.3896905361918772 0.08411441125241642 -0.512153208205189
Ni 1.890808214068134 0.5900147978122174 4.463944307214217 0.4936101550956789 0.6689226239201705 -0.2819571999689402
Ni 6.6343869437813145 2.9603391523261524 4.426431052397566 1.069198391827062 0.43552070715211444 1.5523310444301845
Ni 6.061409197994011 5.3205744750626796 11.448085269963824 1.3461733080900622 1.1928656256714358 0.7635813863473365
Ni 1.5410404348273676 5.704596159246927 11.287210255072738 0.5749254063364033 0.8701685247809723 0.07849372263152933
Ni 1.5022089459077768 5.725539293951256 3.6375115159841136 0.363161122442781 -0.5031265792265465 -0.8236073891919817
Ni 5.749537209144654 2.6314961607597507 7.852893930647028 0.5961426638439669 0.8164849192145874 1.3521387816448778
Ni 8.833406914220914 6.85490907043807 7.489939223619369 -0.744665266169124 -0.011059857358587406 -0.39893982270428713
Ni 5.400053808868334 3.950510012473284 9.868070239383144 0.44372972532546806 -1.8197401713816206 -0.2750093078961973
Ni 1.8107784693635485 6.884383574075832 6.275201634059836 1.3899584235958127 0.9976775009689398 0.48543558970468653
Ni 1.2437726818296486 3.0594865022536126 11.658919247447896 -0.8142053791517914 1.4818031136129513 -0.6357343100936599
Ni 0.7530997124625137 8.949250061415952 10.349204587871801 0.7224967004918847 -0.2812959122358575 -0.9175745248687617
P 2.105312514896576 3.848096891212166 8.465646202694089 0.9554062510045546 -0.5666793642775272 -0.40364622704102093
Ni 0.6234329955408207 0.7361296270969688 2.1977888847289915 -0.8733011568726831 0.14983155094456777 -0.4277690882311536
P 6.996520621218067 7.737988316683169 8.144031023582151 -1.4920363613051855 -2.3063330146192023 -1.147815527410333
Ni 7.223271564547726 5.116115173139731 8.981447264300426 0.3780943467138456 0.649082963486424 -0.34110311420147704
P 5.978746654489538 7.9542355853582265 12.655491386349595 0.2598063749035138 -0.10045377184238828 -0.12139052199505546
P 3.6484353376249 6.847276705972892 9.927052271312602 -0.01685923764918387 -1.4177906153167326 0.49331756355592454
P 5.514621837480848 2.639348689584502 1.0021899994767913 -0.1829710138110139 1.2109348244683211 1.328147818046919
Ni 0.23886090045764272 4.0948277501730255 7.404547559407696 -0.03044906051847659 1.19841612317602 -1.352509534720735
Ni 5.589119952651176 8.276602075347204 5.989757624522656 -0.015448987565218553 -1.321363448135234 0.44676568393831445
Ni 8.092819876194103 2.7032147008904763 8.585436713385961 -0.7485391473022335 -0.7905082926451676 1.1408383247615514
Ni 2.7055264266659877 3.936685525395131 13.051501937264062 0.4767910266558111 1.1651198230167352 0.06349904899491
Ni 7.580965260733101 3.5701669077968936 11.23664675784243 -0.2689361051189239 -0.8389992982670196 -0.3382345344044304
Ni 0.7157864402724744 7.859941024856342 4.257662227864309 -1.0116118516618449 -0.4243454072615853 0.14464409320635732
Ni 0.1056807272977727 5.739849977323465 5.521740485107024 -1.971171976933773 -0.448696325302124 -0.8456556272412726
Ni 7.71624708617539 6.433798865180847 -0.3380385229845441 -1.3761819386370107 0.7512472902620159 -0.19053519931151702
Ni 2.8868501238038644 2.511589146427605 5.3080067595370855 0.014873831788038902 -0.42638660606133016 -0.6859309855527089
Ni 4.5974996771368595 3.7574625631881737 6.185083774929341 0.5886491836803992 1.6093820238069056 -0.9841568407746856
Ni 5.494174072585557 6.499279415123686 4.0965725527226375 -0.8289275158533144 -0.044646177954465044 0.4503629143712696
Ni 7.0201424222971935 4.112422551908857 0.09908772208007603 -1.108983899255116 -0.5626501885134761 0.6619117398199761
Ni 7.677259647501102 7.5558848707718065 4.965432850745349 -0.22411457792885917 0.7893484680091115 -0.28253698373181024
Ni 6.3727674700043675 1.637674241649709 10.040129603740512 -1.1111899057674992 0.3670874540803807 0.7527027917616198
Ni 7.141764883931009 1.3483599261415447 1.9609745954638742 -0.23943501033601344 1.5694260522392582 1.0640651843655544
Ni 7.863601257334235 5.47302912055162 1.893628152573658 1.4073295678844084 0.009240544761661505 -1.346076891721514
Ni 3.186392908517166 1.3795865711409039 11.769095914438438 -0.1826650525348209 0.8000493993663835 0.3383021544175722
Ni 2.963549882569917 1.2414334355091912 1.756880399437216 0.4505608893146886 0.24107614548386222 -0.48692220155254207
Ni 1.1050691352990045 8.725205305006037 7.952933863582254 0.6044480983858687 0.0054656511002615545 1.1406827730202937
Ni 3.082301034014308 3.5916604534001544 1.889452368553767 0.5752272538475384 0.44811088511229924 -0.9969419083544959
Ni 3.2823111811708965 8.83842482691617 6.5336993606883444 -0.12023378268279294 -0.5640205864984416 -0.2684661074610408
Ni 3.571102606325077 4.419304148607907 3.867612626985267 0.11175274179497528 1.5182492722551273 1.8367827286862044
Ni 5.022187553237134 1.429995035968013 6.19910090582212 -0.4893557506946992 -0.6544090036850279 -2.1230192727567885
Ni 8.830361307246829 7.034810872753709 9.845111683437228 0.02169779668840779 -0.21640692487195634 -0.06068883323962451
Ni 0.7898965157590558 1.019416025910339 12.166758615401193 0.05103382664836372 -1.137758400284647 2.1519691230219196
P 7.868059585615576 8.515140985428973 2.8538410648434667 -0.48020699431589553 -0.18974869885447965 0.9503409206665053
Ni 7.707917534571565 8.781750851356229 0.686867851642633 -0.7125982104312502 -0.9404105489266708 -1.5552448756428698
P 4.2026348982436685 1.6104839432425113 9.451799063279024 -0.4835982793856316 0.49687519900019594 1.1936698667402863
Ni 1.980892131193195 6.305654034394698 0.21471437432153417 0.7452908155682648 -0.06362991814581945 0.8272935797943171
P 0.13460390268510516 8.964147849747022 6.191756589727382 -1.8731700090659869 -1.8535378366573563 -2.380206979090533
P 8.404132280629547 1.7015769470156128 10.652533282218252 1.9475875047456137 -0.7806913065547458 0.3806212269007574
P 4.080232687836369 0.35519758275872204 4.319342190550029 0.32714485224917206 0.1679963947790526 -0.041402731316502885
Ni 0.3641142393214063 7.839309789661407 12.718810656162631 1.4249925323818105 -0.11338642074365633 -0.6010583559780294
Ni 2.789812682322307 8.036833914257823 11.570533347946037 -2.0345057039954124 0.8234860331227689 0.04181796447705056
Ni 5.286916848593041 0.09694662368323395 8.22072252618472 0.8333264162519584 0.5676304153368869 0.17666152665321833
Ni 3.0954925485586906 8.727801409745995 9.157936519042693 -0.41760191789016465 0.646405673764577 -0.2624911208245285
Ni 8.335707032377426 3.197437820555717 2.747504431224468 -0.5618798860063549 0.6526696523964179 -0.8840938766128129
Ni 0.9233234564719467 2.6242582574388065 0.6695766932527117 0.0757891792161727 0.1428414927799798 0.9893155021574898
Ni 0.08816390043928961 4.5808772679891385 -0.44720518597554726 0.6161733572425968 -0.04039665864949172 1.6312852516379004
Ni 3.3910815483146695 7.502944515809613 4.46252149504048 0.07279461536422302 -0.884063794705826 0.5334419423806361
Ni 0.20669855693010053 7.425116414700752 1.6952664860593674 0.6567114265659593 -0.8440677139288625 0.5193805791915636
Ni 1.8746444806695235 1.8995872679060857 9.838518678219533 0.4910017709385544 0.029705497484232714 -1.6661761499778145
Ni 1.786679645505347 6.365914854312675 8.677259011600146 0.628234402172189 -0.4795865871230773 0.6930264589469096
Ni 3.032809920685417 1.6174099470540615 7.603324786150679 0.9559328129319857 1.538767189702821 1.4828436390623236
Ni 2.1001845200215348 4.545852787787155 6.051344017355557 1.3049546677599073 0.23419458787268055 0.018594989393367976
Ni 4.029035300720792 6.1648405794181524 12.005440519736464 -0.7971738775908013 -0.31550855356182433 -0.26222552586796777
Ni 5.133654933785669 5.592495806164621 0.47169938832948066 0.6867776498237205 -0.5738735680331214 -0.6133582563913049
Ni 5.777681553109998 4.333284098619954 2.5896236516235653 -0.8930150903618428 -0.5168886660076453 -1.1950186674586967
Ni 4.890767777602345 6.902987462459704 8.141842222907403 0.6102737039287103 0.8405532730177008 -0.45257457731060763
Ni 4.575208035730149 2.3778943390772347 3.5838464533383285 -0.1219728768610867 -1.0004787178631607 -0.8266528608865247
Ni 6.331459132039587 0.6069830484747658 4.324323409185355 -0.6848917456549172 -0.794997952985405 -0.5078635796908996
Ni 4.807123667994778 3.4410221638776872 12.232682246117673 0.3483734226106452 0.9392921190515114 0.3041553333325342
Ni 6.078765488340306 7.176853578737868 1.9338934618849644 0.8697684611290762 -0.2502344149443626 -0.27235053011711163
Ni 7.603256902139811 1.2664587843805932 6.6510598072614355 -0.4951353334909537 -0.2391673584969236 -0.9030837874517544
Ni 5.1855403345249105 9.253324562530452 2.228817381804735 -1.3698793934577504 0.5575144099488075 0.2775688410932574
Ni 2.36242779281727 8.311828372878797 2.6737530401736898 0.7840195995970305 -0.8461703620941621 -1.7300593217850204
Ni 9.206814841570774 3.4882382454909955 5.07591866519079 -1.3854157985304525 -0.5300388302363581 0.7321380802363907
P 8.55470635554714 5.429298974631541 11.192877165807927 -1.005654091416513 1.4478311275428808 -0.1634450279629443
Ni 4.032328592599396 8.414709343404006 0.17918535079552997 0.3598148316783674 -0.16895593047884452 0.6068073426466646
P 7.452765388857059 3.6005312423879277 6.5852967130571445 -0.941378569266895 0.1121152673407166 -0.5347802015760855
Ni 4.792005715304136 9.14304056541462 10.896624003567238 0.9380952705299328 -0.8372077535842355 0.10382011721145992
P 1.030488458493837 4.79810610276729 1.6565184761261142 -0.021336813804563252 -0.34211638595733984 0.07731949981777006
P 4.123779363456803 6.119358292136477 6.057681081505251 0.05274129625777369 -0.45627619453191093 0.21984603246049234
P 1.8788642975613286 8.82927883247893 0.5819696251728408 -0.42456883612630103 -0.06289098309726589 -0.7265436168677487
Ni 1.2782467511327014 2.991162162666295 3.366540561034327 2.211220195373753 -0.6204496160204476 -1.0057903598840614
