# total energy = -340884.4608274476 ev
CRYSTAL
PRIMVEC
9.11753563671814 0.00000000000000 0.00000000000000

0.00000000000000 9.11753563671814 0.00000000000000

0.00000000000000 0.00000000000000 13.34443501896540

PRIMCOORD
 96 1
Ni 6.515418179475642 2.3114502326552313 11.499700367812567 0.436851510148396 -0.311148991041548 -0.07587839649586933
Ni 4.820249519953041 0.7662075906806166 6.233105547309488 -0.004015548917296311 -1.3651171961824167 -0.39524720434404836
Ni 2.9801758696503753 2.000332570767096 4.9994127384029605 -0.6590192487635296 0.6794173528039074 0.40561466362130144
Ni 3.6324625902435526 4.752861815501052 5.018454711173625 -0.2549547032381674 0.1692536642249214 1.0404336609895435
Ni 3.958405364760417 3.390045557911057 3.1715447327965314 -1.6923402099676919 0.13846830341294863 -1.1611487541841292
Ni 5.395064541895353 5.361977005776253 2.667539226357599 -1.1484354203825191 0.08638315268193511 0.7835434312915602
Ni 5.367666347892075 3.187499508066526 0.23700942206183206 0.6064391606739685 0.1838899260808575 0.6315639807660544
Ni 6.193833586900065 8.212273583055017 12.558114028367475 -2.698449643754069 1.1160271792551426 0.6781904223753417
Ni 2.2014015798700193 5.851360720626813 11.996926986650355 0.14512437527688554 -0.07792396617098837 -0.6073884119611151
Ni 0.5841568487562081 7.668813765497821 11.551756936418794 0.5288826051447278 0.3057630441392863 -0.1295972261755639
Ni 0.637007554699436 9.333529856644066 5.414437481202562 1.0225704075558775 -1.7850631888247257 -0.009611297837518932
Ni 8.599504430813157 2.5236699876037485 2.2135479605858817 -0.16572071137099847 0.04245225562693979 -1.2966410056878894
Ni 1.6050965268908601 1.308694567206149 2.6658579528220896 0.06101484912047556 0.22837720985995505 0.7233420792113155
Ni 1.3643480035442546 7.055923915549623 0.7350967362453472 0.38222045306707725 -0.4303826145946007 0.0179396151975562
Ni 7.835792309583021 4.28141229286495 3.7669872669228743 0.5851668815587535 0.713499639199597 0.6379930242208496
Ni 7.825288908753812 4.216969552360735 12.751728540493001 -0.5492616830217121 -1.0581544753080745 0.8055240493277096
Ni 7.66515763378557 0.18109522421008453 7.112570251497365 1.5663826374272443 -0.009008117035881261 -0.8587489700901212
Ni 7.094910497099711 1.069787786018832 0.7877869735647955 -0.4351905775062053 0.26108421317467295 -0.856027714504216
Ni 2.111493562876235 6.975151669068745 9.339262962930011 -1.0530732041304252 -0.9886917525305619 0.6275412327599064
Ni 0.3209363358056496 4.916785985213176 1.569145172889421 -0.09960453646821554 -0.4572552706157286 0.6195255615442815
Ni 6.405168940910705 2.452343507840806 7.298485004942102 0.8276147105791617 -0.23677880366008902 0.6891723753081421
Ni 3.081052281780913 4.55864919305053 0.6368005866449021 1.9484771064394184 2.098839333076476 -0.4266773978288716
Ni 6.239895375953163 5.938788767980368 5.0327336834293765 0.41213472412800634 -0.813559003817044 -0.5862058643462291
Ni 5.121210247358763 3.657535812709115 9.33297733399628 1.695706041116131 -1.1395448027611084 -0.7829685326246968
P 0.03908140391868547 5.886563524968462 12.809189072355714 0.9956234466533885 -0.2434233055598001 -0.2569192831637059
P 4.350313508200315 5.84539785244773 12.379245306312331 -1.3566091587114055 0.7049458360923149 2.163110998571352
P 2.4202771356912125 8.89628020945099 1.4860898955338608 1.4704969445715126 -0.5511100490843605 -0.30486778601852654
P 6.462655001872657 7.95060031586897 6.004889076427943 -0.08575400373836843 0.9274007669305642 -0.9791331623078493
P 4.771680408653387 0.9138049896767102 12.501880716775256 0.5180122380891273 1.6858445749410194 1.8581398542057417
P 4.07999681741523 6.59695629893365 8.436858539570004 0.47852497862778226 -0.3287654185717306 -0.6560732787613281
P 4.926933802160146 1.5591441482630664 4.028657798848289 -2.674122379862614 -0.7494891699203287 -1.3373197143541742
P 0.5904506834718363 5.823151065969196 3.6633546238282135 -1.6022333285772663 -0.1008458650744844 0.9911672106542477
Ni 1.2207650554032836 7.895867750610509 2.9862445012405856 0.23240252896926425 -0.42655861286282015 1.3239137253609135
Ni 1.8373839773472689 6.637720799894932 5.398064211055779 0.8379798558635697 0.7787470383441814 -0.5529686995596541
Ni 6.124877666352047 6.338009174844767 9.280600739896038 -0.1584149217382046 -2.5485831258065073 -0.2659554252240452
Ni 8.972293102431133 2.447885033009657 10.604208859824702 -1.0197041417516761 1.7068656572773764 -0.23854720841442142
Ni 2.4710618081032782 5.14662081863568 7.358295125688225 0.09847016575345621 0.9884256433533688 0.32918630815923305
Ni 0.5241853476327606 0.43452532760299917 9.590484799238867 1.2215313690372447 -0.01644657559179748 0.22132595944012848
Ni 1.581874164120029 1.4620515133409684 11.787819958301744 1.3444272719332329 -0.49320289235493125 -0.21671442881004613
Ni 3.930897760331835 7.116482585955536 1.167321709656324 0.3192682777145727 -0.49366003449700785 0.7194597134377738
Ni 5.923571601327632 8.534295817331811 8.393769978824551 -2.8280707811890324 -1.0444312121847108 -1.8333634185920102
Ni 6.7509332374785265 0.7841399593879865 4.269445527597296 2.088601200288235 0.39000729610134766 1.9526268669417342
Ni 0.9883773120570127 8.247011393089123 7.671248147460841 -1.0734347985059125 -1.0425365662651593 -1.0693313178605004
Ni 5.584043699002153 4.926031166151387 7.173301243323133 -0.6454667068900755 0.16093537416721318 0.25520821400987015
Ni 8.346748113289408 7.5636885818513 9.400206393331576 0.5503104360012006 -0.174677406343654 -0.2759613873968215
Ni 4.667220805094134 0.5775858409631425 10.380048780461312 0.13985875600257203 0.42516147540497745 -0.13585863370424345
Ni 8.473217447405704 7.191437844824404 4.835716507076889 -0.15228875423580868 0.5867005445944605 -0.40863082473980594
Ni 7.758676194814395 6.6471392140065415 7.0389625643668285 0.18755143409284472 -0.3395396263690991 0.799768377790855
Ni 2.4262308863348534 5.673377311263091 2.715792870930959 1.4937348320535306 -0.3236188413737846 0.24761523215396067
Ni 3.346664324277914 4.983188995837426 9.828083214090253 0.34192098211708216 0.7162293794259342 0.4373536465957952
Ni 1.118229251822298 3.385997372174799 3.945882429830799 -0.11461206562064133 0.43351241847283406 -0.12324351604339417
Ni 0.5476502368463497 0.34472580928097485 0.46098715071638124 -0.16939893155353405 -0.022408192491871082 0.09432888989157304
Ni 1.0812120579276863 3.8187976620721678 8.900711331675813 -0.047967014797581906 0.0453948831950315 -0.7537111784214762
Ni 5.488373399609011 3.206491334392259 5.176373160290088 0.4587318551612551 0.9119954881190874 -0.10076641798680067
Ni 4.482071012872982 7.0606194463022645 6.226700478661467 -1.4383892654036905 0.7166556683300754 0.6795549068230361
Ni 8.0837163333225 7.557880711774732 0.33575962492728995 0.9091271654323569 1.089453285421356 0.07054721409094301
P 0.2922653338546655 5.927328025929745 8.343514123468122 1.599593319851258 0.6700531379801881 -0.16653163730806803
P 8.815489727899228 2.108393600825947 8.31474374038082 -0.007778101283522089 -0.33191810526809934 -0.24289031587446555
P 2.2005536490739113 3.5204719024091897 10.825859793434448 -2.3973870904142456 -0.08129313975353741 1.3347624951499595
P 3.98627767060668 6.603530041987348 4.0390134956033386 -0.3595574642519227 -0.040301527832524144 -0.7805339550412751
P 7.241219588337847 4.196518920364277 10.030384002231395 -0.629082094884465 -0.6792941969624817 1.2839405274020854
P 6.510604120762254 8.079923438578618 10.3895100469895 0.0642130443427991 1.4632505474217445 1.0754081201821994
P 2.5455429551291604 8.6243132447509 6.167463850894647 0.6373415066797798 0.4572969224869414 0.5687259623939108
P 7.182566482839316 4.594034348101019 1.6855223070249412 -0.18328597394827142 -2.0675436082869876 -0.9768736768497112
Ni 3.0464877049202057 2.240497571845412 0.31400792062325666 0.42499203970664867 -2.3043524938540636 0.5655254531787423
Ni 1.6982959741792145 1.463957078248351 7.327242623479786 -0.15673933380799457 1.0269525957839734 -0.3756793095144498
Ni 7.2260206567559955 0.9088778735238413 9.325050548682984 0.48822729351721067 1.742049404267361 1.2601136001858169
Ni 2.9987209367394496 2.381445552243638 9.168600934526232 -0.4877066451270503 -0.6852946375202907 0.7972057592700011
Ni 6.082271423231477 2.839829646591322 2.701674367298987 1.607889498421779 -0.3237162861835974 -1.3263148786032386
Ni 4.371447955354923 7.399946762848018 10.883747937709392 -0.5059190543700189 -1.0291704293708985 -0.9052887655228731
Ni 7.38868660657712 6.48890438641024 11.592536937190328 0.24367527366960612 -0.405657601044095 -0.27897857695659056
Ni 7.863938141492546 4.458073659589579 8.042944538332863 0.293269796768282 -1.0370390334856978 -0.27728010620824506
Ni 3.0298390852030725 8.397496315559705 12.754143775631592 0.08136693041426632 1.1555224091362875 -0.9128377815147247
Ni 0.001947505570416017 5.1854524020832535 10.641306288031203 0.6850724942071557 -0.1661778535130751 -0.4808109464484816
Ni 8.634050772602981 2.1056856927996663 6.0533423950274825 -0.4194741952122131 2.1158685206446206 -0.07988366100052048
Ni 4.077288909388949 2.864766106025254 11.5610577343232 0.059557033628026466 -0.20096179396147973 -0.5079013749073704
Ni 1.1176913172312186 3.722334137095569 13.024061118364317 -0.07969597046974662 -0.652352121155999 -1.3047271251301338
Ni 3.2535195822022116 8.907832126856032 8.425209064535732 0.2628343630965603 -0.3929735778185232 -0.3949893226969714
Ni 5.591082436363395 8.047401189656924 3.912388251630985 -0.4812932854015389 -0.970064881457994 -0.9166792667480019
Ni 3.3270433880066816 9.11360578424704 4.150186340508552 -0.010845941575568417 -2.257004600697719 -1.1198270126172067
Ni 3.9399058853485536 3.035054315475909 7.010912466579446 -0.4562489408384013 0.5636652600415517 0.4426061532439861
Ni 5.7883767857933215 4.706234739250549 11.497872301956441 -0.3597209864129805 -0.76270052640428 0.01811419310220751
Ni 8.315174088053682 8.984547070065211 2.658998830909056 0.3940534411462633 -1.0069316725773563 -1.6434442555979372
Ni 4.798960074695918 0.5844869035392094 1.7755834986141514 -0.462928409741106 -0.2473802333250191 -0.08459289355073174
Ni 6.074010936121003 6.013999317841611 0.4747318353952303 -0.18790084701246348 0.1717687173372913 -0.8439707833396819
Ni 8.041912433320826 0.25354498433948414 11.624564103937521 0.33072511340126265 0.43599944656074585 0.17409710836015177
Ni 0.2381746430913225 4.780150599079025 5.904912565045533 -0.5511974665918443 0.9931497883019155 0.1523010955309829
Ni 7.763143787180986 6.526541572714909 2.4433262652886456 -0.05177353302786567 0.2147598761868366 1.3103398433312206
P 8.801694896775448 1.3084483937492144 3.9572118793710565 1.0685502167201015 2.833943437919726 0.5637917583170872
P 2.0624685748044795 3.3096653654541863 1.9473131904181904 -0.7260589639218463 0.1637620449827309 0.2363615136170123
P 4.691746975433174 1.4181961678648398 8.344128645356914 1.7250474703927257 0.894767040055943 -0.276186358923434
P 8.751785507765817 2.05295898533845 12.818477105710505 -1.148323834505319 0.16821879520250385 0.12300337500813008
P 6.524499244775896 8.239507661420339 1.7994304125627614 -1.4978395982505237 -0.18770647161347026 -0.5466458426654199
P 1.9337927971112152 3.539564021624785 6.031337223238162 0.5959035512499673 -0.902997141275219 0.7895438718493691
P 7.3062458511103525 4.11502638858348 5.900402120262364 -0.8331770351582877 0.05695764833196642 0.2660906652503289
P 2.41683982482957 8.682683706650728 10.602260442500741 -0.3470063670597895 0.8850413281277468 0.3727513372343774
