# total energy = -381169.5605322938 ev
CRYSTAL
PRIMVEC
9.27870671257948 0.00000000000000 0.00000000000000
0.00000000000000 9.27870671257948 0.00000000000000
0.00000000000000 0.00000000000000 13.58032517990603
PRIMCOORD
 96 1
Ni 8.292064447240387 8.23638293004281 5.551772947193569 -0.6856854452008061 0.060972425918314345 0.5204848679993359
Ni 7.0124473242274545 4.540089606367049 11.755129134334483 0.3366139680818719 -2.4176445551117003 -0.8017314150544966
Ni 2.490061489700595 7.744249620487357 4.287227227010836 0.3736152278965695 0.6147355963548057 0.05577674064998781
Ni 2.285391783594255 8.878246725020242 12.936780747145159 -0.18375082939983192 0.14983849292310325 0.008875705223075037
Ni 5.643383471372057 2.3967084244573322 3.1487067531005453 -0.24734320943949661 -1.3469801202620737 1.0531973884131152
Ni 3.601464944112482 0.45593243647657455 6.4488883884291255 0.24323587213934234 -0.7856987870716662 0.26863117228399547
Ni 3.348239767335434 2.905478454615227 8.370830458128323 0.459773409051892 0.37974036695770086 -1.8892553446636238
Ni 2.8746917067296143 2.1265310510597257 3.671182360504322 -0.6210831358393885 -0.22588761066888194 -0.2183347380222885
Ni 1.6743982448601729 0.14939181263782425 10.13913849061667 -0.5401291245928247 -0.8435514364140763 1.468841925466593
Ni 5.034858068544417 8.494813461118781 10.60457696181561 0.3447707928610514 1.051279345454796 1.994033969133611
Ni 2.904810387753333 2.9849691324741903 5.831486047174069 -0.3598665108519093 1.2726145608663049 1.3324657286959827
Ni 2.5948737573666216 0.9065240495405638 1.4237070828051142 -0.41360436669499734 0.529656764306591 -0.5192412254002219
Ni 3.9238814346276287 3.122572348611511 1.8429589370811454 -0.6018361146843184 0.9746841253975601 -0.24844467003379148
Ni 8.18586037361208 5.476106952118948 4.593911670799021 0.904900786055835 -0.19640605626999724 -0.6863482755957857
Ni 5.311604766083981 5.939615452383527 11.94905595415331 0.9986480924123252 0.37243766264870054 -0.328664374217492
Ni 1.7323716025423024 1.03915944626319 8.108947320395258 -0.7369365300662986 1.676856512509796 -1.562986981482134
Ni 1.35983153997228 8.281050622725552 6.758411188509719 0.11897651323692414 -0.7369126188068986 -0.05973572529773584
Ni 2.3184889293772506 2.289131102279578 10.107469337750974 -1.6955353198662217 0.48896365746260306 1.6541387591973062
Ni 6.959540140248022 0.32499689876921184 9.27503575893573 -0.5289535675919793 -0.3728629231115772 1.5043694289492415
Ni 7.414660689913266 6.0060509903163135 13.543141427766136 -0.1871274591815487 0.15249058583396963 1.361844696078732
Ni 0.7773264135447667 5.751508237228308 7.311863757280619 0.7460919713133215 0.5283583572101417 -0.61921085851734
Ni 4.524213739690653 3.6184728129715316 13.07804255722199 0.9609505778615515 0.34105374902078034 0.18760619859018013
Ni 3.439505123635278 6.485843620339558 12.703321070773756 -3.1953873205610837 0.39986696250424686 0.45239460008931764
Ni 8.604608394129768 5.070460465059514 1.9534479173319876 -0.6357553931395825 0.6894791079152836 0.8870593869990401
P 6.974775776181769 3.331547374494501 5.486084345127205 -1.768942114893147 0.05278269101867039 2.788604090552978
Ni 1.624608706236244 1.1333290376709895 5.638822059298349 -0.44918432068213615 -0.6323124288963046 -0.6318758555795183
P 1.3843644397340518 3.9142408586622426 13.251178579576294 0.25780631375434954 1.4846616661076688 0.30356809337049656
Ni 9.206017029136953 0.12807584039020004 11.723948969296867 0.20857585886331173 0.7115319739502649 0.16273026128410684
P 6.637485519283067 2.445356682192192 13.076440124624087 0.8469751173836446 1.6048370847487008 0.23954351088941972
P 5.511032003065736 5.844685007049682 7.092949381085675 0.9951567914296152 2.615144615776825 0.2669746105171789
P 1.309494557669855 3.611309651619002 7.761712145960752 0.595952916430664 0.2967384720431728 -0.20022825822956483
Ni 6.656423359076477 0.7092114297508306 11.83633915649218 -1.7732957638761522 1.8851783463807725 -1.7068533159822024
Ni 4.356408334171877 0.21139120103350625 2.684232339498143 -0.1549040803714687 -0.04801046644100764 0.8396384745129152
Ni 6.63282760866264 1.7773918860688216 7.461777033218978 -0.741342372443478 -1.2574126563148862 -1.0859892381321556
Ni 7.096614470119675 7.861680928878047 12.199762890009275 -0.11268168136714787 -1.3669797033124522 -1.549176815071919
Ni 8.90795714296169 5.95196541062215 11.389207573050417 -0.46705400187370527 -0.1460268324864969 0.011686949419625035
Ni 3.0127217433620337 7.585119805466787 1.3895521644907867 0.1960921245740042 0.6271100587597588 0.13349913233313138
Ni 5.004024927126728 2.093090593139368 5.753548624769009 1.5527804732627772 -0.2004213480769774 -1.008790580162966
Ni 0.2901841201700471 1.8980521842919988 0.045018427785236216 0.12088298623101763 -2.2973796620806564 -2.7306843354180583
Ni 3.8449474791535763 7.129470369535876 6.04630016300414 1.2738605174582642 -0.5982849069979503 2.4823620498947445
Ni 7.663803235867629 4.928783896805924 6.863319954722464 -0.4847519333741006 -0.47567851031792263 -0.3687414447440359
Ni 8.586524195326556 3.926405242772561 13.51846656379621 -1.4819514662653575 0.0688654555131459 -0.5800377878623043
Ni 0.6513522001576081 8.916493552863669 3.7625238021967706 -0.33108455362321043 0.8125914976974521 0.3186396429916383
Ni 6.497432724652135 6.3888904170072 9.980628493184634 0.7578884497276174 -0.7093902450169137 0.10520234227096721
Ni 4.895649636197268 5.805909292940587 0.8639208690352023 1.3432211674402739 -0.03654951698925964 0.5003222770085318
Ni 0.7278801870582001 2.59001171520506 1.9196335275430978 1.0322382696629446 1.19105428349431 2.515279112337739
Ni 5.898547897789881 8.735558777767395 6.436068927645894 0.24541205385505477 0.8993849984439285 0.3234499198960881
Ni 1.5429839259017861 7.325380976786274 11.2832401064357 0.16433488676706534 -0.8151667146237961 -0.4746346424344407
Ni 0.3126617864608536 3.4454527744474173 11.005291816415369 -0.5098623552884832 -0.306672186217117 0.40036704206911694
Ni 7.864316081499963 3.0211839236126905 3.786941645998994 1.43119814697189 1.0476291502967183 -2.32391987446303
Ni 3.1121059677751726 4.413555886983055 11.28871268747938 0.653343795645307 0.37774621934580754 1.0709989353709102
Ni 6.549393480577219 0.38308624028153127 4.121940990283784 -0.29214133959079364 -0.7430117897261009 0.7825666692005877
Ni 1.132197035488336 6.6888153231719185 2.8108690525233464 -0.6978423922783142 -0.7945503239250251 -0.32820568941351863
Ni 5.6440979317660265 4.783414403399086 3.4547528218873653 2.413530790053643 -1.709613909446475 -0.7501417159026629
Ni 3.1530065056533454 8.527233261333468 8.540842340032631 -0.14379460072186848 -0.16573073867332747 -0.3497134815783074
Ni 6.304602647931582 6.881394874819261 4.894974146370242 -0.6245572104309179 0.07275913414059727 0.3500760071240487
P 8.933315847594415 1.4513474213453343 9.793736788569806 0.23668855793912788 -0.37327969893402163 0.05791307026670026
Ni 8.628473227029644 1.275757181144211 5.719149676475961 -2.5223398758392626 -0.21469508438717216 0.2884806029097548
P 3.238138637012747 4.9988010154149745 3.2637590011663793 -1.5058048758441873 -3.596047211280271 0.2327923082085152
Ni 4.553033401816244 2.580371139239674 10.593182710337754 -0.8475775268543337 -3.9401045230140657 2.4028375720058555
P 6.649520001503573 6.502916440143514 2.123868062318565 0.06829981281766301 -2.383514446197211 -0.01147611896039959
P 3.9205318216117435 0.6046812347598258 11.980196220753342 0.8670531190804424 -0.14876917111832444 0.31346889742397627
P 0.385731599480503 1.7246238826856157 3.90522566750924 1.0693652564222293 1.124163949429664 -0.9318577742606532
Ni 1.7249486374101475 4.896484719774635 9.68335544131338 -0.9716615365211523 0.9525752093136626 -1.803744824394629
Ni 7.8667378238743275 0.37202880584654513 0.12771582658129052 -0.6447696808230509 -0.12328336814239413 1.6330032627702713
Ni 0.40577453320796264 3.3841112463365723 5.612761884460635 0.3357595905013766 1.234452447974287 0.32252380853739293
Ni 5.140867289338003 7.589740601261553 8.585698390455603 2.4889610432685005 0.033686593619167794 -3.7999112664902106
Ni 3.831112927888523 6.647831276936008 10.005820181101885 -2.0083652981546183 -2.037354743408433 1.4200711838207931
Ni 0.7316167221315987 8.562074803922519 1.419388772839483 -0.5354224631457746 0.45316027461074854 -0.830468635088189
Ni 8.005194681001846 1.1892239651161156 2.415763175951574 0.25476238472170315 -1.2262562853167398 -0.6666533682700196
Ni 6.484368306019543 3.700153265544481 1.43630942185823 0.18195337117977697 -0.04670820268981633 -1.3508025793319574
Ni 6.310893610881084 8.53601091760224 1.8977283574381085 -0.41878308268245945 1.2155558681801002 -1.0400518521700926
Ni 5.474102751533266 3.8006416560210274 7.669026219708741 0.5781629394370946 -0.9333407865640829 1.8789331368020092
Ni 4.838928903881189 4.463299032074907 5.618819024008474 -0.5303229371356802 0.5512604586192957 -1.5358615860202516
Ni 4.7985479735622665 0.937696791613048 8.809977714699812 -0.48538185364861564 0.12872022288724927 -0.7800480165437921
Ni 8.10723261544973 7.688289742097324 3.1270187047256712 0.1324298105283526 -0.578963580961519 0.19479011793312906
Ni 4.428318308889628 6.501394732291423 3.4042209867502216 0.6016790202811637 5.239607937851415 -0.46867816774068966
Ni 7.528111433251839 7.206242386415187 7.663241874129509 -0.46585329669738473 -0.2883607895024389 0.3967885806892392
Ni 4.995525632050411 8.122143496658946 13.407297454365136 -0.3173780026703954 0.9790110349076881 -0.2767563724942911
Ni 1.183248478184731 4.3867311467367305 3.348093163774074 -0.12334121796352306 -0.7366760773160603 0.6273311736316293
Ni 8.568365766872022 5.110080541452391 8.98246144399313 -0.4825405275450786 -0.21909707010960974 1.7242643123697983
Ni 2.5069116205505866 5.393220267712023 5.301188490262284 -0.9931140499679736 -0.37264566489444856 -0.15824368626766294
Ni 8.607726039485271 2.6075299129169456 7.828812967143507 2.17533170900726 1.0666769109567886 0.6235277407251391
Ni 8.633817761924798 7.939881866545298 9.90028788581804 0.3333540663836775 -0.8694673849488896 -0.34518525469065064
Ni 5.099883243102093 1.4365386059066851 0.6146307916488379 -0.06524328537952634 -0.8884691228623731 -0.3467250883739448
Ni 8.65292261843368 0.07543217167295774 7.840532901216538 0.9736891084741424 -0.015692728144908456 -0.7060061590360293
Ni 2.4132894728212833 2.3398763476642714 12.556110682014143 1.5879315672426138 -2.017343076173197 -0.42562170287084766
Ni 1.003408590445449 6.0464690354608965 13.538931678665563 -0.9340810071642172 0.9101795179562712 -0.24602603328996983
P 1.3794188892147536 7.478284779802248 8.962281185410724 -0.9295131852878766 -1.3733370129890476 0.030656291433276237
Ni 3.501004389755181 5.19915612303825 7.758832963360118 -0.74830826223835 0.7905692277900901 0.053406183535282224
P 4.496071423133371 8.48130366457826 4.615857667212238 1.5727528026196462 1.8421331943648405 0.0388640240550492
Ni 2.6935620787986205 5.226741717210619 1.2463835802456327 -0.44174997589127796 -1.1620347563335085 -0.4225217237892852
P 0.550212444490715 6.855869153471064 5.207552424473358 0.9857087586428378 -0.9192056327142814 -0.5022279786716769
P 8.953144443203684 7.804728228901589 13.23251910097534 0.6762800927265062 -0.76501966145576 -0.2016019986486399
P 5.3406749532827815 4.152202563386297 9.898278118008509 0.9704207221355158 5.200727458736134 -0.8484750989679387
Ni 7.019267173442622 2.9442820048435663 9.665850233790476 0.9705261373651284 -0.6947218443714616 0.1370110021411318
