# total energy = -381162.55680413643 ev
CRYSTAL
PRIMVEC
9.42193311860571 0.00000000000000 0.00000000000000

0.00000000000000 9.42193311860571 0.00000000000000

0.00000000000000 0.00000000000000 13.78995150268262

PRIMCOORD
 96 1
Ni 6.108681987767876 4.04895321699245 7.964110274571349 -1.458099342238108 -0.9063503740181681 -0.9282137497501627
Ni 0.03547263551114955 9.142827068289401 3.6239166291421294 0.044741565881748754 -0.10494677461673539 2.613934654629124
Ni 4.804309584738966 2.5189255188714967 1.7601216658442216 -0.10189384672302453 0.9519838555865668 0.28455632815468407
Ni 8.723682957330546 4.023448044390606 4.316048057757722 -0.018311139604362012 -0.4248462581574038 0.04554503561965059
Ni 4.612780530933912 9.038686442959449 2.1282441252798034 0.43278839582261597 1.5516718135796308 -1.3909539547398626
Ni 2.7729785199930768 5.828718670925915 9.308106616786462 -2.621504496556582 -0.9620255560932851 -0.12260845356255656
Ni 0.2884411721456692 5.093694834570156 10.01835830692694 0.6425433625956933 0.08467825417568642 -0.9280080614972598
Ni 8.683950665914965 0.8388280986779959 13.360105002521031 -0.35084219586611193 0.08069458693759006 -0.6419149849830751
Ni 6.873676992962374 1.3847414914270364 9.078228411328647 -0.15959660075113158 0.5322736331041478 -1.4027257505638098
Ni 4.073450242764446 7.072903766019629 11.220069328105208 0.11550243864539463 0.9766281364978084 0.6565913560483272
Ni 1.2900981745502276 5.064251293978814 2.535061521308851 -0.6700001732550654 -0.08464097317984778 0.29211511433854853
Ni 8.681849574858367 5.350338867263774 12.128924059339052 1.135678892047799 0.5847768452091864 -1.122826204454847
Ni 0.8518539210356054 3.6490392712646105 13.101984552928 0.7117376622031678 0.32974578020712886 -1.7821025635345051
Ni 8.038143113034218 4.76024320414834 0.3016676816759494 1.8732227166807933 -1.6520124568829226 1.0399610922284992
Ni 2.264750032621057 4.514359018928422 5.04730123653119 0.6998920757184914 -3.6988651124794623 0.7432907544191005
Ni 6.561547196895185 6.131614972663661 13.25394996791798 -2.271383752237527 1.2264100372857847 0.37686895894717676
Ni 0.5130996267274515 5.424885201074556 5.959341523308694 -1.1494340368503624 0.3749187771993414 2.406520420174081
Ni 4.3420695522873745 2.9514299308090806 5.516422106644817 -0.35119443699920805 -0.32545023815556856 1.247560960331787
Ni 1.9703240486406293 6.471709065842882 4.318171761453494 -0.4898784559673886 3.2275119690097704 -0.31641666719839057
Ni 7.907997952653993 0.5711425027143 10.939912861636968 -0.4188437607170658 -0.3136869269720533 1.6181978223263227
Ni 4.2513551814670745 7.860633895517137 7.978217734836122 -2.6980670636036694 0.3336625987630318 -0.801124377598117
Ni 9.349921155392662 0.5369540766695824 7.103507146561944 -1.9728347093481766 -0.6053315294320865 -0.9963821791962839
Ni 5.819890319715008 0.7269172052118265 4.725457427552106 0.14395555177976496 1.577142961267542 0.19569360358400492
Ni 0.7673523728284031 1.4378717715533007 11.6059398827126 0.49262336570237736 -1.0774914850737893 0.40013512856396893
P 2.3713686263271763 6.983065634967327 6.843773662041158 -0.228952879857767 0.2003169612886292 -0.1873390609717225
Ni 5.991011466665391 5.871861702083597 3.762547182372454 1.7639210075294718 0.3953536480149255 1.171871282807956
P 8.110512980324488 6.81430939319724 6.459833661503258 0.7202035335823338 -0.11708803796495965 0.7282940238999521
Ni 2.296059115944266 3.199415207085597 10.724404046181025 0.07469234660756814 0.5109422186162232 -0.09816754691137286
P 6.356205589327921 8.40979125979437 3.5462789591175805 -0.5491423838350284 -1.30062904380136 -1.4445347161797961
P 3.858394622285286 0.5909219666385891 6.391062972614873 -0.128593724611714 0.3474876775715822 -0.12314761389547824
P 3.948440035863351 3.7832358628302036 9.328847117875652 0.5934432626349327 0.73071291775409 1.3476090120953244
Ni 0.39194110603235355 2.000474234206163 2.8384270353094596 -1.559253996802263 0.6679090950539915 -0.1502005042482123
Ni 6.510857197413131 4.364333579940924 1.71880743187975 -1.9890493714348259 0.8279618095059355 1.507017922315682
Ni 0.01808351598622788 0.036540140518829235 9.323744198968686 1.097873391164251 0.3046649259791011 0.16083818646771655
Ni 0.6842386753505144 7.058243238288388 8.430197282262442 -0.063061190126543 -0.6353422168615639 -0.9873522077835318
Ni 9.1917269005035 9.098251903317356 1.4452557404369597 0.26131535534887257 -0.5056853410926581 -1.0787343563419551
Ni 5.940434530379208 3.890203068056924 12.941179480407524 0.7525176723340072 -1.1401053032502688 0.5445251967779913
Ni 3.5210611554719082 3.2749885315922054 12.752754011329124 -0.6560851058358701 0.4958215609247009 1.415484078670743
Ni 4.846906143783272 6.113779253515049 9.198863072549544 3.595104644861344 -0.9766345642557115 0.24429645219337284
Ni 2.4868721028421383 1.0804790094058532 9.4482126447229 -0.03120085108283659 1.0339071727249356 1.0841881803676747
Ni 5.29024577865847 8.334924580261953 5.945068237023311 -0.10381111835039539 0.5137058974042895 0.2977023786183389
Ni 2.5240887381495947 3.0375463983306368 2.4640437014025345 0.4455184417947746 -0.3194510831493402 0.10790637146569158
Ni 3.070108598741413 0.9844506683796277 11.92155108301931 -0.628108418117286 -0.5928567940038434 -1.9179149173818453
Ni 1.9471649373531037 8.025432925431748 12.736674540489703 -0.36378024408401866 -0.31935672366332096 -0.7124102627901602
Ni 6.53629641648405 7.872684547810362 11.448555914060512 -1.5873795513938855 1.2098138234900002 -0.35946824697222607
Ni 1.6323027807190373 1.705709060638123 0.5922466904168748 -0.10992802988141068 -0.7162160096894955 -0.4159024187005547
Ni 6.854475093530325 9.100635652363632 0.6798489967708323 -0.4985484729375607 -0.4215701585092933 -0.03833746212761785
Ni 5.20588179067291 6.63519844707199 1.688579986463704 -0.023484199164869234 -0.44596324264167714 -0.6932856261455673
Ni 2.190721905124682 0.4958848129628306 2.757535029630431 -0.20538691961236885 -1.2933556500683985 -2.1727526354261744
Ni 6.037697144627022 6.337418254947397 6.903112053814026 0.42247801503554333 -0.7875132145725857 0.37811722953198107
Ni 8.383419269357516 7.555382110532085 9.942334614023448 -0.8350770803944779 -1.3382512250295082 0.7580110913484107
Ni 2.753955637287823 6.9121844330893545 1.9445757901676632 -0.7631514978987696 0.6030491611558131 0.14445537423431895
Ni 3.819312444245963 1.4677392991291576 3.9406716521137315 -0.4839278948109085 0.17875980394314375 -0.36521517675833226
Ni 3.067451613638451 3.5587488874288256 7.4890601820276 -1.204292636561455 1.934949761376945 -1.1563207366678667
Ni 7.694308512458271 6.817917993532115 1.8621263389655152 0.34261929373568734 0.33373047588648974 -0.04530977968039294
Ni 5.532587317074437 1.5264285197190675 11.786657268412513 0.37795987801851033 -0.4134207899292816 -0.1953490757603926
P 7.899065960180203 3.9577489056567097 9.769601374338606 -0.8380847568725504 -1.5855072740718372 0.7976541596613295
Ni 4.137020024642776 6.4213770998144195 5.508299458214801 -1.1803099004936124 -2.296541996670709 2.0026343092081125
P 0.8517342624866422 4.108631740546228 8.066142271298311 0.4852959788030287 -0.08016751078952646 -0.5608882115170469
Ni 8.132221113931672 1.7770425152995786 5.1595927760901255 0.3027980479736914 -0.13012893030931783 -0.6778780333412454
P 1.5496912722694747 2.4704590955749013 4.630816937255194 -0.14188118574923952 0.03564680266933216 0.1823097260779312
P 0.5835106741492613 7.323187993945517 2.67686443937665 -0.4336620566768209 -1.1215121136291137 -0.4690725749656308
P 0.25504324627874797 8.49474882955825 11.395601824081147 -0.48216026138752444 0.6846212656023499 0.31546767302155987
Ni 3.2290660302027017 6.008272447901659 13.620307699304682 0.2875874016715241 0.08702104337625013 -2.0441861645079697
Ni 1.5568142536093317 1.8824927893150334 7.250770074797002 0.8300968535710672 1.6312633972610295 -0.3626217049995432
Ni 2.493410924336664 9.00432465334773 4.837597273989913 0.23406500427335172 0.2334991044675527 1.2024915787969743
Ni 4.543595276994001 4.8405463390155425 11.416810595239903 -2.048650628037226 1.4052968537250958 -0.1306716901866653
Ni 6.7848093210079625 5.672144988510902 10.87514178330251 -0.2187330019019717 -0.2951927248226078 -0.9738060936679809
Ni 8.255149073642148 7.6360150130539095 12.95757647038868 1.7406036729597698 0.9926319681252326 0.45864906563946173
Ni 1.8817861443408412 9.061110643473816 7.924285648212474 1.7568908401555678 -1.61936356049965 -1.5411552303190232
Ni 0.10613901731696745 2.4255635848812234 9.640596267850079 -0.36061727297500473 0.8052466272966067 -1.0999261599282217
Ni 7.0295534523361844 2.284875281486051 0.8999001261208815 0.47149146881976867 -0.46441347892706464 -1.1534038201313876
Ni 4.105955911577287 4.6327079192061325 3.740206837061692 0.13436585120880085 -0.46826319169045805 -1.4434245138347528
Ni 0.5806793832859979 8.090180448933731 5.973958710148184 -0.40908051068271484 -1.1648226034912905 0.03338063234297477
Ni 8.456825549276603 6.469052080739919 4.390830882086533 0.37277010628745477 0.34821658531780675 -1.7056654663216884
Ni 8.289576816784791 2.8090456794758465 11.986060231616667 -1.145196601730247 0.8908407084183433 -0.4166385255356308
Ni 7.348193804098932 0.9545454530718138 2.7680433114933187 0.33291183663993634 -0.6913513852373319 0.4273556548428188
Ni 4.502986745810422 9.33270728382134 9.957571764053627 -0.21964008709727334 0.3542298813914222 1.104879133058123
Ni 8.446838300308018 3.1555184212887775 7.252687438160309 0.17264674906687041 -0.20414867632989356 0.06317740398943313
Ni 6.18626218400119 8.442344038272157 8.792500755883875 2.3754008159511413 -0.25229592545908164 0.019090955193180024
Ni 4.134890667787211 7.585645359293489 3.735270686368635 0.6221704553662962 0.47566334080927114 -0.23234236515529016
Ni 2.128094316545275 8.035561503395169 10.245865011851366 -0.20559954984380718 0.5943467482858087 -0.2486300465717202
Ni 6.17685909487794 2.8849770374360464 3.7520662241152354 0.44397192324326124 0.8455620390862019 0.17583980208287134
Ni 4.524817364546466 1.9361789634876623 8.229484670372786 0.5560599368904682 -1.2029554058072702 0.019193027988683078
Ni 4.538629918308677 7.9810085113875315 13.521764644363632 0.6265122772747597 0.9158302884841454 -0.5592509330239401
Ni 4.1676601507237505 1.2838043233134224 -0.06459959915405314 1.0865083438604193 -1.2756039825119323 2.203289113452134
Ni 5.854930488501952 3.4664422099333456 10.360211474995252 1.1302916595939565 -1.8599571099201386 -0.4329377769162866
Ni 7.589988870401524 8.657588097411102 5.296554704988057 1.359851319797787 -0.2212912495474511 0.4140777067869901
P 3.509132988307544 4.498671500501356 1.121659451921878 0.7709092874673175 -1.4848632405955138 1.5461298007154791
Ni 0.7000581008394304 6.14066945026631 0.364561910958952 0.04294616454422281 0.21592792835300875 -0.04301198478515173
P 9.679811295144548 3.662295930980456 1.2575303209796573 -0.08663074991636692 -0.67842696386618 1.279776625832383
Ni 7.866051506985944 5.430133217749558 8.298172446250867 1.2971495698931916 2.188733841345779 -0.5113885621250225
P 7.281901083586714 0.7179437562328844 6.885736124995288 -1.3144080998633234 0.8505615491833223 0.8924648742853274
P 5.969765007774679 4.236967889792521 5.548000657251518 0.7849354265430805 1.276079893707086 0.123892976701935
P 2.760202378859682 8.79783356995578 0.6654918552818447 0.6694191039406149 1.9930561786013743 1.6118384557671983
Ni 1.7977142362779477 5.838338464507919 11.631382870556713 0.20077076099659616 -0.3695665117484926 0.49703872116125364
