# total energy = -381158.893831182 ev
CRYSTAL
PRIMVEC
9.37459971390123 0.00000000000000 0.00000000000000

0.00000000000000 9.37459971390123 0.00000000000000

0.00000000000000 0.00000000000000 13.72067428036389

PRIMCOORD
 96 1
Ni 3.881965478015624 3.791584962544382 3.8365746038469477 0.14173643264125912 -0.1389832953761542 -0.6042557798694046
Ni 8.647636969039455 9.227287216173348 2.800211672263358 0.2604656057540676 -0.7175812654681383 1.0883981046839641
Ni 4.4755932532656475 7.291676122779582 7.376124391576185 1.5996244301995095 -1.2823083911153013 -0.9617175379345629
Ni 1.4964298477971716 1.149504037606915 5.89625383664577 -0.8290704691890817 1.3283313948126347 -1.939260472937157
Ni 6.954687388245328 6.596624553640608 8.520072103955448 -0.23486718845967294 0.504895241091195 0.4615906647662889
Ni 2.5664654039550956 3.982123700948385 1.8086321407894737 -0.883830081428465 -0.26988175686164484 1.266093986138968
Ni 7.056495540720973 5.538710354863072 13.562818325527612 -2.0976411990033164 1.1057553650154892 0.7800454454406307
Ni 8.715040340706112 4.259049375361879 13.24244044415833 1.4278395149123022 -1.5058156744774647 -0.49143680159344405
Ni 9.182495378923935 4.350151735008134 3.8323354098736986 0.5731495453829033 -0.2820086220321659 -0.24160707828666778
Ni 2.6898632594833565 6.2265059838532295 3.1822359836385883 -0.006265778404053724 -0.15755617328233512 0.8588903807639917
Ni 3.2666261299172032 0.8156670434835545 7.432173248115908 -0.019837089330585193 -0.3622946606774276 -1.4216297865571643
Ni 2.1340901177228955 6.358875331270919 7.5894809055902925 -0.2026461236424381 -0.46173670342585 0.13256813587842978
Ni 4.958806993537943 0.5717933951458779 11.9865459497544 -0.557145199534847 0.9251019435940583 -1.5734459720319287
Ni 8.441405150778708 9.052432183026411 11.441299545969526 2.1144431010520033 -0.40591419713959126 0.961021540308803
Ni 3.432069064989964 3.109151604568595 13.496876453950364 1.119860951178936 -1.9098431961173044 -1.685399774094117
Ni 6.674593099141524 1.1343265607323227 4.20239585714309 -0.536758922569011 -1.4649785858564446 -0.3863617289289604
Ni 6.983654901242542 3.3787932150342463 4.563441689364544 -0.43956916618987524 0.11366255722317845 -1.3067248722864526
Ni 8.95888305286486 2.0802517917866497 4.16353814148825 0.5961233805702572 -1.8027264104324436 -0.697671928138721
Ni 0.20631431473789105 5.4412238928378205 1.7226305008266452 0.9900942893050433 -0.8142583438769138 -0.7119968294018254
Ni 7.07791650097943 8.001108327820734 4.118713493139973 -2.5742818161241923 0.09041978464515395 -1.0185507448735234
Ni 0.19796060896707637 6.56054171948971 4.124489184000032 -0.16006685551933078 0.22247987053891363 -0.04419443512902711
Ni 8.694322475423315 8.79284014341287 5.296125713980773 1.142784906964961 0.5691851614185165 -0.3515839591281429
Ni 0.7968644089144568 3.849154379151466 8.12870412908367 0.467241178183847 0.9796530393670613 0.2860907625213396
Ni 6.653219011881443 8.372717458956513 12.501701763500936 -0.11744516419406224 0.9687299646966541 1.5066024320448181
P 5.915887998206083 9.156124630036826 2.3620963186498654 0.6527742962950822 -0.6776774872946651 0.8119957730949823
Ni 5.063765011504546 9.625838946776438 0.4590919578473326 1.279472464328403 0.05339847022579836 1.0670494638048593
P 7.80116686594223 1.7770678636821537 5.98078741429942 -0.8642670716948728 0.6523225534696443 0.16804447440816866
Ni 4.584029247711852 2.023497965351332 5.221992317207095 -0.10075484802257487 1.0314700240383525 0.11519262071445967
P 8.426377667498924 7.119727215532043 13.184661973978482 0.6780988911027999 0.2775613848940897 0.09401855774000582
P 2.6121947011720565 1.1831119774434884 12.77183460298958 0.5039717008356611 -1.1768466245353604 -0.9226586242598884
P 5.428033831094429 5.393385310693878 11.263369644129035 -0.7462755480790374 -1.5374189032050425 0.6590174489913166
Ni 6.260732647268384 8.925996957203298 8.336091835484405 -0.10800073095171077 0.5779593080667207 -0.78043599601083
Ni 7.112865008569597 4.265217861948342 8.581238554458011 1.702019642038985 -0.32082688045094426 -1.235018347780086
Ni 3.5847437953047288 3.916932734805141 8.049246897154292 0.647571154827588 0.695430440402712 0.30912219041950634
Ni 5.392738463316271 6.955793591007033 1.3023634475352872 0.590816366535047 1.9056605254945247 1.4243191604638696
Ni 7.484521012703753 5.745804636293963 4.657633917063834 -1.2190217152415135 -0.2525718048282876 0.3725078537650036
Ni 3.6120801279584103 8.258816072899506 9.080712537867413 -2.2430769348730335 4.541210701510896 0.42371445854580575
Ni 3.385271063409999 8.609107364373259 2.4752233627736775 1.5212350943563284 -1.4551855110254228 0.2991550519044654
Ni 1.2928229174455574 3.65056285962623 11.05603724786639 0.377339213715376 -0.569483923605858 -0.4504241066265081
Ni 9.018524256000223 6.075003078497899 9.491426874089465 1.3047435801903657 0.10095462273820678 -1.3588856134504081
Ni 4.61880901250786 5.024691680057171 0.4352692251520187 -0.7160036365683733 0.3807973474673055 0.24404191298040553
Ni 3.08223712890031 5.222898840995713 11.879456147821593 2.4856232371445195 0.6830865741253784 -2.0274071452774183
Ni 7.7739805268833555 6.708397905571283 2.3622884979432124 -0.5970620903344427 -0.2429365957313687 -0.8685986091906911
Ni 7.563286399177083 1.028046724211477 9.845681746306006 -4.01760708537692 -1.4765269528156766 0.029410849061949348
Ni 5.844444174079298 7.919811799435026 10.41303158120571 -1.8846754386024254 2.8912394434277173 -0.774617332446524
Ni 5.929228053544282 3.205634984428571 0.2329944254142893 1.0753803522680576 -0.75748581497256 0.6944405656856169
Ni 8.00766117299389 1.45701903076148 13.066431397791343 2.1873171635039106 -1.5959215274266254 1.6033111350224774
Ni 3.9533530545443565 2.800427288055894 10.901789459726078 -1.7840576303783469 -0.11587781970694237 1.3037547339145354
Ni 1.0795882732272317 7.786495617450113 1.5988014137133124 0.39083184888517203 -2.803115653905592 1.8280188664506454
Ni 7.391665602918185 1.5543086261935466 1.797161380626564 -0.2479044812596053 0.676621535226325 0.10497994184751598
Ni 3.0760217693154708 1.2010549612223451 1.2258882757626748 -0.41087025559328594 0.7431454870904879 -0.12915216821834533
Ni 3.307818120891235 0.2889504734172245 4.441780009696181 0.25052829203569754 1.4387129672916963 0.8208833053925992
Ni -0.18009543436552605 2.1406992104941045 9.66904178938086 2.7395217312040305 2.6597388574474325 -1.2863280537976554
Ni 0.8321569643127128 5.928271844377384 11.60819835637189 -0.8267451634900149 -1.029240877597518 -0.6105148734052388
Ni 0.8379589040518635 2.320072800684619 13.426434774528886 0.31855839613174175 0.7165913907510432 0.2749396310005265
Ni 3.3215144110171018 8.107350665942876 0.23451967278148889 -0.9216175845898836 -0.3475604397910466 0.9598398612958761
P 8.032766350924808 8.026316626348082 9.691324275349492 0.10753176173509221 0.9936938337308436 -0.8612802211524071
Ni 1.5765170528247439 8.21465233382835 4.394045485608636 0.13801553214624618 0.2144400309535726 0.4099765401344229
P 1.5410341930530758 0.20705490811225347 8.772395078980628 0.7418964451747353 1.363438008707781 2.4391765156462055
Ni 1.1519320589228625 7.89656279223985 10.143707769669057 0.0515354488751306 0.1304256356141302 -0.5147644205757909
P 0.3114991980166415 3.0342579277612356 2.074620469761593 -0.08530148958198212 0.16468815634142603 -0.2497155663264151
P 2.8925514790667743 8.1310402793228 6.169802780256159 0.41370592526986816 0.17634322408185113 -0.3150221008437091
P 5.649968103811594 5.378423449611822 7.4825832829508325 -1.3479116309374075 -0.9538779872854862 -0.5305995878358345
Ni 1.0097193818459258 8.733142692679452 7.033766823807787 0.7119384653600642 -2.475805479723149 -0.4733259509253461
Ni 1.7697463013356087 4.497792305297169 13.401202102042381 -2.6640040604816893 1.9292141444447481 0.9770055744418852
Ni 2.357205589999171 2.1928876068874668 9.239117960963796 -0.5639028299736546 -0.12844022975298525 0.1705556708657966
Ni 3.5088845347307953 5.657861516738344 5.468964270737515 -1.9430885884339952 -0.5919733629576256 0.41678045043013384
Ni 8.59528920445161 3.861003873141265 6.155135281603913 0.45819603726244307 0.2263429530387457 0.9734505101007751
Ni 5.880527008230196 3.138297234959643 9.977729544954828 1.277807417921154 -0.41384682172310655 1.213594116468039
Ni 2.426108897613903 3.305999448554193 6.034832918888493 0.005478506616067984 0.9099697159383101 0.1264856771297757
Ni 2.991031648657626 8.09264191905206 11.767001262494514 1.525914759220185 0.9128282684330279 -2.630945587364824
Ni 8.397044545114367 0.3350463174814965 7.319719300248795 -1.2379671459957649 0.42365789427625744 2.3628905992992726
Ni 7.678050248404232 8.790740233085563 0.8211577465134795 -0.14355060303186246 -0.9119312105400551 -0.4663122386116743
Ni 1.4331231761886976 0.4337561647643972 2.6937387189891973 -0.16237596326848164 1.5854993036520373 0.8526726819890541
Ni 0.7212470130121506 0.1245640557278898 0.4147585385220497 -0.5790491986967898 2.1470115219063284 -1.154747992864108
Ni 5.189965872335773 -0.10362026259291392 5.959712376768987 1.196114985846669 1.6169258975924348 1.5259576966429784
Ni 4.528662862028504 7.559405314911436 4.867573389496231 0.3365905710431042 -0.9701088473220518 -2.561598564229569
Ni 4.5912945624603445 1.1860462271419114 9.147696864928577 1.3194875712687597 0.3779148837131878 1.2157697839631192
Ni 7.19793950062452 6.467676935104467 11.177203948671886 3.004525334037768 -1.7115604916498846 1.2753401873275843
Ni 6.827230331057588 7.439101077276082 6.373582203241802 -0.37759246737676255 -0.10629428978356534 -0.3009355408436559
Ni 1.9165525322535275 2.474022476555249 3.8553584892166946 0.13109849331143875 0.05970101540505847 -0.5860989064547196
Ni 9.129491392358807 6.818840064348038 6.916002165224518 -0.6202765807776931 -1.2887333208050384 -0.27068625504081123
Ni 1.0733916628417435 0.853147630446066 11.069222622309942 1.4094296449465469 0.16485630648817415 0.8385177306449106
Ni 5.3008486372972765 5.605073145965751 3.362127989191157 0.47349255841019744 0.36195373239824113 0.09888899845842969
Ni 8.363099119689476 4.326780858017178 10.716628929155894 -0.6649261011662678 -1.5913331367249948 0.7528568008409808
Ni 4.252543403187102 6.496522578305901 9.88825649073217 -1.2985227960916346 -4.188635839224393 0.4773119321562877
Ni 1.2261976375519654 7.641423687472157 12.917726810439142 -1.9775989635060396 -0.10596210325512717 0.8055255919896062
Ni 7.375972523061442 4.00338529301236 1.9591338388994644 0.6358119574091308 0.78624643204502 0.6530051813589658
P 1.0213157616444868 5.21828653795538 5.796065614994047 0.39763241674677324 -0.1748537840205182 0.2950898806961563
Ni 4.966250425680268 7.023065718278234 12.756701186733464 -0.8293990561730942 -1.1903999377397627 -1.292685106363935
P 2.779690673573746 6.065009755243844 1.1062852581830458 -0.5189391207787708 1.051677352224163 -1.005487998152294
Ni 5.391791628749048 4.452306747671771 5.620591858268529 -0.18281469073880774 -0.1234782577620196 0.7647365829977023
P 6.566991444066437 2.3735830156322235 12.20810711340448 -2.7574109527796256 0.8491525846509376 -4.412591780088201
P 4.503360817504401 2.866302599975448 1.7986022565966844 -0.49138897907464407 0.2696051061614905 0.855677787363965
P 2.0883983189046367 5.462766722892059 9.639047757719181 -0.43111255078208977 -0.36864477126517153 0.6429434262475895
Ni 5.776562697829192 2.4052879117346757 7.2176917821407445 0.7491289583674324 -0.31925747908129537 0.41340613464126225
