# total energy = -340894.0283634843 ev
CRYSTAL
PRIMVEC
9.02045979460915 0.00000000000000 0.00000000000000

0.00000000000000 9.02045979460915 0.00000000000000

0.00000000000000 0.00000000000000 13.20235471146269

PRIMCOORD
 96 1
Ni 6.365026005560457 1.9745967348891194 11.471116923516604 0.4728014458804438 -0.041295773424993396 -0.3839160956019453
Ni 4.803340827164881 0.39290147007585535 6.069848590939074 -1.0075888465453808 -1.3051313025470879 -0.9039733891455592
Ni 2.7024305908977366 1.4994440043965502 4.815915348404684 -0.32759248130955193 -0.5464751214155105 2.422246058439454
Ni 3.376538587147194 4.282490446313026 4.822305442268584 -0.12109098847676565 -0.3143132477021426 0.7680185961830838
Ni 4.931683932042874 4.432194000470685 2.6488012500605755 -0.7041181979846971 -0.024501070465157804 -0.01785579723449828
Ni 7.4045618568642 6.169471453223516 2.5546556110880476 -0.2892221090614696 -0.4458681118247096 0.04897591567807049
Ni 4.7006158286864865 4.464947290730172 11.21870099952455 -0.07289540260814543 0.33776685073939244 0.8919182577532381
Ni 5.5350534809734375 7.853203455417184 12.546026508709792 0.2865201367492743 0.36685476924428434 -0.271637563210487
Ni 1.932922209689771 6.236114611702473 0.5165764869039212 -0.3549351349885629 1.3344033120383276 -1.3832961810842888
Ni 2.7911828968363483 1.7789339370321793 0.4027058080497021 0.2085329214405183 -1.4438060655438876 0.4301941527328784
Ni 0.3642732361743031 0.05484078861514234 4.832392120640426 0.9429883369561759 0.18756428960865115 -0.12258762762695018
Ni 8.584735700025742 2.3627651696030485 1.4851988939647731 -0.006420301704047007 0.7147319689448013 0.11972778958065186
Ni 6.882295263792368 0.4703664744166439 4.903143196603319 0.13545599894918606 0.5000844499661129 -1.9545932466394855
Ni 1.0228660412240034 7.447860064863523 2.544093554474213 -0.39002915047821857 -0.10869030081956765 0.0582470565673513
Ni 7.588236463381327 3.872754091739434 3.7640043280271342 0.6912009757023967 -0.7153073818322971 0.023902003428578192
Ni 7.717156877699311 3.826217538600162 12.541353008383865 -0.404346081321523 -0.206550858013483 0.3454739895756631
Ni 7.668789171180068 8.603191561185454 7.012325194690334 1.1473491292968756 0.6487415209866053 0.9059485105940592
Ni 6.886462716312302 0.684633068977293 0.39528467560781816 -0.3202090443612873 -0.050380509335080974 0.22813963992785222
Ni 1.848905645251085 6.653608561875943 9.121929350305342 0.008464585827585424 0.23403826480047435 0.07031684324769179
Ni 0.00954274463385076 4.7990561086649475 1.2648146234322197 0.2753227253715581 0.06905263182328754 0.2919847594082713
Ni 6.4991422048383605 1.8755430636306683 6.7651375293142 0.32116163808254367 0.4134164190539074 1.3064029701706599
Ni 3.3297765225079257 4.33145350319226 0.3012788537652883 0.15759216872659312 0.11278529682454769 0.1571890197509035
Ni 5.991227163626304 5.603112851672373 4.776994769643292 -0.07269074279650707 -0.44887784518531076 0.42579576655486673
Ni 5.129394374319782 2.922430589834296 9.29468198385464 1.1750931321793632 -0.49865080284338 0.026786781175540963
P 0.34179334780865467 5.571045116372874 12.068272277553264 -0.6438086024613622 0.731470878966037 1.4246590603017917
P 3.976236808857816 6.25160274152223 12.34281538992497 -0.2030557003760309 -0.8389015963468907 1.9626215162606007
P 2.4767657430812657 8.41103772226846 1.1859090516294535 -0.5742265804971659 0.20715840969049484 1.3810114988151698
P 6.405780443839819 7.518932269202411 5.69788541261489 -1.109471894635128 0.21303363752434926 -0.04936955157206336
P 4.757435706225598 1.1388330749821898 12.651856349520138 0.9680447657041716 -0.43119739718641226 0.9603738794224751
P 3.8715002477994536 6.337928543720881 8.21727733942549 -0.009203520876138988 -0.9814684953092452 -1.2947772130062734
P 4.780645349805235 1.1043658973227288 3.9028409340229633 2.171529304542034 -1.7224892227472466 0.39100179880413305
P 0.23473582239232896 5.398826494055567 3.4620534499918567 0.8621631379779926 0.6665124718167812 0.593729426416784
Ni 1.5432834399958644 1.0847463968230355 2.508341863310772 -1.256416610950204 -0.9407234521813993 -0.04660767255621005
Ni 1.847732985451103 6.414097307959691 4.823057748632572 -0.26508973478964026 0.5772663957647542 -0.4462113540967412
Ni 5.803276859069242 5.601074227712404 9.274746767254952 0.34756995287274334 -0.33796405435186316 0.07088839948044566
Ni 8.595632415705573 2.2938668961241264 10.102771774528001 0.49959979702021057 -0.1270196952563748 1.724688030170778
Ni 2.0299552979082534 5.268679297177602 7.070231135613429 1.168060136591982 -0.6423281612610937 -0.4058769161437526
Ni 0.6130250493144129 -0.014382221423775075 9.017842262366969 0.42079599934743017 -0.8474312310844567 0.831980186636709
Ni 1.4529254921772776 1.0547623877835046 11.453438626008879 -0.9275362640671638 0.7454954753799032 -0.21916031924737742
Ni 4.177672701114665 6.692910706095329 1.6235204316946097 -0.3312164512153844 0.7263785520447942 -0.25916565599572144
Ni 5.592080829092545 7.839176640117404 8.082283449389601 -0.6667274160410647 0.2765172599002915 0.1569527353703813
Ni 5.46202383681458 2.9996457274330885 4.747579951629753 -0.19727894579325378 -0.19842102981749699 0.2916569437552074
Ni 0.6865841944752625 7.334094023345302 6.887523522408286 0.1625939928165587 0.6049129538374292 -0.2873981684788534
Ni 4.977065866302164 4.442278874750527 7.0141473276103055 1.1569385727575237 2.000005099115381 0.091237652560759
Ni 8.043886959354202 7.163417899687971 9.371070847317444 0.046647010434577724 0.1662794120879459 -0.3010334998741009
Ni 4.636245826127494 0.4529578886629162 10.333047881496402 0.6561316428030893 -0.476107113214909 0.7258190799968984
Ni 8.31770302264992 7.027867447270091 4.672511683510926 -0.40493717793830264 -0.16950640366567582 0.23902080561673028
Ni 7.006227363730429 6.09436710326469 7.241637014484748 1.4036099529409762 -1.4242577110983148 -0.6960336212043496
Ni 2.2865152212242412 5.219193053618377 2.720820602699449 0.14153074438835625 -0.8808995380452312 -0.9618432648791498
Ni 2.3180597698437477 5.402218187015515 11.184771441281082 -0.18396963027885735 -0.7753043312112197 0.015031697522141854
Ni 1.2414949302405842 3.1753642882303406 3.9374046306044233 -0.8693596557264319 0.6060699502600079 -0.8257210931008748
Ni 3.431274738426338 2.2510738338847953 2.951029958263849 0.8474718545144049 3.3669184679662725 -3.2028404344050196
Ni 1.0406183065037258 3.222261659769607 8.273651606240609 -0.0018072284120678554 0.4971292239925309 -0.407545304985111
Ni 3.903757412758949 2.566402054099864 6.933071433131573 -1.8760604432399046 -0.5916717725568068 -0.5921949920501285
Ni 3.864319961639566 7.002583097890486 5.995651699256234 1.3079358618754184 -0.544164728114779 0.0983765775983854
Ni 0.9266177330255085 7.59254824326126 11.260394467689897 0.011126963151096967 -0.6731538883926987 0.5468667004269743
P 0.09080987286457982 5.602228846592387 8.061080858159933 -0.3326827513482658 0.7600587179060587 -2.0542286363456363
P 8.599213538325516 1.4916413064966723 8.008284105780758 -0.9535404014404094 0.46146133827727626 -1.0216970038119888
P 1.7761375944322229 3.1189773927712223 10.341589355070267 -0.2842871336536975 0.7378919520010324 0.08439157617320305
P 4.041626123396792 6.1097018852644505 3.8199293759342603 -0.6113767071849019 0.17753235929394587 -0.06354712862402605
P 6.665777162415754 3.932018513938507 10.563415095110798 1.1025782528390882 0.526997472306873 -0.9659032938811366
P 6.219589128982732 7.886894873516656 10.410598580207187 1.2045029528000482 -0.9438910512761033 -0.23842379546267972
P 2.390557206862614 8.5618237316261 5.588979594944593 -0.8231337919896726 -0.6610468207165195 1.4853422371144613
P 6.821118504073325 4.187640309414509 1.7101935216032542 0.7134618439831261 -0.37406722783232355 -1.5433375826823228
Ni 5.337162629496532 3.189264817090123 0.29323891776741406 0.300745793430353 -0.8616124076808452 -0.5438875631939923
Ni 1.5644725005355333 1.1600491969018578 7.065808404075497 0.03858068848667549 -0.3467821668641254 -0.8150209330745511
Ni 6.936995333231512 0.6136005546624039 9.245186719835415 -0.3746588386697354 0.6145329934256966 -0.35166623442930406
Ni 3.0247677085326954 1.6841289024336619 9.181036816500416 -1.6639966258279926 0.07151472021053489 -0.7239205774226048
Ni 6.143348201063924 2.1967796851456445 2.309290078631885 0.6483787383305479 -0.5610661318558079 1.4932938878613704
Ni 4.140508405915247 7.029355823170067 10.331476517364425 -0.15037122549812168 0.466949357975041 -0.12851324908276576
Ni 8.165383535092301 7.103350656548911 0.29220878123543015 0.4801015790862828 0.020371878788132656 -0.3346424461777978
Ni 7.457827673163366 3.4403222598061967 8.406533806590529 -0.3727101995837968 1.2804034607831047 -0.5451178360566676
Ni 3.1845741778901964 8.553344499226233 12.356440794754757 -0.1415204599757111 -0.5973850208915003 -0.15001152816585778
Ni 0.0780874160807788 4.812117734744743 9.883150634911438 -0.09869179484595907 -0.6735539520445949 2.8622834225149996
Ni 8.682625731944212 2.227647699265162 5.712382193880664 0.07362611012658288 0.6680636183539849 0.3512571719163434
Ni 3.4688269134057506 2.3893304243026328 11.49878898865817 0.6158671388560877 1.4294302564381898 -0.8680633055125115
Ni 1.08766902586299 3.495184697525339 12.573408115039364 0.6186187334592959 -0.37110737387305115 -0.5832048727363763
Ni 3.175201919950343 8.518119602926784 7.931235846691963 -0.033510215942303585 -0.306150252275376 -0.059604084815878
Ni 5.577368458832775 7.73129193851909 3.435332141334275 0.7905782266511545 0.525797795571817 1.0765108663280751
Ni 3.2769346678287516 8.313048465289992 3.5456640937305495 -0.6904823523688173 0.023978622302784507 -0.1076340916409114
Ni 3.3897896428869867 4.353761100771911 9.061410182120289 -1.1070344888382289 0.48784471336681146 -0.03265455281022763
Ni 7.267586171766342 5.960133638006789 11.46302376680473 -0.2959442582766516 0.4706640878224668 -0.8860764542604805
Ni 0.3900952049698993 9.211783956455935 0.47410274894858545 0.9714177959414625 -1.0150895257978003 0.25066533183419415
Ni 4.707399214606381 0.39167017728587467 1.6291311578145218 -0.6921407139078467 -0.8943919161047114 -0.28770721507884
Ni 5.915401176867489 5.615651291072177 0.2851484671935406 0.08060459832694505 0.04745845059227956 0.18189012204200933
Ni 8.030861415114405 8.936795233360236 11.40155384213569 -0.4586860895249842 0.006964604243291231 0.17089994157909277
Ni 0.06448456240099153 4.799074149584947 5.639689914925801 -0.42974832344471153 -0.020729005017235267 0.7141228746058927
Ni 8.009834722854734 8.766921930642894 2.6450649755286335 -0.2698416476523288 0.18498907268230724 -0.24372412462967058
P 8.476165443467442 1.6751355038138025 3.533398974268741 -0.18869300389645566 -0.2982662215416089 0.905292622177615
P 1.804786575391775 3.216226972029701 1.5525312155877198 -0.5302972261040673 1.0915276514518812 0.8642681001361374
P 4.9299610241829 1.0944163299428844 8.133046990084807 0.26694864237524996 -0.7892057717836601 0.510997497334191
P 8.57023080034597 1.783814005892103 12.549749252551734 -0.6519649130199094 -0.3744127840972003 -1.3553395479703627
P 6.40640285557981 7.722785644739224 1.4482853675533502 -0.5123262434479434 0.5718076866430282 -0.995048805096841
P 1.7461896672326913 3.1981319292699846 6.145445458013891 0.9258002552126637 0.17775810215150678 -0.5647878036817692
P 7.055145318309664 3.8824871680792814 6.130460669862125 -0.7416498763815679 0.9513590775183743 -0.4631965758008281
P 2.5457091188601875 8.679206977604267 10.11771687265577 -0.8254511272689397 -0.21832959581596592 -0.01780128984747902
