# total energy = -340893.6835922575 ev
CRYSTAL
PRIMVEC
9.07561376476873 0.00000000000000 0.00000000000000
0.00000000000000 9.07561376476873 0.00000000000000
0.00000000000000 0.00000000000000 13.28307812184090
PRIMCOORD
 96 1
Ni 6.469396794053334 1.9534078216940816 11.450478285791982 -0.1295306346036866 -0.038653193595823754 0.28484326326748366
Ni 4.446388092470701 0.09573592406837281 6.1332487760796655 0.16664785117095815 1.2630166327652248 -1.3097932267991312
Ni 2.72779361871722 1.3524025448679529 4.6606996295274525 0.08463943051795102 0.8231219649151308 1.066583579912034
Ni 3.3075891868069367 4.617345423864706 5.024138017278781 0.4511872100447778 -0.36094508862806873 -1.2215586227307544
Ni 5.084331116219036 4.83085830693395 2.413628551749686 0.015097003542438517 -0.7104114871925765 1.2367003634681992
Ni 7.275411104104454 6.170845412541564 2.7865110229032863 0.4588845786890354 0.16321697111253824 -1.4448388776837762
Ni 5.005945042467907 4.3834124104330625 11.877157363494987 0.3578062858887709 -0.3591386315469492 -1.4543851266113146
Ni 5.638678664070456 7.764868015470917 12.448129620145448 -1.3736308900803826 1.0324953799790735 -0.40983718634308125
Ni 1.7872877922925916 6.508830334686499 0.4237331335627207 0.5054485424915037 -0.03999299545316983 -0.34634250822354545
Ni 3.1702842302501653 1.8145600108432625 0.4618743068342844 -1.6464007671231002 -0.807838299283183 0.9857342125641345
Ni 0.5354739020284671 -0.13793117388788476 4.543808450403635 0.09057610771736013 -0.055815821418039355 1.1052182615650967
Ni 8.59551354054584 2.3825663570037543 1.4221132396797855 0.8205274647150773 0.6488636483867665 -0.5174008297573734
Ni 6.7504503927479 0.8185885725476113 4.821292610310854 -0.40301810653871883 0.4560717918305887 -0.2158500239272218
Ni 1.0864961450955397 7.65184940062516 2.4850908399659377 -1.3891089311113238 -1.9864340452991662 0.8066134257371463
Ni 7.6641105544560935 3.8981938105684835 3.6926692824970098 0.2872220479123053 -0.6697327785262916 -0.6613347842705836
Ni 7.4838053411628565 4.026486682925316 12.76004302740502 -0.2756415421635575 -0.31732992304127927 -0.7909806042958958
Ni 7.934155433981952 9.024989722327815 6.807776505385274 0.6493824970047138 -0.2955094847320782 0.3128284356264999
Ni 6.790827797184482 0.4695704270775352 0.2673076744959485 0.5019392437866645 1.0416127688993093 -0.06371476455014187
Ni 2.0657457655277596 6.552393279459618 9.417622543567928 -0.828202978982464 -0.18722953197705175 -0.5999833777462957
Ni -0.001004670413830033 4.948069855214121 1.1216632398249886 0.32137838207904 -0.34720588466510527 1.2680487958724935
Ni 6.459041519056223 2.010248389009506 7.039539539630407 0.10402966211910472 0.3578103996538289 -0.11865461112113111
Ni 3.538917499165687 4.27069329083262 0.5455668917955889 -0.34500399191778 0.6206830721874923 -0.20310686532894054
Ni 6.124704993536038 5.6087382151524325 4.7573476527520135 -0.9515300558786 0.7063440019914221 0.3642790380973081
Ni 5.4623122670337905 2.875825950424371 9.23258893564411 -0.23411565500562903 0.12747503762623852 0.11278761081739284
P 0.028743375498112896 5.638615134775995 12.260612924369562 0.1837811684171351 1.1369914402116355 1.7461719110761666
P 3.8656486605775666 6.106399481117833 12.59953081958172 0.2539820549122529 0.5266897112584672 0.6126668867512353
P 2.5195627427017158 8.532728446391582 1.2967073199755217 0.6503949974296283 1.0231003119174187 -0.5752077134635125
P 6.461047229638486 7.7611288627112245 5.703939585585985 -0.5421045031516406 0.3387104455995844 0.1449405414008536
P 4.764143472136619 0.8795358549692517 12.504011802675864 1.3289484595713434 -0.27611076849049226 1.1601426815171183
P 4.086313127080397 6.084627084344768 8.329300385037314 0.1640420381169949 1.2695829731288328 -0.7122254004728636
P 4.816364552183394 1.3502788513102633 3.736888394125773 -0.9459283934211065 -1.3345557784557918 0.06265135628263403
P 0.21042445179710026 5.682695389518295 3.483951953598206 0.711560256085039 -0.3970294930554517 0.28488645780059324
Ni 1.4268861048164903 0.9252406445270479 2.609885970882029 0.34639778694151313 1.6882033049811829 -0.7728193600058368
Ni 1.742735605648584 6.440191469828355 4.952967056255699 1.0327149521890473 1.4322808385131074 -0.11507177886587923
Ni 6.081223729284369 5.562289225288095 9.253124326297886 -0.19458751500401972 0.678329004835735 0.05300354878022485
Ni 8.659024683779647 2.5390390092606974 10.296205459120266 -0.32152262096638823 -1.1425933597794453 -0.4855710868412863
Ni 2.6601439957299653 4.907910265501403 7.20169987886429 -1.4392297590271148 0.44716806158305566 0.4008779202672645
Ni 0.5275200343619754 9.089226914641175 9.327231248286406 0.09699563809045876 0.5761585074125561 -0.09773688713185749
Ni 1.3905382727714197 1.226986641988845 11.357602995097047 0.4949846668457024 -0.5950113784530011 0.3158019164325271
Ni 4.0243720649811205 6.841769215728547 1.5860796259990542 0.1625132601772943 0.7194651127544125 -0.44765168608769357
Ni 5.748194092107377 8.074273830721987 7.766628684488831 -0.18235394905230531 -0.023693486962197904 1.7830656987787228
Ni 5.161501057761916 3.1444278074046212 4.869987814515054 0.008938183029894284 -0.3687820681739842 -0.07710455559348657
Ni 0.8360818175580665 7.569361149574562 7.243381448960019 -0.6427490508485962 -1.2453657524526809 0.03362385870203242
Ni 5.301891722906783 4.528758360545871 7.182877056476905 -0.42324806043234847 -0.7360132469210808 -0.44524333375651703
Ni 8.363377498586086 7.119083661663421 9.357928603369864 -0.7786729905731364 -0.07663301527370674 0.052781919687722
Ni 4.608496700707667 0.4646305706525335 10.342430281331291 -0.1400328196865911 -1.1085437263939037 -0.6046614999482555
Ni 8.380122005483253 6.914700845769542 5.12807829594609 0.051421291894769496 0.5432743550900256 -0.6469116668667181
Ni 7.170978019624398 6.182807071127184 7.076678765172188 1.0090777723860815 -0.7398179653791517 0.32072172233164764
Ni 2.3018478505845645 5.311956578272072 2.6153050196995347 -0.5183781060689782 -0.3154262782606632 0.23267917966941862
Ni 2.147480740658322 5.239977887647989 11.561789777739445 0.6513784443888201 -0.504917095468066 -0.31507223735535417
Ni 1.0595506486306674 3.1740052317828695 3.779500214604677 0.13538555072256683 0.1464556924937994 -0.7423810981206375
Ni 3.505655375708713 3.0170787988512062 2.7806263951135173 0.35621143059782523 -0.677697027678691 0.49284139525045445
Ni 0.8933480311463785 3.3414684519815303 8.109145968012868 0.8073911844434354 0.23530093356298185 -0.30622969936305966
Ni 3.589269002832616 2.5335664143235745 6.912925655770039 0.36238130685396297 0.4914337162696504 -0.36175755722703506
Ni 4.271255978869273 6.772903460533044 6.237121895207117 -0.47047768284327357 -0.3825346418733863 -0.7204362184184302
Ni 1.0179298851453509 7.541644225962665 11.629958525818578 -1.105982907645263 0.38662115323793417 -0.808654110316259
P 0.29099502571633135 5.620627268830096 8.089965566453804 0.06991369427200217 -0.6398796997206012 -0.3802342758749839
P 8.534225922618159 1.69049637437482 8.122508901322023 -0.5212042626638638 -0.2104741043272891 -0.337929858679818
P 1.7629560725141065 3.323181090790315 10.39633307255858 0.23684308123912112 -0.08648599680838653 -0.0058978535416737135
P 4.169164402670772 6.357884731047646 3.829259080710422 -0.7406761996143889 -0.6652577734740737 0.005394945763326192
P 6.8942262617261765 3.95811101085851 10.606298298312863 -0.5188481037268613 0.39954351772655705 -0.996206058629736
P 6.299219965419846 7.8164175001191065 10.15663976724204 0.20954336498290363 -0.11283980421156696 -0.4252586631044741
P 2.38043358783257 8.407893382776116 5.982033626720027 0.19661431562606138 -0.2711184574822234 -1.6883994801523892
P 6.940548193001592 4.085832119565195 1.5391496286195139 -0.13262110060355223 -0.5000479403012227 1.0072692584224332
Ni 5.479719293716048 2.745854089571075 0.4220641282411006 -0.4428753477449727 0.3350052288338553 -0.4707134530031635
Ni 1.3268456172677237 0.8652662678720072 7.062360169762075 -0.19906534826971523 2.027209427444315 -0.3990899751289062
Ni 6.902303557736193 0.7112095439272733 9.237849161225462 -0.03953302509761578 -0.19015030516827253 -0.19681511878295782
Ni 2.68410361535518 1.7970713036395545 9.119058456197267 0.28029189645137537 -0.5256990652104236 0.4928416523607706
Ni 6.40800026876372 1.776959744135965 2.313128838158103 0.7171320937458617 0.4542252255401532 1.7213980465655967
Ni 4.292982997574865 6.643839161029187 10.451085341208945 0.11594338283755515 1.1978057432855307 0.9507119308526787
Ni 8.353013147975481 7.302792230017057 0.33979550703706735 -0.5510329159895219 -0.6064790127729683 -0.3664156248243367
Ni 7.666905843412368 4.031314909304336 8.398092627763514 -0.10596518857892073 -0.4441297889773641 -0.6992410723980538
Ni 3.126049690078462 8.320949005499768 12.401944730633797 0.7206203094047783 0.34717760253033114 0.4560054573690276
Ni 0.03016280144863699 4.8809012397420695 10.311134843318555 -0.15142589201488113 0.18066987648166302 -1.1468549632692764
Ni 8.574403663557865 2.242193843085876 5.575226512324362 0.468433141609419 0.3631819483783874 0.48873637194314534
Ni 3.6170676069659624 2.3929760856818305 11.573505487199364 -0.28712100355806686 1.6482506758476454 -1.6961711536780077
Ni 0.6479906354479847 3.3801850191486387 12.428696916531239 1.5565972759057063 0.0009361386610241941 0.6239828259846867
Ni 3.027724493480137 8.463590422791246 8.165041763963526 1.218988548010733 -0.06364740164731619 -0.015324546172212319
Ni 5.788553345316971 8.086190111240134 3.638766491269722 -1.0741084275341697 -0.46018118601327196 -0.48048390212636605
Ni 3.142803272589124 8.37466756177312 3.541773594732375 0.7640220734291809 -0.730455293217329 0.48361653421807677
Ni 3.572742310659315 4.407208669015378 9.454788088388844 -0.38580945596991617 -1.5504037455004847 1.0527975818715352
Ni 6.9760519929916835 6.163358031408685 11.439651986454514 1.3566798640483408 -0.8339679064906991 -0.08631167601405135
Ni 0.5611669638311124 0.24352412177252494 0.39953119505720536 0.7967658435191053 -0.7503306919850175 0.2665344376559668
Ni 4.618997185520687 0.2996976314961111 1.6737872623702812 0.02055365578163557 -0.5635323340081133 -0.27304215686749744
Ni 5.929025690983288 5.7301608480940045 0.3609226276906801 0.34338445403648604 0.5442719431166045 0.693365073233251
Ni 7.88953064242999 8.872038408106699 11.376411296502837 0.4739867244377966 -0.6936790049292442 -0.1346872391039616
Ni 0.24549080721676134 4.696330488106465 5.638533454254546 -0.93544626294286 0.04777366783985321 1.0217080595555823
Ni 8.033007016162953 8.678328513682235 2.4775726017471777 -0.16224843655168186 -0.2186900644791782 -0.08536268183722072
P 8.398209703177592 1.445845061406291 3.415225055289166 0.6580620270565827 1.2044669573557902 1.2092607792000076
P 1.7994763412155703 3.298322985429155 1.4540721050389642 -1.2809068827820844 0.007368267439613116 0.25941479589205
P 4.676754389799046 1.1106645038311258 8.13244488297569 0.5080834090111894 -0.4243392366139982 0.18338213320650354
P 8.532565085348683 1.5533638544744426 12.490450113431182 -0.9604181023968492 0.7866102431423421 -0.4578620509617921
P 6.381971409261783 7.7473430058132315 1.3700700416575005 -0.6458919673529522 -0.8379145498432731 0.5050777894156462
P 1.7626293504283082 3.1390822710564197 5.9275336601248085 -0.03632968766896969 -0.8295952313443004 -0.17036052413585498
P 6.955323291770475 3.9073964826518046 5.811757873899452 0.94621172898948 -0.17077498596545426 1.2123211632928863
P 2.502255547767896 8.633703722130273 10.27191004179576 -0.8289578548706175 0.056062133100890546 0.23086706616134436
