# total energy = -381160.8862727907 ev
CRYSTAL
PRIMVEC
9.34064958047956 0.00000000000000 0.00000000000000

0.00000000000000 9.34064958047956 0.00000000000000

0.00000000000000 0.00000000000000 13.67098482836613

PRIMCOORD
 96 1
Ni 6.596777864988126 2.175838982283643 0.27188483167391847 0.3596178851762129 0.652206082496438 -0.7395585410701779
Ni 8.682059247630484 5.437425754634678 10.352202923209695 -0.9072435752563986 0.8050563656626716 -0.9034203448555668
Ni 0.2503387548206381 1.9602661259534495 12.558399017286444 -3.041126273090253 -0.6396719545851693 -0.22114469666725786
Ni 7.0057395344150875 4.018057976285926 9.145684267714561 0.03548276628764212 -0.19115663494559984 -1.1273883699042326
Ni 5.355797816185456 7.153508613974153 9.731321525582473 -1.75080863851723 1.7428999251931145 -0.031926416394951466
Ni 2.5967566834321976 7.5402021743196475 12.404313790344457 0.817725733600224 -0.27801312771952763 0.5173578923345801
Ni 0.20443973585443787 4.233901711459811 13.19347166412821 -0.6268560337674237 0.04778678046597576 -0.2362003054487997
Ni 7.071974082022757 6.090365196380398 7.580287572861223 -0.14519379506224028 0.38682709860115316 0.8478045552634753
Ni 8.024570909440689 2.3516486924897566 7.361306313425397 -0.8550558375092501 -0.3543602363216994 -0.8156922481099629
Ni 7.85578536787101 0.26035753577734183 2.422553564988673 -2.1690427906747547 3.457387360681807 -1.186323196567228
Ni 3.5132332181412216 1.8343074636365098 9.509263456108293 -1.2697056147496262 -0.34852614613842553 -2.1703756505535656
Ni 9.19310487853033 7.011708209626103 8.11955317488394 0.5075007970348421 -0.5500296715359883 1.133341502163874
Ni 1.8934898206583957 8.288285474749857 4.390819957480829 -0.5301031078153903 0.15713219837103906 0.4145140229934603
Ni 8.719122945967422 0.1539824797943802 8.276400431966612 0.5677098624245707 0.07141778962135442 0.10233401958423666
Ni 2.8105267943543693 8.241161896597173 9.817708525095874 0.3140131999632205 0.25800326025650405 0.48978538203294997
Ni 8.838197549394664 0.35189870584072386 10.732461709920027 -0.13426120731013652 0.5404304578833273 0.05847202809396382
Ni 5.9991537512543385 6.541004845136851 0.12688338664540685 0.8247913821977538 0.10117753738229027 0.9447426006431213
Ni 5.598813501576619 2.7995515308599384 11.812373462003317 1.1035696702180802 0.6936093280335731 -0.9973941654005661
Ni 4.91704881460212 8.374228793398592 6.796434254088949 -0.4042751188742715 -0.226179687988004 0.20859565635765365
Ni 8.046250557585859 3.4370508785151954 11.193078106709162 -1.316300688900346 -1.3009799993828755 1.2209312735594005
Ni 0.9386885998917962 3.681505023972862 10.75376119361905 1.801057250260137 -0.6017690088918088 0.3155594614044178
Ni 7.499336831521234 7.66126633615056 10.286158924857588 3.0335176075050594 -2.7314566948077084 -0.10560240592286328
Ni 2.8368580860912216 6.705867313797881 2.593877895169233 -1.6883467725375827 0.5361418578103024 -0.8876715666617422
Ni 6.091971788142987 7.999220385930998 2.465794235026775 -0.7987227101351598 -1.0974561011211743 1.2619658229032071
P 1.220692157475091 1.2270811619263173 9.1975379509171 -0.7021369058886101 0.8736461989169276 1.2331836085641923
Ni 6.9986966844790865 4.664916655023243 5.674483973594565 -0.5685809521756143 -1.0611104726126048 -0.5888250471366311
P 5.314745660391393 3.8883817353555528 6.838144925692679 -0.5958341314646125 -0.09955439995657048 0.7632376298546726
Ni 0.5814031413215077 9.447880441997652 1.5319702455417024 0.4647232968579997 -1.6789265076649476 -0.16329127599389942
P 0.7780621159071276 3.0552518186557283 2.488296794417783 -0.1700710179198942 0.67971071567461 0.8277157549334004
P 0.47433033879979375 7.06355815656873 2.0672576648220558 1.1819343234709128 0.7459616163830444 1.1514256133590945
P 6.979249451631934 4.3608971859026076 13.145185175077604 0.407643264015556 0.5589624552492438 -0.7589672846140929
Ni 5.76570289124045 1.9500941583403129 7.8700167818796185 -0.7890422496226024 -0.21210212684901536 0.777378697241745
Ni 2.759377396145429 6.4692499735077265 8.233200860787553 -0.25727255273806654 -0.07024048148380162 -0.9488679356654046
Ni 4.258206082193862 0.5067106353357896 11.05267693169853 -1.9473753887348073 -0.055518087671962445 1.202841248826909
Ni 4.613477696671045 3.0048496724293874 1.1376444402589314 -1.9059744571905175 0.3324940323762273 1.2110818915691464
Ni 4.445467429033314 5.731067761846961 12.424136517312867 0.9342435008840103 1.163581531995338 -1.3105889832275495
Ni 3.128519875549616 3.685811063522592 8.042872978624507 0.6386861936331323 1.6975369236772828 0.07491166170722582
Ni 3.7305340946811762 3.687791281276481 10.794008185401863 0.7674514108257041 -2.271621836390262 0.8064002812850757
Ni 2.8253877681583184 5.507546012551865 10.480601363249821 -1.3899643371330834 3.40024510714286 -1.0300705725876647
Ni 7.151565758819394 9.199316410635689 6.374712322994121 1.2413378622402107 0.7429405701685334 0.53233791068318
Ni 2.060780858262874 2.712692828532521 0.783537604809626 0.2624173301637997 0.15502389377878464 -0.2970349202376691
Ni 7.851096361680198 1.3757095812653717 4.437369085671891 0.7145450497449759 0.9260092858996761 0.5565859845972672
Ni 1.9608265649403993 0.30037007725061404 13.538937464463729 2.4457186876400976 0.19559950120830186 -0.8081198350793437
Ni 2.9941919910275607 3.739725294067151 3.2338581194067206 -1.5654976637191298 0.57633822752353 -1.5786043763044166
Ni 0.31730000498138555 3.5160727756751 8.374900386117952 0.40487264324895433 -0.7829243096503227 -0.27116550867007494
Ni 1.6882197010382942 9.083968726471662 7.8390656047603455 0.5715863146608415 -2.556919927806977 -1.0166890090744363
Ni 0.5666645300297095 0.8800153082830564 3.622564589780343 1.6434985058746403 1.2700403723812257 1.0349993773478496
Ni 4.879676874822359 5.137833753510945 9.062591715379444 -0.48063662565414644 -1.5054228099144202 -1.3185648023441743
Ni 8.043728582144583 8.01151268104476 1.0257873569186238 2.8691374693223555 -3.946563905486164 -0.9076660075057982
Ni 0.20150863995269105 0.9973665618254274 6.163057869247685 -0.14133842587189205 -1.244400046105302 -1.0272446731030953
Ni 0.9821599839795262 7.203098123669416 10.942037869089859 -1.6347711533039715 -0.7780916641483696 -1.452612608091924
Ni 8.719664703654807 5.368174177147262 1.5441653978977274 -0.139668751478953 -2.0652455562814303 -1.4257605208960864
Ni 0.39406893741375226 3.194091237022728 5.843881327724996 -0.012546469206442909 1.7317469939000885 -0.7864865730802841
Ni 3.8466570527771493 5.117144214242719 1.0333953161664657 -0.05580348012286518 0.921536080619671 0.31719159769120214
Ni 6.282408955908487 9.206704864613641 11.084845195484464 1.3349787249258234 1.536758386802908 1.667262698173774
Ni 5.429430158420862 3.924782247557934 3.8799489967319167 -0.9609824595407516 2.327105471279863 0.7813718775615381
P 0.9438913418206457 5.331493445451406 9.101950411367943 2.652550310118793 1.6011663207653326 -0.38520858916112366
Ni 8.61127580357874 1.9323002205046609 1.0074133647314787 2.0739970772218155 1.930462415029553 1.1898088411229832
P 2.146910989907257 2.061985802084816 12.262655363873101 4.546032291269255 1.2603262304172553 -0.933840866128953
Ni 6.343366036389047 4.42702898636267 1.5777272866312086 0.7412140743957298 1.494295332542691 0.13501814008081908
P 4.530906352593792 8.327086533946341 12.597853921967701 1.3088252064589072 -0.2628850138288376 -0.31752301288869184
P 7.888673795755174 0.5664767829690814 12.96523382075793 1.1480528402321197 -0.3762542081813133 -1.146536146477277
P 5.190337545938347 0.7759175027170668 1.7296669663181572 -0.8977950282489893 -0.29711539576661733 0.7498141573599151
Ni 7.905673778359314 6.321406168750403 3.3661105115471055 -0.37196098012259815 -0.5701742648046632 0.9045470022608422
Ni 1.9731282007039448 1.9216145171534869 7.265622565183479 0.5798380131466724 0.9152553898172818 -0.733794127782575
Ni 9.304763006030269 8.036797820005974 6.112379239787781 0.4540411345538052 0.4563579556124399 -0.3364049373948593
Ni 6.124822853428021 2.2343674938207543 5.4313590026009475 -0.5145103955834558 2.136784444861681 1.3770573992634283
Ni 1.6500257840776735 5.37505823603696 6.223524565614664 1.46013411327995 -0.6461986999600936 0.5301933535363514
Ni 8.113820818112425 8.478068797030584 4.087364663607057 1.2472945940442777 -1.497864280840872 2.5453607622144676
Ni 4.110100739242627 1.1198691837228443 6.082289270578453 0.6660517301302787 0.3429147134889191 1.003600037100962
Ni 6.222871654194867 5.485987792853866 10.956747524367332 1.128989138732449 -1.0147982198096264 0.8666471418912752
Ni 4.992035551055986 6.051190511192616 6.387959232515655 -1.0451462359738646 -1.2861817580277783 0.741824197175903
Ni 6.305153438128862 2.399883807966559 2.7097262381616005 2.5259111381302883 -2.5808885228074328 -0.05024964018417152
Ni 8.903367262927128 5.83650501659176 5.757385042609139 -0.6122992189991713 -0.17610436859816767 -0.22376413656797592
Ni 6.32630066923643 8.99919298904574 0.3475945344209503 -2.6399827578664277 0.8330492513311717 -2.5054171319419947
Ni 4.513756919593132 7.729107475520818 4.433637496083785 -0.17734158343937845 1.543861830616909 -0.2129768161444848
Ni 4.570342575975484 1.4158370127309685 13.318164668399621 -2.6533249835012884 -2.4452206649577564 -0.9275169807934543
Ni 6.569540530222372 8.842176666202006 8.636467536042128 -0.04513751576858678 0.6597409574209024 -0.7030648170195183
Ni 8.090824138347923 6.294514438026601 12.350942251552262 0.22701529651542193 0.12775503076050257 1.599333638431968
Ni 5.838494574995432 0.20698412885518938 4.605495177366925 -0.4584891430228297 -0.6801863697594479 -1.8095881705492836
Ni 6.794071069693977 7.097193836435492 5.29160046429535 -0.5038526587592935 0.07829600479842645 0.5219282853140818
Ni 4.08337714021491 8.128308165925073 1.0081531441942522 0.11274518761523164 -0.23624092887874798 -0.527227328929492
Ni 0.20865797329621244 8.395927122843325 12.751023765231004 -0.8431714273668381 0.010677277208188063 0.08130162439396965
Ni 4.100302397620791 1.7639910520738902 3.277577964778665 -0.29844825564542793 -0.604032865225321 1.5652552086910203
Ni 1.1726625362935037 6.312308375862252 0.15954950706474702 0.11284237531472822 0.6382629900527846 -0.07561408709088914
Ni 8.331934331183456 3.5978501645208407 3.717455316855727 -0.3221412283869936 0.37347767387744063 -0.5034741923739523
Ni 0.8507473162545877 5.113641470574284 3.8372267327567426 0.46871904828095406 0.19315798164634476 -0.6363958549370589
Ni 3.7587241757247454 5.7167578863801785 4.3982289608883045 -1.8412073401164615 -3.085441807178176 1.2334119225249145
P 5.057719000326489 6.008008687248143 2.7730773271814138 0.8431583147407156 0.08287128287393469 -1.1131208042416247
Ni 2.6185671006743227 4.776602804472531 12.712047101818612 -2.904465198089372 -1.9858668599417861 0.620704412343731
P 2.51450292144755 1.211510298738899 4.873432650442762 -2.165462272412348 -0.010890678770574792 -1.2265378211129006
Ni 3.437648680101275 3.515110688747503 5.515709740461764 -0.03458082329866303 -0.45026495534082456 0.9476816286667873
P 2.8505795006217065 7.153667405020455 5.920684820561558 0.6107421589246965 -0.07803169539344625 1.1961604943726238
P 4.493020677075994 9.148092287228486 8.767312292260291 -1.1324269607694046 0.689372150023774 0.4616081482677856
P 6.663012412595796 2.0031116865057523 9.926379512795373 0.3625389154777498 -0.34051587423943935 0.7312191679665472
Ni 2.788352091770727 9.24949438126725 2.478152848753994 -0.10217075453349503 0.6200001871878548 0.02570820339938153
