# total energy = -381174.3995122781 ev
CRYSTAL
PRIMVEC
9.13344204039628 0.00000000000000 0.00000000000000

0.00000000000000 9.13344204039628 0.00000000000000

0.00000000000000 0.00000000000000 13.36771564859028

PRIMCOORD
 96 1
Ni 8.826256925624243 8.870718521181562 9.71828915008159 0.9274917839824736 1.4641463197631366 1.5569112076016993
Ni 2.8460809887451624 0.9108160612328562 3.953448721381775 -0.6580903091913569 -0.6748721566353861 0.023857266233571817
Ni 1.2433993907942922 2.173476054474 11.280788170042644 -0.9810419492947879 1.3876475160744488 -2.736941886291996
Ni 8.907215755332556 5.674452233491631 7.541744259102402 -1.270812731770876 -0.7145617619155241 0.1840804448251088
Ni 2.8242794627395504 0.6661439374147027 8.118293697416957 -0.34740026006409847 0.6504574752364476 1.8825452796332995
Ni 2.3206066713254456 8.79949594062364 6.279645059198814 -0.14219331767301963 -1.285151002770419 -2.0452133202209035
Ni 0.31138826410327797 0.6207096302865435 7.166512322216624 -0.40729950752289207 -0.39601056487263414 0.314925941585477
Ni 6.812077232718688 2.941945595764392 3.633117904236145 3.911390700019141 1.5621652569117872 -1.062144570304074
Ni 5.627625076461563 6.427376656532526 8.402425030620133 -1.477497801369378 -0.5261405236232165 0.2953906997660268
Ni 5.6146647222923285 4.547385493193141 5.021728975721942 0.968377466453242 0.4185498836257307 0.9390285809774794
Ni 1.3765375745327937 3.7216675375738095 6.035910939871979 0.47703116769107523 2.5869624969156546 0.9230404330793393
Ni 6.325182574221344 8.253069507302426 10.15350222713664 -0.2020239166774069 0.9744753518208638 0.14222879889664536
Ni 2.8093097513347756 7.0363215002049815 2.038122097711216 0.20245611911881908 -0.14610987911860643 -1.1994304233731472
Ni 2.030775156982722 0.14311920913394888 10.514376393230286 -0.04861364724264531 0.3229544683169083 0.48017382708511497
Ni 3.487367350467836 5.391479934075684 5.331967339479971 0.6426526344800481 -1.0871881435362631 0.5382452773065504
Ni 8.705174885298984 8.051266106760325 0.6294749945544889 0.2090214310411626 -0.15213088850170572 -2.1614706347544512
Ni 5.0586573083343795 0.8350002727033283 7.193555530574402 0.003987009672206036 1.094562324513147 1.1482909243848547
Ni 3.444951645913977 5.455258759420128 12.731238123796391 -0.8870799558243303 0.44975022048793517 -0.4931494134091765
Ni 7.033170462721975 3.9469712843297513 0.8566236965903355 -0.3067603750555491 0.07920848931036681 2.3718179836958893
Ni 7.036202765459245 5.497966734117338 3.2386235382151196 -0.7580630276322687 -0.744797420871614 -1.27798302426707
Ni 2.7159294405340315 3.439033175511113 3.9218607122948836 -1.5683855267898859 -0.34941471939096597 0.32423924856660286
Ni 1.7603796071728615 5.646156830238432 3.6164219722972013 0.09963898925057679 -0.7108755713131886 1.120040928400226
Ni 1.0972734525606165 8.164255917491545 4.212982781989343 -0.2746853488978753 0.15077823112855324 -0.5147083705268749
Ni 3.974892216461781 4.70548537386224 9.961447862563702 0.5460529462764273 1.3782028257217813 0.5728937206183553
P 2.317985373477263 3.5139913338387445 13.10890320962557 0.033132520887910674 0.6698975862389303 -0.27699419953671006
Ni 0.5363896939296904 6.633509308573017 2.0307696769175347 -0.5467088346928713 -0.06046231905111523 0.5318951667188065
P 5.535276844604528 3.672118614833783 6.987853063651157 0.5602012127523514 -0.3565698423785085 -1.201381633562247
Ni 6.926153923045496 6.103733139980847 6.464627399646848 -1.324100387450423 -0.72746201491696 -0.2826611680145003
P 0.9404157200007602 1.4808688822672318 8.975511981080174 -0.3859220702883805 0.5008830346080083 1.165852844528018
P 6.693744358429326 8.87921262222271 6.37770991239096 0.6947863790608099 -0.8112103010792093 -0.007044822661923351
P 8.962463945867935 6.441716160440699 9.768003388121452 0.45893060143562253 -1.1763051502095934 -1.0833667129076439
Ni 4.716399837028015 7.625793845576655 6.687079685816719 -0.24069073711998548 0.21081220439299822 -0.8851472575779916
Ni 7.706323403511921 7.618697161158406 8.361625945296685 -1.1226487983367182 -0.5720614545250471 -2.0966040159880537
Ni 0.1474292804041827 0.615578462582332 12.514187355213334 -0.9115103209525528 -0.6865300525892886 -0.43993991926573267
Ni 1.5768978912420968 0.13550283186705334 1.5273014746037754 2.2656267951490916 -0.820259041545039 -1.1412103633889892
Ni 3.1407988945470398 1.9272201918165612 1.8982425204474767 0.33395596163373453 -0.27339028423553563 0.2607309436003123
Ni 2.01976022595517 6.94285898842642 10.920180700454809 -0.3235193396814428 -1.1655952199912571 1.188117055242857
Ni 0.6926765863658138 2.0803423466067086 2.7147019059319564 0.5780027597101465 1.086833845520638 0.48116987244979714
Ni 3.971056170830295 2.771268965489207 11.58025181229719 0.4182313239440475 0.14671305992024408 -1.1975339776813827
Ni 5.183831130666558 2.6253348295371053 8.853972355311729 0.2017009861203494 0.5857394662327718 1.571562381855971
Ni 3.4738681232217976 3.9100356449637297 7.65484823785837 -0.26387488854593266 0.993247233111728 -1.1660179093509726
Ni 4.495361407676607 0.07358814203067213 11.290145381350877 -1.0372838025066522 0.24622709355718242 1.0601388527279547
Ni 1.1824427990215844 7.692513639238571 8.214514508673398 0.04710389546633823 0.4131613656203078 -0.06998825626367945
Ni 5.093154318691814 5.964813487469178 1.0411173978924542 0.4464779774945665 0.5803499197860844 1.0024240145149899
Ni 0.2260307687375278 2.931122467018414 13.1388070120114 -0.15760990933840596 1.1879882429744766 1.4506076618467534
Ni 2.8694443333293074 4.363310103533693 1.718967667892575 -1.466251024810965 1.0993461190550355 -1.2454333724658229
Ni 5.2685803387964585 1.0006781701830085 0.1575281272011685 -1.731830297642514 -1.1459136824019298 -0.4922793520993974
Ni 6.644935244489658 7.12214845448849 12.50464199500032 -0.6558771035901221 0.49784193378883934 0.8317822116932901
Ni 1.1561384861199664 5.830771092974683 13.229814454585808 0.5434155086535803 -0.300673802541837 0.5915866690421683
Ni 3.028494091964299 1.9286724090913379 6.177742333686786 1.1391215991807608 0.8503427483042968 -0.639533372124776
Ni 6.567045251286532 8.085342978786692 1.5054725482722242 -0.9934922592429987 0.36203857880256357 0.5294256221323914
Ni 7.352165057305971 1.1724142797278427 0.9576697052446652 2.4221846090739 0.027503347626591342 2.035207358048127
Ni 8.721003140249852 7.4894315568193095 6.123429407610132 0.043846050650672874 1.3248740323916537 0.1491350390981754
Ni 8.30905750663816 0.2447725916799306 5.0277451739539885 -0.4287409652261196 1.0481531411209883 -1.1715830621435759
Ni 8.979306012878553 7.18164369554444 11.708314542327557 -0.6871949398667971 1.2199244295614409 0.018239662936478267
Ni 0.42408306465855344 4.3027462497661135 1.8987768268032907 -0.5970713463058234 -0.1971416488844411 0.16618788081540414
P 7.546460768540734 6.26109321184959 1.0956623133953924 0.06776965134580587 -2.1446268237242356 0.485412706886551
Ni 8.79880179903318 0.16848369085585274 2.4552080324690992 -1.5485975455296812 0.40975465393160404 2.0986436721259016
P 8.955422062101563 3.381346355967148 4.3442933639877 0.07921234596510873 0.48576314824743433 -0.9180224110394576
Ni 6.978598146893097 4.352103370224566 8.40305249808414 -0.03605740784418952 0.29552928222642005 0.5822450799262682
P 3.248683111211592 6.3572957562220695 7.5087661401461965 0.16309432949174493 -0.5478475762830048 -0.032534482292595576
P 5.718585025137679 2.1163737752167373 2.0252092374402757 -0.9179393644073481 -0.042459197605475264 -0.0534429503104886
P 6.318889632697312 3.4303381387464116 10.723046315452745 -1.4003194551151625 0.692281353250769 -0.3597117304415999
Ni 5.537843341800833 4.744777441259032 12.469124779173749 1.7248523236627844 -0.40347524868079543 -2.238186953770584
Ni 6.479738679402309 0.503640824367176 3.456650671745811 0.5049006404078337 0.21933361160044806 -0.8655464526279286
Ni 7.521599539471913 1.901262949710173 7.979042500961425 0.05986685155896142 -0.43273748798002254 0.1670584563458155
Ni 1.4588846874220256 4.527785126704643 10.963625743919783 0.8178041522466432 0.21603257225167308 0.5586222983010056
Ni 1.4742562702739084 6.196793780312301 6.040001808534698 1.352097129773665 1.1357853357186762 0.5157972327156795
Ni 0.3305575321303321 3.557155980634941 8.392800209461894 -0.05462257244088658 -1.6569127223980176 0.19102036647805168
Ni 7.972782439828518 3.654902076701995 6.292504945506272 0.42120994695639724 0.872459120587362 0.1614431670415671
Ni 6.715317548385445 6.026263285108791 10.335222102109515 0.6622912346465819 -1.6782539070779547 1.0322426405383192
Ni 4.82991025395208 0.25934043163759746 5.033760458841837 -1.0393489125657973 0.06938661812393856 -0.573153144927329
Ni 8.73995503235779 5.524992588935355 4.856223700295677 -0.06462004997323063 -0.7851591125181123 -0.46777133965570405
Ni 8.301202746535594 4.133951108538752 10.513494102735043 0.6072873676068767 -0.32805527987858335 -0.5508154006620772
Ni 6.636934349315415 1.9275946629377303 5.672630111816676 -1.1582140970358377 -0.5016955032069746 0.411168246449679
Ni 3.343104634398025 7.736527696138883 9.364111623647483 2.855033425820806 -0.6613640948466223 -1.5267056305525963
Ni 0.9323691576166194 1.783816019292845 5.246775159414055 -0.32243587680927693 -2.2293228185117346 -1.3415530357092313
Ni 8.108788524348654 7.4886552142510325 3.509305878103144 -0.6901455378546889 0.07574907000685664 0.56697272714823
Ni 7.176309765428279 2.3945327507093674 12.504214549915668 -0.6416779292716046 1.1831800229525558 -1.9935434026504373
Ni 1.6719952891350294 5.423099910209505 8.58750053217636 1.9518000001650642 -0.7028195337779315 1.8638374188111513
Ni 2.5091939813228787 1.3759895680140102 12.881170880647218 1.3380877028684504 -1.8789845588652352 1.3706255275951555
Ni 4.751481387672153 2.5433713212110223 4.0594140018863865 -1.725941185851589 -3.425424434621965 1.6169891467302024
Ni 8.156876096371926 5.160065914635305 12.572563749626767 -0.3642121894151147 -0.4784882118525759 0.4240517872805664
Ni 7.170345627815516 1.4133636125950588 10.31593318599253 -0.23326719096240472 -0.018912263523470654 0.011212066665735529
Ni 4.48551555722246 8.595847584801634 2.4470409086508265 -0.3006321506706242 0.6235120569958552 0.8094053866599866
Ni 6.005576039024707 7.383565830832277 4.5485920208786625 -0.18724778680949686 -0.35247150393941873 -0.16158174950196044
Ni 4.511819870124078 3.0546796701201804 0.4070373218917862 0.43401686891307834 2.383619861426824 0.8677632577735894
Ni 4.120524948828551 8.143879208434772 0.09992533532341709 -1.3049724083717202 -1.3268527533845793 -0.5404479413848241
P 6.863882115627708 0.15752173379178266 12.404705699546525 1.0595359290366333 0.0853678240435433 -1.2790438614314166
Ni 2.679952812575882 2.796011459812291 9.513856231593525 -0.6086346256633905 -0.5069904330573268 -0.25801765843420726
P 4.485396822476723 6.355386866848306 3.290369967095469 0.9731810584894722 -0.3390583158573064 -0.5728268719361619
Ni 3.233247594265851 7.510822077935834 4.479895750372332 0.6011059213865131 1.140747307709642 0.2941416578502741
P 4.656420523547138 0.6085968595330276 9.28347703112945 0.41841901447482127 -0.7692077313951785 0.20612328355776116
P 1.735737580711554 7.9817149460846935 12.898013861002037 0.25492153600738676 0.7695717996028166 0.22956788773394657
P 4.714801484681563 6.9036308551234855 11.3537086574646 -0.7094061858565137 -0.7490777934145229 -0.3444650886951745
Ni 4.8100632845301305 4.308408983793545 2.815775314912225 0.9912623414712154 0.8112133864030029 -1.3509866703183053
