# total energy = -340863.54793158255 ev
CRYSTAL
PRIMVEC
9.28300451455847 0.00000000000000 0.00000000000000

0.00000000000000 9.28300451455847 0.00000000000000

0.00000000000000 0.00000000000000 13.58661544753283

PRIMCOORD
 96 1
Ni 7.95911800405071 5.341737783573453 0.32117802747321333 -0.7454913616148451 -0.5074416616621326 -1.6919095501881765
Ni 3.223653237350115 4.465310772870647 6.466331992202617 0.23053693651543525 0.1193675780277557 -0.6585731623650464
Ni 6.1378760892857 6.398282928503544 12.024222676454084 -0.7766127656099979 -1.0722482343969792 1.1020727739575795
Ni 1.4566426342459722 7.001798893071836 4.184378282640591 -0.4799249442991025 0.7047095517117928 0.9235034887586868
Ni 4.732271413189581 0.4662992351408505 8.04709396497868 1.2105072500125993 -1.0331273571361175 -0.6081183481486043
Ni 1.1977860567616723 9.021929176945726 10.871968827937087 -0.45802274490937245 0.27538520317837734 -1.5701845276718378
Ni 5.883531051936146 3.7162837144502348 0.46761742176458265 1.71906477044673 0.09198018715373837 0.8806236586760253
Ni 1.2779076676731658 8.20457920619666 7.586521415247551 -0.7086317695843345 -0.9649103338402478 0.044143784396749784
Ni 2.587572493373005 2.873117708485684 4.994778996301444 0.23925246201156217 -0.4110348061956082 0.9242005148257115
Ni 3.952415497181744 4.357414412816854 1.3606043840031328 -1.8510073569260188 0.7318763419345719 -0.38652036599401174
Ni 2.454574889441946 4.46973876596586 8.515682389002716 -1.1002236365639826 1.2659335493017037 2.132960443129901
Ni 7.308583622234509 4.3818287143690755 11.694637960203043 0.06325607974616848 1.7335277399495952 0.7206305938174233
Ni 7.509764893428332 7.904914541403021 4.401343446202946 0.6928984180094777 0.6736465117584012 1.692322726466195
Ni 3.41825285842967 6.110565490363024 13.038639690850225 0.4028162749405579 0.1253659617030357 -0.007785814593005945
Ni 4.091298525897635 2.868550470324584 9.04598236962708 0.8100749019231854 -0.7216189258726218 0.07063257471589772
Ni 4.273783826245003 6.028271656423691 7.928727304270609 0.012933420232216436 0.4122198276426449 0.3200082412043908
Ni 1.066032375419206 4.82266930996355 11.036461809170952 -1.1508895383499662 0.3192266258433599 -0.006277862588911768
Ni 9.192133062481842 1.7468293515548918 2.295581160010187 0.8858067455388616 -1.1824976521735504 2.8277905309444527
Ni 8.924346234771978 6.588760895632838 11.697600166904683 -1.0828838597339543 -0.04910421372581866 0.9856154275980833
Ni 7.92546711312797 3.5036472158360916 1.7237610856395793 -0.3442069499377814 0.2636409181582556 1.0645930318445664
Ni 6.637143914526443 5.427781951287348 3.1430322008023066 -0.04655727893424885 -0.10841262167814877 0.4490287689408783
Ni 5.002741029168874 5.630782691342097 5.453639760022601 2.2978797416455263 -0.6369874657744707 -1.293631015216972
Ni 0.8668980066939249 9.177438066528547 0.9688968740571756 -0.3379568552630115 -2.1125592537657294 2.1006702156376273
Ni 2.2223791005728484 3.131352324675688 11.669978587334858 1.0677410905552451 -0.8087230158809815 2.328828110397925
P 2.713793504097553 2.6375521890221165 0.4763137402794578 -0.13721103396707982 0.18905141567713893 -0.3148241259002901
P 9.131264402680353 0.12335070576639347 12.586477543098681 -0.896152864659876 -2.1250298754289143 -1.41729002153123
P 4.4688847295617515 9.159011302809475 2.9934170907082693 1.2784779616256174 0.08793815587388082 -0.40584811978834623
P 4.750558931842767 4.269290852119043 3.317403227010208 -0.5960611598737541 -0.769540689254565 1.1244580836313152
P 1.0287425467746145 1.6446606052112587 4.177883892767611 1.5014219162851432 0.9638294420712433 -1.6640431627952115
P 1.2490375240125533 3.4061385376974838 7.002486763697318 -0.15519152970490047 1.0652445493856364 0.3828287760750375
P 8.469432604518504 4.25370468774407 3.910920467547359 -1.1702931396875587 0.2541455770733107 -1.2219507159628502
P 5.58808087113669 2.519472373149773 10.856901583507653 -1.3121087623061853 0.4242250796336372 -1.4823286470991182
Ni 2.869877939952709 2.55300258501541 2.7927695922670144 0.18646797122067887 -0.010273614011866179 -0.4889628861316547
Ni 4.718634679737029 1.334311202361873 4.761633556082995 0.18394983278451546 -0.4498785185356833 -0.8570558986584144
Ni 8.690776561252793 2.5161212085640874 5.299228121558969 -0.9869953386647454 -0.34952759081974644 -1.298361587923422
Ni 8.172701369112886 0.4099681078864044 6.720265792457586 2.229445203022212 -2.2918412487609303 -1.6612260050613905
Ni 3.643913412206462 0.8393887514772503 1.2466425088792936 -1.2620838365383102 1.112055339091588 0.3492352563903082
Ni 6.9675446068635845 2.226918489720771 12.36471677946717 1.4000217213690855 -0.8261581806382933 -1.907233269298283
Ni 9.167356723758315 8.313496696733628 2.7829732377316305 0.29173587662225886 -0.6617849844341248 0.16977945482140439
Ni 7.989473428414119 7.7312573782329 0.7143476106109862 -0.13821582108251035 0.2625767385597994 -0.8342443000805375
Ni 7.292329081543276 0.3333415481286796 2.095898165725311 0.9812401813485229 1.5208872240986064 0.9365356393522969
Ni 6.3191453160576545 3.6015364971547914 4.785369270014127 0.12074671776346946 -1.0621993348014094 0.357762577135029
Ni 9.167728043934014 0.22766104122337155 8.889912786578952 1.4930817718505642 0.3097505680321246 -0.13255579458325556
Ni 0.033094838959629835 5.710644378130602 7.430519598131489 1.78293637228971 -2.150799785304167 2.0044034852933934
Ni 2.9696423881586895 8.663280302242267 6.130294659598362 0.49585061439042344 -0.07733878309147971 0.6716181684744627
Ni 9.031165766316244 2.245011065281714 10.993759060665106 0.595129392088104 -0.18895834174270038 0.8729859396251094
Ni 0.85825088810233 5.743738288789792 13.504443213556517 1.0962422833187315 -1.739915902864126 0.5712456434919709
Ni 8.8327229814182 5.869133112123409 2.3958635998612685 1.5829464553231964 0.24028861658556036 0.38440409098195727
Ni 7.254175933490185 3.5294261190340084 9.671699567500426 -0.18322581013429734 -0.26582198496997445 -1.8718222367888409
Ni 7.372432126445984 6.626941892699108 8.13864109769644 -1.4729325505961988 -1.3821785225400776 -0.5113515382395
Ni 1.6646004986463054 7.637489750864462 12.627835184268056 0.0587273386378795 0.26989255549492225 0.5174733348665217
Ni 7.509022253076933 5.705566574727914 5.57593313158869 0.47889290349016234 0.13151758312672834 0.15186837886893845
Ni 4.381141772044033 6.480567479438486 3.116049291934685 -1.2813470556432967 -1.9790963739871723 0.7483851382228724
Ni 5.473593577964237 8.990441226046434 0.5790162593756583 3.17578394450786 1.1550845502679206 -0.5111828738721196
Ni 1.1531905036601993 6.5326915491022595 9.595601210692633 0.7937471112974395 1.551531945567657 -1.0424311510355468
Ni 5.686787056841927 7.731006737114304 9.555833748175688 0.06835226332215326 -0.6712114199543472 -0.825161878163295
P 3.371355120238862 7.909026912348889 8.68286651320996 -0.13947129075616624 0.24932475864589962 -0.1127529009247155
P 1.6375962388685816 6.989350384181519 1.4928565626814752 -0.07065391487213638 0.20817656654236405 0.9994867862635368
P 9.103898105731322 3.743241559205996 12.690659773095042 0.8540893598309226 0.6868000184212236 0.17254030539599316
P 3.272398293415027 5.073839559810877 10.692367757054463 -0.918542802319302 -0.10399932310180154 0.2400237929599479
P 2.7234385456613395 1.554708292648129 10.489533182778338 0.45130445234893246 -1.706880569675712 0.40750545288611106
P 5.972025932809656 4.912760867592568 7.210959834841434 1.2678513351497067 -0.3031474608933102 0.49216699489124915
P -0.009412038153535298 7.16319320743949 6.095812011482056 -0.42309456557361974 1.7670580104965568 -2.682854103308657
P 6.624713971644912 8.511837368583352 7.581603279520415 -1.0519398618569302 0.9116902981738428 0.4556341900725379
Ni 4.5472518526430665 0.16313487769124424 10.58088908560561 -0.4979956857578843 1.646526751178003 0.15367586439132244
Ni 0.03303357113063947 1.8294202416347847 0.12760325007858847 -0.866131121486805 2.7217088713923254 -1.4158507179815423
Ni 7.886886946872825 3.7408094120551665 7.018994730408465 -0.44069402382293776 0.862903615688443 1.477171785488527
Ni 1.2493717121706827 2.4646469492077867 9.16706616572083 -1.1740618627013717 0.9049218691017578 -0.7038109511569235
Ni 2.598275797437534 0.0022994001880172533 3.919793163145691 -0.01910072538519291 0.6094586642265827 -0.9510433460501686
Ni 6.203998929573333 7.785117369718068 2.6123117000789633 -0.7918367816486039 -1.0498809224453727 -0.7616075504504174
Ni 3.382104839325353 7.353643325555606 10.84020331520646 -0.485116772912687 -0.8683083316437821 -0.06984093205253779
Ni 4.762301932399255 4.330957850298287 12.329133167029918 -1.1512775178170045 -0.881614818944701 -1.4369252792636542
Ni 1.1236705496921133 1.3810882614955788 6.476440255685589 1.1137939190492496 -0.668229711618204 1.7243003078140562
Ni 6.6488869150829295 1.69703531599363 7.344557120856246 -4.853258293107313 1.715949878966832 -1.3605316336942632
Ni 4.88312023456738 8.111359276087379 4.847215430178145 0.9123628987608352 -0.17022785521273265 0.10868721549577412
Ni 0.7117632221881198 4.6724146008668725 5.280547003519543 0.8526099470719188 0.9487378378454435 0.20521491281087884
Ni 3.771833212734834 7.827540699791701 1.3562107380241724 -2.3519970923152203 -1.8590528529383143 -0.7635536184331946
Ni 6.530992759298436 8.480841416916862 11.726810996826497 1.3103755816651625 2.1289430944403915 0.5586539228698895
Ni 1.976286654128208 0.6468564554759009 12.909403560298998 3.2606650587229717 2.6950683859866613 -1.805392387300381
Ni 1.9863772799028336 5.167514357135391 3.0740669045696953 1.4761561997398192 -0.05184963768143974 0.07541225549272819
Ni 7.23888682525577 0.8701739789440311 10.137408403561915 -1.7131692308979012 -0.10597135922650781 0.39794814821497915
Ni 5.2972907585422595 5.108047430997166 10.13962332840996 0.4927390653446353 -0.0058875691290285696 -1.1572584179907874
Ni 5.634625855160584 2.1870572688594625 2.6929215970215012 0.05183909615847846 0.403968129156814 -0.8346541339244463
Ni 1.1171631636129848 3.7875586221756947 1.6376083067742917 -0.531046445565266 -0.7462040714111536 -1.931082565112055
Ni 4.368062018855029 1.60034354224156 12.616938793712166 0.3875418652799906 0.6270025866476169 -0.2930684793907533
Ni 2.5538751874283028 0.7006328999215365 8.533291320034811 -0.49502477605501843 -0.9449570306467725 -0.34908896062043104
Ni 8.247243894384498 7.767739585495346 9.964369488484335 -0.6110933716165282 0.716926919713591 -0.02217576476609084
Ni 0.5798693674793272 9.096183929081173 4.934563860009185 -1.909272154105183 -2.6128295944904036 1.0195802145793023
P 7.005976245048451 1.3062486800834066 4.324647263912278 -0.19905043587137977 -0.7045768827886704 -0.06615242745735704
P 6.663813986146037 1.7007021027286595 0.6142972458697171 -0.7980488239965869 -0.784036568877895 3.3893392588636337
P 6.154223460020857 6.091702425437506 1.0843588826908397 -0.7827816134248713 0.39605890161206625 -0.49673378832632514
P 4.4672880528062455 8.243744201728534 12.550554172700663 -0.7509058477621972 -0.5545905514337933 -0.9467485753295566
P 8.1763867218567 1.9759803149832562 8.523889493186108 2.669708052845002 1.5567206888574479 1.2630035201391023
P 3.255298999324079 6.554608722472905 5.267435688115604 -1.8595534467238168 1.3238137094479394 -0.002379298865453967
P 8.46077156142032 5.462983103943632 9.774170011486813 -0.12260768223160821 0.27605394711062775 0.01601822980512725
P 4.485529156437468 2.1495446481094516 6.615105133798256 -0.8470481367134249 1.1197524506255294 1.8674094524331257
