# total energy = -340859.72229128826 ev
CRYSTAL
PRIMVEC
9.31046414283756 0.00000000000000 0.00000000000000
0.00000000000000 9.31046414283756 0.00000000000000
0.00000000000000 0.00000000000000 13.62680538917989
PRIMCOORD
 96 1
Ni 1.7231806636088827 6.4461928044966825 3.3131257952832387 -0.6608159356526361 0.18017082535805745 2.0111672863797874
Ni 4.510407697114789 8.484011286054553 11.98905367426501 0.023069737335269947 1.374243326853401 -0.15302460396056872
Ni 3.6396000060226195 4.787589518685461 4.209552158916938 -0.4011142046477866 0.38775603817332577 -0.03304176094631729
Ni 8.558876726491548 7.328275467404448 6.7218579514936465 4.5058449204170925 0.03925303196335175 3.086006935653027
Ni 2.708795685384871 6.881885274424505 5.650749594707995 -0.9103242710642515 -0.3384762181015913 -0.18404753470464433
Ni 0.6371997717462432 1.4060103994717519 3.0622562758166567 -0.20346347733741088 -0.4365707456831836 1.1034647692090997
Ni 2.566029031528276 0.31886663066463006 4.254833600225894 0.42042447494062435 -0.09863240236293337 -0.40061258242101977
Ni 1.6019398023515081 -0.000378935881828839 12.301939262902938 0.3799622531605198 -1.0184795253159558 0.3110392049365611
Ni 0.3578672330084341 0.29972524787711385 9.333680499846865 -0.7061136311481709 1.0761663385044626 -2.170016981662566
Ni 5.647904316931904 8.614106398506502 7.346388043928031 1.0427450827315397 0.06313909455232998 0.13523385563605098
Ni 5.139739195796325 7.568206122803199 9.201649741944493 -0.6925549186271298 -1.7276332288420313 0.6387072766790548
Ni 4.312197230572918 4.640186253793221 6.711160228441526 -0.8624701276954501 0.4972037859842082 0.5100261345598571
Ni 2.9489870337735784 1.311211255767053 10.410525033457942 -0.0390339739740102 0.359940044402322 -0.12195307936674481
Ni -0.09128444357225682 3.074780711891255 13.117707215444263 0.9040633777562044 0.7500944076044952 -0.9110287533304439
Ni 8.373021245580803 6.494933083154519 11.470077242417402 -0.8717466679013697 -1.6871951754316425 1.0686134658578694
Ni 9.002222397767362 8.489094799358694 11.303625699376916 -0.9926167986165807 1.9694979316654597 -1.7907538114515997
Ni 0.6122775219064535 3.3264425518380243 8.798664931792215 -0.7438265723179126 1.3604460159589924 1.8315459057672974
Ni 8.534036408734314 3.4101715539335222 1.6366203494331848 0.6945470093564942 0.3027062595908335 -0.25829868000973577
Ni 7.766816939293931 0.5282859647282147 5.729172563411496 -2.1678145746946083 0.5264801663508223 -4.147324896290748
Ni 6.945289533767364 7.526178688636728 5.553250416464467 -3.485472806064113 1.8562567782504158 -2.587067397924635
Ni 4.761464356906304 2.445765768983236 11.841012642593771 -2.8521908141656875 -0.044783731973593845 -1.5829287147113833
Ni 2.9891709960825037 7.321413655490249 13.399550786303182 2.0594284353790213 0.7373278519674463 0.8487905733258285
Ni 5.4106550751441285 3.4205341002842715 9.144226524628335 -1.000179184344871 -0.23826952927300254 1.2567673094214034
Ni 5.917861218495226 6.401753960173118 12.344099836703565 0.012492476040055905 0.09498169298422351 1.4143173120561512
P 7.979337588891599 0.44722813473337303 7.62539657852118 0.4422672818473286 -0.9034594256236183 5.287626374712223
P 1.8327182717100199 3.597367741649754 6.967848787862481 0.6534052450108618 -1.3246477753134607 -1.4767354692820567
P 1.7466430327049187 4.289340041632137 2.90565706570372 0.30839302556296566 2.5241414478243756 3.107137032763423
P 8.88739644615569 5.472709317217573 13.344920708165127 0.4324497815362746 -0.64697928687986 -1.4308711026497742
P 4.5091321635567905 0.8719482229232272 3.048002886590815 -0.7588438716623511 0.3766576142673191 0.49080071067134184
P 4.087908154571524 1.4085707770516764 8.330147490243368 -0.8225941174361188 0.1677714232524401 1.0960702765172412
P 6.469003441117829 3.4123688234202936 11.53197041346491 2.108765848161568 1.5542624571249428 -1.746863794936869
P 9.012920120819484 9.062004886642619 4.212645095033487 0.9770122593101046 -0.6920134443013631 0.16632492061390064
Ni 6.964580815024105 2.602945020998825 13.546734324246746 0.681046403766898 0.27144164514959707 -0.9179673894318061
Ni 0.9117904912060318 6.274554402002465 9.69881082576475 -1.0903135765391223 0.16496120749715462 2.0375025818402066
Ni 5.60982451947048 4.968864251344122 2.7285226963533953 -0.1112061252628859 0.9678624744900364 1.985036136510375
Ni 0.9726548559896065 0.7420774926519178 6.005238060357321 -0.631603575754738 -1.1555028687522617 -1.7232420417528709
Ni 1.6878381425419964 4.647122549418835 0.09982865631806333 -0.9089446171079055 -0.5879465011864197 -0.5699690907723926
Ni 2.4308410953082578 2.827243407464146 4.687893070955161 -2.5618867848939493 -0.14372132428177184 0.5271663937845694
Ni 6.070580758289782 1.6823915211447023 7.742355557418528 1.4985075708518256 0.682524016753689 -1.8370850904179714
Ni 5.067927587527386 6.8033608216641985 1.4072943124472848 0.1567583599713881 0.560688179691099 -1.2227909524759586
Ni 8.394537727716097 4.236149361217194 10.881466919813379 1.1377537722989566 -1.6887203538269173 0.2670077777479595
Ni 5.85934495271404 0.5366141747109149 9.782356411720887 -0.6673869040019345 -0.01436526758273655 0.19489090517705143
Ni 1.0761127311464138 4.862678410256704 5.332441591878985 1.774277153952815 0.33272106078536895 -1.0146161857058074
Ni 6.264461859105599 9.037704575793153 3.5846673378069354 0.6478105245319037 -0.19064241431334264 -0.577937710800166
Ni 8.675052695372635 6.547518583414207 4.446113357420508 1.0899677631639293 1.4355888198404179 -1.0559919204391166
Ni 3.491042243603431 3.106957675222962 13.548683004346668 -0.7171377501728166 -0.36612534727742757 0.7028416452651186
Ni 7.263679468678933 0.7947048899992768 1.474025200551261 -0.9440628009672773 0.939199559337705 -0.9798052486742094
Ni 3.120057497968249 3.946025994787994 9.47116067228571 -1.274032267149438 -0.3856238223216714 -0.1842470523099601
Ni 8.662828056236487 8.681923817750759 2.1050139618118036 1.0684615136610374 -3.361887847520901 2.9132979658896536
Ni 8.298034769112757 4.658043723605204 6.030461038181953 -2.0757186878986125 0.8749854865536415 1.6198001338164365
Ni 3.4292673154477957 6.7730925034375264 10.746166326979843 -1.05199899722964 0.784510680300836 -0.2972115550248494
Ni 9.035991450430586 8.170155547075433 13.569790757115564 -0.13023434553893054 -2.5795430645231314 0.19264607500693276
Ni 7.438911710248971 4.0107150981527795 8.428111260636854 1.2229614166155518 -1.766298249512397 -0.9327450619616129
Ni 3.0566439281614617 5.735748544083135 1.6155935977004514 0.5125046780073368 -1.502281178961645 0.16092560397520025
Ni 1.5982528586364169 6.3984021931593995 12.069452323413822 -2.816497988749769 -0.7366411103130668 -0.9007044885863005
Ni -0.028176256982275563 2.7351629192261306 4.867208882003582 0.7674010172037429 -0.5100701004239151 -1.875911576366866
P 1.6864136415611655 3.573672610955543 11.213402648692336 -0.6298068888656315 -0.2641597667762031 -0.12567577963397064
P 6.842250629487271 6.820007931165672 3.173655976703194 -0.2951611002537239 -0.485406536238964 0.36976037292685354
P 1.5958693798711052 2.782245935304962 1.5915428072842288 -0.6988836890586351 -1.331738620721971 -3.062790388327248
P 1.6193038175753602 8.278724866928162 10.270059926284098 0.9656834645608466 -0.9134263070283429 1.630245497519476
P 4.78492672600234 7.0158256084783055 5.911403480715459 0.2837256047232727 -0.12633501048452436 1.7671616259539566
P 6.379492640923665 7.9269662293022325 10.933072028221554 1.1074540928741508 0.6349156708471065 0.19427923973498154
P 8.66145010757529 5.644803932444213 8.170986971504114 0.10978096278058512 1.2535768275085637 0.38893694585530436
P 3.9345368823020777 5.194521965542784 13.202235055344696 -0.10509229905566418 1.5209628145315484 -0.13123373333772237
Ni 5.177120708463225 1.0871642518277609 0.6956862440428624 -2.3144947244943883 0.42439014445659173 0.19354853221654408
Ni 4.699037696275778 -0.23395613069679644 5.394674594859827 -0.8418745629322857 1.2120622532045446 -1.5699796107498831
Ni 7.929787299872112 2.0408257614062904 9.589155905818133 -0.9710827811995469 -0.6209594657773305 -0.26587057881972276
Ni 0.34163909438367573 1.7093639351412169 11.222791320516322 0.6067808602841033 0.903019252762406 -0.7973165738162526
Ni 6.486646770259491 5.906697972246754 7.4362703316328815 -0.844782737718016 1.0219967944405948 0.0009690487814886537
Ni 3.001833227023222 8.778156772900216 8.706602133435663 -0.08006595221465565 -0.1719983168495941 -0.7030769012043762
Ni 7.02449365039434 5.225451326708274 0.8085970332247513 0.814502598677236 1.0119286115713153 -0.5425521322120205
Ni 3.1316024732377272 8.040246643902023 2.3040204730194334 0.5921263435957221 2.413540046025024 -0.5544874501970257
Ni 2.7043639045556196 0.9596574483475165 1.7306448625391575 0.9270796361457194 0.33193841698307347 -0.9122693106057643
Ni 8.682612792081358 2.4325076683511906 6.846365854543005 -1.089093588089092 -0.35966930723943863 3.3165389870724558
Ni 8.313955662427926 4.442497173231262 3.756242429146449 -0.8814587529828111 0.4465337704331665 -1.3368738850660074
Ni 6.325296430404607 1.0012659116372729 12.117963564659055 1.8021995913946962 -2.859806935950049 -0.6752683636325403
Ni 9.327036552788558 5.937590091556535 1.7845934147177573 -0.2842735068069427 -0.12972526711299595 0.09878409744944922
Ni 1.733869076197077 1.634340216817463 7.841122820848913 2.6751629053119865 -0.5357060558244645 0.8982835378496336
Ni 4.303045044532678 7.046289446447444 3.7475213175860294 1.9370459817843417 -0.739872729876487 1.2315406736441306
Ni 6.766649662400043 5.525611373250778 9.956970438486174 -1.4237113516765416 1.4265040839303302 0.26179435186782013
Ni 1.5634131026215885 5.466033714581915 7.816567403287847 1.4259880635258602 0.8489880340486153 -2.3541169668717004
Ni 0.3539903558292319 0.9782597552736595 0.8390990440959911 0.8713232072107059 1.5331004783353468 -0.7213317336495061
Ni 7.582283544260821 7.994439161381191 9.044274039140044 0.7102592778854284 -0.13612422866080426 -0.16880809204707053
Ni 4.6001419484432 4.898588869623137 11.11947310231842 0.6782323313568707 -1.4545645896119723 -0.09675344017266563
Ni 5.958268631938399 5.546559917086525 5.0322703727797675 0.7286192684498548 -2.595361005391995 -0.4224764723736466
Ni 4.554064462468485 2.6070136937349235 4.8655869991874985 2.818927424126868 -0.8606785830126662 -0.36987118747310493
Ni 4.031542605957475 3.186180412777792 2.2177757835708607 -0.5564245193187385 -0.7847932445382614 1.1256683018893323
Ni 7.459236453001608 2.2619399692085778 3.2784182478561736 -1.1841866098401994 -0.7053374151037789 1.2391457396848982
P 1.6339771087243098 8.170527965632512 6.980317361153517 -0.4205887684326305 0.46259776587456464 -0.05523243811074358
P 3.679709484620129 5.948334366928291 8.732956332627424 0.3963049561846013 -0.6510807106427432 -0.24598695252191827
P 5.966461840194158 3.5240012859050056 1.3945259422177991 -0.26955342698794865 -2.161078284412039 0.8102091135082046
P 1.4700570808255744 7.553421106087125 1.2612503752883863 -1.7188305429487365 0.28901924902204423 -0.0903724763469863
P 6.801880457899806 3.0203889816297296 5.299355927268002 0.5075121098887517 0.49118251949079283 0.2528875362964935
P 6.731325762261012 7.912991222947807 0.9706698650803703 1.5025439457047285 1.2134910152312715 -0.6757522452474943
P 8.447579440708207 0.7483909182408155 12.757687403175906 -0.8021307073754443 1.33903875392781 -0.485842338224802
P 3.3280253307056142 0.9828498139896699 12.769215619610316 1.580122612721156 0.042566926827933144 0.7042256700968388
