# total energy = -340887.81154569046 ev
CRYSTAL
PRIMVEC
9.09262956540902 0.00000000000000 0.00000000000000
0.00000000000000 9.09262956540902 0.00000000000000
0.00000000000000 0.00000000000000 13.30798246606052
PRIMCOORD
 96 1
Ni 6.347301118974439 1.7327187967056732 11.329937634705162 0.21787990987305703 0.7583864724099585 0.35819169425264763
Ni 4.921076684759673 0.6650776728399399 5.7355271693227765 -0.49439357022892266 -1.9320634409680857 1.1298435163129443
Ni 3.056351089826784 1.6065949299051694 4.460103998959669 -1.0690973474728231 0.6833020325702942 1.5745363768826304
Ni 3.5428067796708436 4.089482956128682 4.428777161796683 -0.38181319032632954 1.3593841503533817 0.6504430770587443
Ni 3.909839870815616 2.755721473503155 2.4762167638003625 -0.5539588313870654 -1.2713315803888232 -1.1243634670349796
Ni 5.140236338821568 4.65283501548697 2.6714446164478725 1.8809653367406898 0.3660237887025567 -0.27134085790567464
Ni 5.433219053553442 4.246103502999036 11.54064296165646 0.04973670510349499 1.2826104957367523 -0.37609197157183616
Ni 5.54033932424602 8.194368826997474 12.225844442585425 0.12697264406852327 0.12576268292082213 1.275762105356351
Ni 2.0693461340777626 6.518769930172183 0.20306660872628723 0.16276985627279064 0.07201917065077919 0.02037290722939717
Ni 2.656730013777318 1.8046960535431604 0.059235754815459715 -0.36582092866313126 0.32048158129638354 1.382736966146709
Ni 8.306862841852627 8.86583225368746 6.672342627561494 -0.7812546352573836 0.25921116452167614 0.31157399439410854
Ni 8.912577463061075 2.4212490893739265 1.1713171064216201 0.08315744665578581 0.9388087516571896 -0.5453993718528285
Ni 6.962362963531665 0.8081001919689517 4.640387205404792 1.321653468571827 -0.8579149042245999 -0.40180763117038537
Ni 0.9265116902437408 7.649911252190513 2.3883174030659413 -0.8476965689307012 -0.7251482791821189 0.09441682161968899
Ni 7.7418286459967485 4.016960141508193 3.785629093307508 0.6100659587932783 0.3128808861309902 0.21369286837490295
Ni 7.635281210976324 4.000620685907262 12.47343947756039 1.072272145656379 -0.9657518559049368 0.5669125633342559
Ni 7.90816012140455 7.29092513834503 8.755854169474922 0.7391237675256045 0.9063465173634262 1.0772852826002544
Ni 6.867917818664183 0.8656901808056866 0.3509691422242581 1.0376458138317615 0.7063907960689576 -1.9119499580476622
Ni 2.0739379120847015 6.595111649273691 9.255329595810341 -0.09080827833282426 0.5126836267873623 -1.6002083277274377
Ni 0.34503983838599056 5.128006751852591 1.5071552035342988 0.2309280013062668 -1.006731383641092 -0.4081844812310067
Ni 6.618888875982892 1.9056606139175238 7.018124424532369 0.8781872813203908 0.5215942990134308 -0.8023968165526375
Ni 3.375920653850323 4.227063536372243 13.395682178152136 0.027699522797797457 0.5263192152929258 -0.21420837455874076
Ni 6.017920607486569 5.940096789741236 4.696360524677896 -0.06304627772820755 -1.6078061946793538 0.7002466308444327
Ni 5.345447898898027 2.895047838652324 9.129834938986233 0.3904055599810308 0.46380901257384644 0.6662080532024849
P 0.2710321973327615 5.808108176773453 12.55432478373134 -0.34080769444824527 -0.8019363319764512 -0.8562691410910608
P 4.396395579586559 6.240199033541296 12.503355138591344 -1.8722120160280917 -0.3085652894747718 -0.674005951980349
P 2.503701055645066 8.55992891212814 1.316260898209773 -0.8080313891305955 1.5183102074000496 -0.6077576223750759
P 6.444101254938548 7.687636572885149 5.835496996006131 0.10944029161171474 1.5646031769293183 0.5978190231051252
P 4.565682159652291 1.4180683453588756 12.550332210022734 1.1092536079767348 -0.577627892869231 -0.2044510380616608
P 4.022115662557568 6.288871880414851 8.151950800106045 0.8583041692432186 0.3221972784359096 0.0790195132280123
P 4.926705022554318 0.848273248583326 3.5474558412449984 0.4054452279229728 0.42085590605108814 -0.7524107144424977
P 0.20683641300683575 5.724892429606111 3.658803275492874 0.6261134991744443 0.36126313408911975 0.9652121813513829
Ni 0.7658167359973287 0.06062601789914489 4.389744320948784 -0.22897319157274112 0.25023930004036904 0.6168310454312538
Ni 2.030420586260521 6.678209192254717 4.495436139512867 0.8432850701265671 -0.8853462609626752 -0.2472516781669548
Ni 5.947707320814124 5.888150596169663 9.512971986622272 0.03818782392363101 0.12203149801316404 -1.5061362910416771
Ni 8.591598541431445 2.511493439312287 10.22653247037469 0.013548170998079895 1.185298097736823 -1.1501567739489997
Ni 2.813377838536822 5.106184440532484 6.709605133403549 -0.5946807345864598 -0.09055373911985695 0.24509426550431984
Ni 0.9668102251482058 9.142911959044808 8.671229064701489 -1.7564033589961878 -1.0860411744160134 0.48368209734868955
Ni 1.1852697467219135 1.1290863877023538 11.24406138408271 1.4304946931469622 -0.9957072646164464 -0.5792687709067637
Ni 4.047556840504926 7.218638732097175 1.337066653527552 2.6861222325369676 -0.6632448568091028 -0.06615731255336348
Ni 5.581056120117453 8.120300265325143 7.990432053607298 0.880935276379173 -0.09232188676387326 0.35790707313269327
Ni 5.504368881086709 2.7116676825256887 4.342168954482036 0.11082585910533171 1.7922586781319003 1.6728970136414156
Ni 0.8096386649170192 7.108290577855166 6.400593931007055 -0.06616708274537636 0.6876222572122028 0.17894260937791115
Ni 5.470289704908475 4.6428694933174555 7.042238078541087 -1.1186054815052802 1.3135552649447249 1.2928059482125154
Ni 1.0985169665947703 7.698565913804636 11.609218665716925 -0.026997611634766404 -0.4463141982231927 -1.2430373614298205
Ni 4.47726542828699 0.4242566470039235 10.331905137635713 0.6735644935675561 0.39558247619628 -0.3663644598714271
Ni 8.11314436573809 7.638063555669638 4.349780394817895 0.2372238616173076 -0.6129515078711895 0.9928065460298837
Ni 7.644492044879353 6.067866422520464 6.851016438546759 -1.2361298356767096 -0.2689211927205885 -1.3475318790004858
Ni 2.8627599105282817 5.285281968062548 2.163784914104442 -0.9192714529552104 0.21261994702569834 1.0572319634938052
Ni 2.593081605760339 5.3802090223050145 11.268055015379169 0.14047684920254516 1.5463390885128077 2.612766859573268
Ni 1.2323968465436288 3.4333587957707885 3.8234098790434157 -0.7811443349317644 0.3239050051556357 -1.0197802464052501
Ni 1.677653831141269 1.2702312787948649 2.5077027219833905 -0.09489530391800431 0.3702756220003752 -1.1842233766154058
Ni 0.8747955402040014 3.6313780857413294 8.250123923157377 1.3298514310015872 -0.2827275024760615 0.09632766548915668
Ni 4.178663468390188 2.8191607510366508 6.48462074074513 -1.1776652637819138 -0.01171137489965725 0.5022973984570317
Ni 4.1102505224016515 7.369621848543168 6.233911480092189 0.23854026643588597 -1.5248863179556706 -2.7432107500198435
Ni 0.7528224588691764 0.25118389592415225 0.24822151716244764 0.2968166335792759 0.7798994067810697 0.06022397778806402
P 0.3969842134316194 5.727792978485741 7.901614337271489 0.025698947428000902 -0.13510581469861893 1.175182606569376
P 8.716604014776793 1.6528491372740803 8.045420641082082 -0.295657066053536 0.41631919452299915 -0.565381214291394
P 1.888111838564271 3.7974458748873463 10.2422627197846 -2.9910707511947585 -3.035172626609979 -0.018877553630793294
P 4.114860485668024 6.3550116689742095 3.596827911343769 -0.2977879963536097 0.1117591695528785 0.690819681103578
P 7.079876109990442 4.201786025759785 10.12395487748858 -0.04693291710611272 -0.30653411797735597 1.9350135247353448
P 6.62610842397796 8.062598437142894 10.41558551818158 -1.0617187956205651 -1.066685138486905 -2.182169814975016
P 2.2523443997562955 8.69626380210051 5.8665046818660604 0.8031126116727395 0.4614947626183729 -0.20803155632406753
P 7.2724398221309565 4.196194058484008 1.5856727889270164 -0.2815021147093926 -0.6251344230906266 -0.571339488757358
Ni 5.45238631699627 3.158088523727068 0.4909365377684549 0.4501690531929086 -1.6796626145000233 0.2025589632452705
Ni 1.7043225141003835 1.5695060932907037 7.108498799075678 0.680932246786537 -1.6110146743143225 -0.12728657576451627
Ni 7.03196704401309 0.7622506066224345 9.129595802824683 -0.23439719080178986 -0.45123194723978416 0.34111494127601893
Ni 2.8604412899505203 1.8701266169846158 9.191131992958471 -0.12797048920541831 0.08863826726469896 -0.13662302267409374
Ni 6.793012735057915 2.1271025180383134 2.512188116222644 -1.1100802176430882 0.4791474427031296 -1.3912838272754555
Ni 4.14863051243589 7.081594617006901 10.375888006101391 0.1000634783825051 0.3447430249469095 0.5293752285104302
Ni 8.500808633710081 7.5644769033722925 0.17706441552540764 -1.203292991652347 -1.2391886771076916 0.7705894422340536
Ni 7.636963347473915 3.952329729481808 8.150526894292407 -0.11916986019465284 -0.31819201393125846 -1.0201831382706237
Ni 3.1098703083393473 8.7009919695532 12.440767840462305 0.44170703846848447 -0.2176215140053478 -0.06138354531380396
Ni 0.23221303328320558 5.565744131674511 10.222527166984477 -0.9732695044382205 -1.2205108981925303 0.31528332492489575
Ni 8.922670282046623 2.0114078975228775 5.708006506959205 -0.7707899882806338 0.9181147136429478 -0.4458796817889353
Ni 3.6531731191722865 2.9360919691935594 11.309017312252953 -0.9642277059509266 -0.9025158307634263 -0.4155612333110521
Ni 1.0199566458423837 3.2432864641726535 12.284731949682735 0.39553979588380267 2.0027728916685055 0.22126322452299313
Ni 3.2222188411190333 8.631424259590641 7.885738605786111 -0.3498312381030943 0.9264355748038173 0.8028454740542819
Ni 5.792559779957877 7.876790548881896 3.4221475833300836 -0.7444109840664728 1.1013040141123551 -0.913014159191589
Ni 3.1276554920652346 8.60767431077059 3.5009579513996796 0.8972496972684805 -1.4418101181597816 -0.5290700385651855
Ni 3.5226847901077614 4.452197048158017 9.291340955803376 2.279281152707733 0.6497517074186745 -2.0039208892300198
Ni 7.254800120480535 6.1601020583667845 11.663102498681129 0.18731206438852901 1.090079091930813 -0.6647309544363261
Ni 7.864560961912919 9.05696842296245 2.218094282139387 1.365677953781893 -0.903363266365386 1.0281928959489777
Ni 4.847089956754792 0.5660734834324995 1.3592508515103843 -1.409573883833895 -0.5433987964830319 0.30527916252433235
Ni 5.921129564152176 5.437647164225481 0.41983126412080013 0.44694360427707547 1.920758043257595 0.3279547497449771
Ni 8.162553715618701 8.976162222670037 11.477030924158345 0.12583673069186715 -0.028789670538182672 0.06003551592634178
Ni 0.37561562433437595 4.572156112010591 5.864428834501735 -1.023639215140024 0.8386935941011427 -0.30406097384651504
Ni 7.598137818583558 6.375670123690578 2.4694827622321656 -1.3629034763605494 -0.5866041282259122 -1.0093639361679327
P 8.710302822383113 1.7615697107967982 3.277702976913378 0.6704226055044648 -0.4356973419392948 1.9913661924934607
P 1.9640625745879612 3.4042078248990117 1.6135126025936435 -0.4633752674705374 -0.8674791508742673 -0.8915822145700579
P 4.75853683594374 1.2372614034420695 7.963164166349852 -0.3337163348191027 -0.7517861934846214 0.3867815900751984
P 8.430149808181518 1.8674261059587525 12.274950098633498 -0.43528339433032776 -0.2830671452036673 1.2783841163602305
P 6.443582975044696 7.861814987738471 1.0113477440266014 -0.2532094384122865 -0.4781030605990153 0.6563273037536632
P 1.9377666894472318 3.143440297253446 5.889141692808785 1.797516326986414 1.3684773709039015 -0.9687045107753576
P 6.913590097731224 3.8838713203446877 5.8165470464135325 1.10811229528344 -0.2004509157633322 -0.41093659005484706
P 2.4921079527562586 8.652291844790494 9.99155345913166 -0.1097843052146948 0.3433633709905635 2.190893825111575
