# total energy = -381166.65522277134 ev
CRYSTAL
PRIMVEC
9.30857385731209 0.00000000000000 0.00000000000000

0.00000000000000 9.30857385731209 0.00000000000000

0.00000000000000 0.00000000000000 13.62403876524094

PRIMCOORD
 96 1
Ni 7.580399763194635 4.602689428952717 10.525182879666282 0.49313115857673134 0.8898564901282029 0.14246482616685144
Ni 8.407848188495592 7.569471497663779 4.371108870579853 -1.8960237737357086 -0.21245976729875024 -1.0606834123775153
Ni 2.3890361330738283 2.768379128741159 7.243070084092011 0.936568035252129 1.0045888833767924 -1.189972877504673
Ni 5.836075444999077 3.1389813736985452 11.00671074319134 -1.4320144722255983 -0.07639570245192004 0.03419361516257337
Ni 8.813729927798759 6.791079255793494 7.711137750038179 0.3046021910619658 -1.249166357145694 0.20111426037894398
Ni 7.360605720848321 3.0550738903125687 12.76392557425498 -1.024504905574429 0.47333443556577837 0.37512523678319265
Ni 7.460095756618158 4.679997133581133 7.850634173881707 0.20298833747320524 0.8751094137260154 -1.2359313465126587
Ni 0.26793053869483463 8.293985714923677 6.102847066267514 0.5092897706144649 0.4717629773136004 0.14699639548861781
Ni 7.359730714919956 7.748168187098058 10.00689732029093 -0.5750549899357322 0.386101019068406 -0.09623124912060847
Ni 9.097687968700603 0.2579424391082856 9.323188166728702 -1.1254387023770296 0.18321706838354898 -0.818519690256429
Ni 6.848550389854402 4.497428077485154 2.1659766430714456 0.7346562186725542 0.7835398317471345 1.0086797656167146
Ni 5.371363519873928 3.534744693383278 0.7407241675115432 -0.4495458177866129 -0.4963746052146935 -1.3942210555269086
Ni 2.577320653425298 8.637928204787048 1.955662452187332 -0.37563482942975956 -0.9010965818183965 0.5322651484637155
Ni 1.9005594192772337 2.4098314867330553 9.520641632180592 -1.3609640932459917 0.5360135597625543 -0.1077734454322531
Ni 6.567384921064362 7.112150580061201 2.618553911513441 0.7946264285785992 0.07183893631917306 -0.43908117080986314
Ni 7.470512050595183 8.638710124978354 7.51955613288004 0.8521672031075452 -0.2694868354160714 -1.0737785549985768
Ni 2.4097849438645254 6.347441941538752 0.720981613538466 1.9229198267956045 2.0207299903675584 1.9211617064539175
Ni 0.06191318543341547 3.905886835615613 2.42326655116294 -0.5420271129464859 0.42496092935839713 0.31091450643323876
Ni 5.242095356818562 0.6135662581153312 11.09310082318471 -0.9916577771374211 1.294930707865002 0.07433830570225906
Ni 6.52627825957862 6.721041547229473 5.734998297412365 0.8309756566315947 0.745884997508838 1.443620689005959
Ni 6.119353960020382 8.349837157159739 12.177383967322939 1.6873383858777262 -2.495547438236767 1.2454333724658229
Ni 0.20673690600889377 2.4311201947987007 0.3746421659457951 -0.32045895558856424 0.9407774453477862 -1.1630084331006874
Ni 8.060442909213585 5.023530046201442 4.570619530820771 0.6866755770282175 -0.14632893710794798 -0.05025529661112634
Ni 0.40865569426755666 4.595400815740911 8.486031829909743 -0.04754406832755038 -0.6496033547662684 -0.5835905382105692
P 4.455129918565043 7.251546471308704 5.140744537164894 0.458755509310339 -0.03236350393237007 0.12247244220532458
Ni 1.5103440095212834 4.808855719393432 10.5433029492424 -0.8395983653035992 -0.8373162541376418 0.8164718065884647
P 8.031930747952075 0.6879883048948833 5.7187855545886075 2.00420448190871 -1.0893383571100463 -0.8232178670630467
Ni 3.462817344356936 7.649255282897993 9.264468752933817 0.8201014329212521 0.8523204408559579 -1.1947798119750133
P 6.7126917566151825 8.930766625004425 1.0062521633328565 -0.14462378149138316 -1.5993027851940327 -1.3505704087164934
P 4.782959267343313 2.8984105948404157 7.418221137801671 -0.029296949191904384 0.514968566166797 -0.20295414180116017
P 4.362490993042829 2.5597367576946444 12.483311173028337 -0.7990919205491205 -0.16343885731535723 0.18079226099214027
Ni 1.37652395392368 7.958811901491364 13.125684674191657 -0.33509598877544866 -0.04114433544879365 -0.8594189995739521
Ni 6.470715383127445 2.297746950738986 4.151190093345878 -0.010035786969447232 -1.520465820290472 -1.7865955663088522
Ni 3.4095350684637338 2.3013493687632116 1.354734444592651 -0.35882392852000783 0.09651072803424025 -0.4799547690957734
Ni 2.6715420364775335 6.746528422036529 11.130566901494031 0.6703184758264327 -0.12955017498771237 1.3298501454500067
Ni 2.074834536201158 2.849819840095042 11.781632748784023 1.619483631017282 0.2430985752305297 1.568495570005189
Ni 6.6129131550604585 1.5261592762477947 6.876801911052143 -2.3922245723766995 0.09760010444367707 0.7191013016570906
Ni 7.593124583450751 0.19378681826909228 2.759684920899745 1.0212092655422929 -0.5914956519902588 1.7296186347031761
Ni 8.693984435644643 4.698139543734147 0.0965913459177861 0.05005192235106864 1.0692634407370425 -0.06024351817208979
Ni 3.2051094813060423 1.4339857794108812 3.739798609266125 -0.4154103095554846 -0.7411814213855816 -1.1507920935401534
Ni 6.965251978406652 2.656378369910443 9.007028976805657 -0.9072875411204567 -0.28356285389316327 -0.2546855087371807
Ni 4.099588945863981 8.070989523222494 0.03685357415946524 -0.7114923789615811 -1.19711308809388 0.06573539452459647
Ni 5.7235813317619435 5.437100667385771 4.134800487621706 -1.8305110367448796 -0.7316436570984755 -0.4721481285671611
Ni 1.1440330170423674 1.951728648939172 2.3686484949429247 1.5629545855823017 -1.3562828857202385 0.1271346235676843
Ni 5.469233863818919 1.0241572048563672 2.2406230264773126 -1.6615383940954866 -0.004245919760547527 0.5503875690960391
Ni 5.0622071699499145 8.482000286637671 7.014976517429418 -0.35699535995170134 -0.7461590771058311 -0.7166492405721722
Ni 5.226661741613998 6.177225362750648 11.20190222523267 0.5081438299354797 0.20077796008544774 -0.3228122863120892
Ni 5.179011152812931 0.7135766431553349 13.491517205982085 -0.35242882362694145 1.97275809047397 0.318033119755891
Ni 6.200813288521677 6.121280834777526 0.3806620205614719 -0.5613821204343299 -0.03908102516186173 -0.9564190085397851
Ni 7.785048756121271 0.8874142571150766 13.100984373862758 -1.3327688617586984 -0.5865493637285769 0.7661247215944805
Ni 3.647182955178176 4.31076324895853 10.12512644578834 2.126986742044969 -1.3813423997920276 3.080485748724482
Ni 0.6857924123576353 9.050698288632661 3.472126848920317 -0.21818612825956618 0.6435016127439046 -0.31539593924336007
Ni -0.11826915236434282 9.617897610260986 1.1592925619186303 0.6935455646751733 -1.6482337065667807 0.20094225357745393
Ni 7.452509269047759 1.0586920133056654 10.892214355750044 0.7102009138436672 0.420473840121321 -1.0155780353984445
Ni 9.226686183118492 6.468723348354359 10.343219811718564 0.29315204024349517 -0.0767199185605582 0.3181804439670327
Ni 0.5835647250608601 0.9063385874593953 12.124017914266382 0.14598749460812924 1.0459206522460438 -0.26087698225987327
P 1.1566554429877174 7.5379992099637585 8.886633746206861 0.7736035464700289 -0.6847917297419432 -1.9714733102242756
Ni 4.555439108821009 8.425981290074901 3.104863589351276 -0.5821869729948231 -1.3728652155589516 0.9670962857479731
P 0.3604689316210239 4.887662104388515 6.146989253638785 -0.3960385898970921 0.5857950020610556 1.0163925608799398
Ni 2.9054571851358655 7.197687063845729 6.81128351502239 0.28307203029967376 0.5930683957940174 1.860477758310299
P 8.68218116418542 5.921593311636194 2.341100701917358 -1.1123895825025554 0.8819441772596618 -0.0677069164286705
P 5.738363346807088 7.291712966850138 8.771659828934446 -1.1677073812382535 -1.0896070373904008 -0.5177031914891406
P 9.039388371579859 2.4326468008864865 9.082587600434712 0.8060840355962375 0.2476784812917283 0.04299141595986144
Ni 1.0954608794444058 3.4244939464092923 4.787133231793088 -0.6278268823211252 -0.95819255550044 1.0098215925306415
Ni 2.5238149717631506 5.255872045903457 5.764057802807788 -0.1875378072460899 -1.1112750092821377 -0.41403759757767405
Ni 2.9116008437818324 0.6393714861431329 11.84213661615835 1.2743626539056634 -0.48677924821677454 -0.47649689245416
Ni 2.27263241888017 8.068792699827874 4.803590790105313 1.4506523990417597 0.3572745817550169 -1.1517135769131583
Ni 1.7946185419291307 4.240120483103618 0.548845606852183 0.0028593238256660433 -2.1651593964599485 0.4499322545917542
Ni 8.614656770522023 2.776598599323566 6.836747118395181 0.43974040166041684 0.9790143773417979 -0.5410205260588425
Ni 4.414833102991724 1.2518263005579662 5.819698871278093 0.4885893048423198 -0.3945015844272754 0.34468029002977413
Ni 8.611082278218914 8.373760191584184 11.895856395015734 -0.4709656782232857 -1.3037007407481485 -0.16318714631586737
Ni 0.9271190474006927 6.192873075150451 4.062361167041534 -0.7024528944671321 -0.9747283483719341 0.21071630224508225
Ni 2.5096938654511334 3.7911958989838603 3.1885020549571492 1.3366124038745046 1.5988708398629368 -1.6644334562550949
Ni 0.7614282971484512 0.98299469192839 7.178478822003377 -0.43841654064267077 0.08751032430784284 0.4770730766726042
Ni 3.0311136215932986 0.5130457632362382 7.602254432541606 -0.12090432638725628 -1.6778209333055945 0.10066074564687179
Ni 4.37674241938673 5.4772578543535 1.8697768968888282 0.17435139046280296 -0.3287044834268081 0.37560191930929504
Ni 5.678965337989037 4.889616904866778 9.137697149346405 -1.0727871376195848 0.7830384666306837 0.1140803614868874
Ni 8.391083447251068 7.197007537965191 0.3733119707632062 0.0794260046378116 0.2852551539939216 0.7923502309499129
Ni 9.1630434646905 3.0876352811361927 11.366589511239404 -0.04503544297308373 -0.28221611005728175 -1.0977322376006966
Ni 7.2677526981308676 2.1859602891035084 1.5118734081811809 1.574200076589134 1.1578214895831092 -0.11677179227612147
Ni 2.796127986958775 4.861300223653094 8.378470329879425 -0.9232571770758358 1.4991583170619471 -2.8731818145950583
Ni 4.168369996977691 3.3527713860044828 4.9003627223529955 -0.06813989020103103 1.518802830765752 0.6739992671121295
Ni 6.475565150028277 3.655663065824351 5.744807672383758 -0.05060239553789995 1.7686297258590506 2.3049214789836565
Ni 6.324803490285734 9.119972694152791 4.6068596699730096 -0.7343844530684062 -0.4805520363601401 1.557335953843944
Ni 2.0118248007851744 0.7144916759506357 0.34400951159405657 0.591536018309891 1.0709742527805621 -0.06380655293299979
Ni 4.803447438070241 5.1075213067507725 6.870411575202968 -0.012037905001140558 -0.018433267004523093 -0.3485048059821869
Ni 3.831604417441651 1.2681628474120143 9.545627705722264 0.3043934174852693 0.6553130035565359 -0.2676700939223068
Ni 1.3045035191602783 8.612646118601525 10.602948566121032 1.7662421994634805 0.020385248524571346 1.4660895595324364
P 2.6395205429288584 6.210680376650049 2.91847336374898 0.8703117352270561 0.3973233701467867 -0.6098067915946207
Ni 8.884074819295078 1.814659901118171 4.055930804325421 -0.9044156188893004 0.21215406313287333 0.40538352144710177
P 7.380088565614999 6.128429819383741 12.125230821420274 0.1564858230362918 0.6047329766161392 -0.36179560955382206
Ni 5.949779672817993 0.21808126478440848 8.894930477951027 -0.5807070460151871 0.8532486090971821 1.3464075355880551
P 4.819318556238988 3.0097318277905925 2.8888413810706375 0.09550645513944198 1.2966096382293215 -0.5152657856922417
P 1.5215701494107317 5.696754022341222 12.608339280760614 -1.2334296631367274 -0.9155145570159395 -1.0888038247628151
P 2.1914895818848783 0.9665743679109878 5.539493116437143 -0.2569802183086284 -0.2846817979889549 0.38506717848725297
Ni 3.7721971000498935 4.728355173983855 12.569319601499759 -0.0231988067139665 0.1080701507370655 0.5160368595303113
