# total energy = -340869.35046367627 ev
CRYSTAL
PRIMVEC
9.23545834048417 0.00000000000000 0.00000000000000
0.00000000000000 9.23545834048417 0.00000000000000
0.00000000000000 0.00000000000000 13.51702681573522
PRIMCOORD
 96 1
Ni 7.166697208284803 7.618449653449933 6.370479714054691 -1.5661949468964704 0.49824559698516124 -0.9462736925756671
Ni 8.734185376651395 6.411846255547875 5.006017397222365 0.07495948422602575 -0.719411890918974 0.07101438353534865
Ni 8.528991963042504 7.626290557588647 -0.004267705303297699 0.05518230159909852 0.9728349880039633 1.6536903588059777
Ni 6.5459451107824185 5.1805934193110375 5.970118900421112 0.4233735302666192 1.4276525957124768 -1.3734833087589249
Ni 8.386433427959831 3.7898811592119674 10.817190365265475 -0.6929302996886776 0.4990853192776373 0.8971393969428615
Ni 4.832176517618311 8.776058944807966 10.614123877714473 1.2948049809204152 -1.9954149086415374 1.0765489186548622
Ni 6.350929172274662 9.089538107564584 9.080684997190767 0.5050687905545818 0.08781808535624876 -1.2969857906218178
Ni 5.3761357789447155 4.232702916153144 3.6330519938876673 -1.1265491618323888 -0.03209276676948667 -0.4494905390686452
Ni 2.5480814295400163 8.717404548830377 2.4625047489278398 -2.050626006596042 -0.4562713094359045 -0.4686874237120702
Ni 4.165718136744319 2.795508594181108 1.3416553524382684 -0.6457305020744234 -1.5868627596584672 0.555024039426786
Ni 2.582465040975155 3.2818755372401145 3.7221834024185614 0.1320963384483338 0.6797973618511454 -0.7226823341401296
Ni 1.6196592725828405 1.3785583969111468 4.640881545279563 -1.9301932205285661 -1.4366396297024353 -1.0588039359666153
Ni 5.839016951420977 4.0631121944815245 7.885874356055169 0.26184217438662005 0.7555981110315438 0.8754171747744214
Ni 2.039401619108651 5.598839621584232 2.893873613969819 -0.8802158817146454 0.5808515420128512 0.6283768412873242
Ni 3.7882280121674095 1.243129635674277 2.99645462049507 0.3494396590916305 -0.13024822949600148 0.8369115625000554
Ni 1.3583973913342176 3.644468867499303 11.866638586163498 -2.90742530915896 2.082726229564697 0.9675014916061919
Ni 0.06837933361959783 7.1171027969480605 7.330148197245684 0.44423160466255107 -1.2593031884693795 -0.2671291338171722
Ni 1.130798755769473 3.77220449193105 8.795408153595975 -0.40145616136823764 0.3646014544337334 -0.5312796446219947
Ni 7.004448676001025 1.4552034657535349 10.951413899187736 -0.8584450656964571 0.4321998703089976 -0.040723188750975026
Ni 2.06531631523731 0.682577026331351 6.988005865955599 0.7135878280380291 0.7395518562019585 -2.231388699901828
Ni 4.0110242093904205 7.295698090510429 3.395422727009546 0.3676806075796894 -1.0813067450548215 -0.10774953417285313
Ni 5.441762945976166 8.994523712065067 4.477352978468546 -0.8674087026476481 -0.4091116210309664 0.8666404570230558
Ni 7.805181385818201 6.8665448119264925 9.603563401288634 -0.14957006975306497 -0.23228631510637415 -0.6648862490672678
Ni 7.12969996213676 2.9775948909995837 2.3252529082127817 0.036157166646847406 -0.7074850575744009 -0.21440763505374041
P 0.5856185668492673 7.985004995341051 2.0946795315136675 -0.655912841924064 -0.5447571102831392 -0.6493074207924043
P 5.607733367974787 2.9445781274001694 12.16605399294552 0.18407298862594104 -0.296472877086612 2.176564295862781
P 3.1519880510129368 0.6517250541690565 0.464373622545539 0.016899346858499927 0.2686494271164405 1.8775012894514889
P 0.719230713428793 1.7164099342520607 8.21633845026233 0.03647804032137589 0.5733578047389675 0.8647044163426075
P 3.1496976573422644 9.026016625036817 4.860425014071886 -0.0005016222267668781 -0.5231716708028797 -0.35046347237045444
P 5.657069186477744 1.9175120398121286 3.69640631461931 0.2201306535804467 1.3113109489952384 1.0554013380429697
P 8.389998314882732 9.101414907002024 10.198299212620514 -0.07008107308780188 -0.09169428048220336 -1.1597773277578993
P 4.943371436146128 8.492179426061451 7.263915184146507 0.8237212890620266 -0.047343265170653945 0.5888175909374633
Ni 7.857814262951924 2.804273044154771 8.908355962118524 -0.7768230818485911 -2.2934610437525405 -1.7805809846836558
Ni 4.3815600338301675 8.105463078593404 1.03868337064586 0.4605902485262326 0.48592564196722765 -0.017284498112060558
Ni 3.2756693092292597 5.329783013488642 4.802140036428277 0.30406894426631503 -0.8188745024926865 0.8214638604864174
Ni 6.579322057257463 0.9972355571191998 6.728883840406552 -0.7194990513161416 -0.5040488339304997 -0.021731992360452895
Ni 0.7070602264158395 1.9106500942584603 10.377886394409618 -0.9081108083527005 -1.038650600947192 -0.6264297448632824
Ni 1.5142180446067532 5.464574528099397 6.574411564053041 0.8284624032914376 -0.6406307189540128 -0.12252746381297609
Ni 5.109729747395429 2.990349058980225 10.286849710821226 -1.7170261427501463 0.018896836904502938 -2.8161493471610983
Ni 2.536038391852286 6.502104389997407 0.7158089761103081 0.7559760631962529 0.21183138968613197 0.1104327374319711
Ni 8.648064727542433 4.042240058611685 6.597944435473368 0.3271906178854429 2.0638412197347358 0.24193617949131235
Ni 6.045688038365785 4.963006020597137 11.375429492291856 0.5709293978031328 0.8343458586554082 -0.6158727952830425
Ni 3.367756064431989 3.0074531278434735 8.406387559269731 0.8524862770098609 -2.274212479935574 0.2168185584880782
Ni 9.020447643652076 1.887469093801249 6.422426396633047 -0.6283146205908211 -1.9480672725955097 -1.477767510090997
Ni 0.6516816475148138 5.6386998598206155 10.128348927535669 0.03285715573933696 0.02839860574735109 0.39264679060672375
Ni 7.715929916328763 3.043748479156955 4.716023081502655 0.40614353954157795 1.4039123146727435 -0.8605711109005244
Ni 1.2066772815688538 8.91554207226026 8.796813790356767 0.7218708939824278 -1.5519307236679722 3.0757472055982316
Ni 0.36036296706778737 5.933532632169621 1.3011384731132365 -1.617084534657486 -0.8309291196643753 -0.34825155232080024
Ni 7.561753174642436 0.7990657095850937 4.33188250336828 1.1899803337038408 -0.6336041511245346 0.7553348300678282
Ni 2.1626765171575966 1.2965290558510079 12.116514070813038 0.40143662098421184 0.5408287217630106 -0.19353027738409898
Ni 3.597192556208282 5.255696166609062 8.547910799471428 -0.27333269152472284 1.494121268858672 0.4908485331901417
Ni 4.545757247825688 6.992562641105235 5.71289014383371 2.102421394000779 -0.1718903305168201 -0.0020627960662996728
Ni 8.77794297831126 0.6254621812606218 12.231503839176659 0.3596230273825355 0.9354619466721438 0.7250999424426867
Ni 7.891126561218522 7.948257106568445 3.151278767811696 0.37589553929031394 -0.9968588617223865 0.043984118890433924
Ni 8.61932398115883 0.9088577619896239 1.1810350314615048 0.05505400355135034 -0.6950627726506482 0.46110292649659296
Ni 0.6630015488137794 3.597497326333815 2.2920551296297176 -2.389132306604621 3.163573261374281 0.8449693998075253
P 7.513257782849283 4.786571824288547 1.106630484814702 -0.03253293963069881 0.4416671863694846 -0.019588720765204976
P 0.8289091696956242 4.346890123186196 4.728039336361172 -0.5829613892670025 0.4360799220896941 -0.3897203609885482
P 6.459030212255402 8.222836518757028 0.5948180069111907 0.43003885810193676 1.0405938407164916 0.06013270362583836
P 8.99645392286011 1.896501372067047 3.105077463872555 0.5037917236143711 -0.5857870316412557 0.7564154647265167
P 3.698902659011176 4.929887666955879 1.8473724278311185 1.0195154227796377 -0.6781076328535482 0.03395784500268345
P 2.821755766810349 9.036979114097656 10.61021727883264 -2.8317608284461104 0.31069159178915523 1.2455076773471838
P 8.138913908735244 4.825222217481148 8.52016009422289 -0.43252717174142935 1.600986600654359 0.931473394338041
P 1.7589022781180481 6.497625192697906 8.51268583778065 -0.061735529336584 0.07101412642503255 -0.09500226180951381
Ni 6.457644893502979 0.36062340699324286 2.3275377606084446 -1.04263812484003 0.318663040030406 -1.8602347890615578
Ni 5.719251527544837 6.2022475283062795 1.851359375200592 -0.5349802334020335 0.036781173384091495 1.4591961748467126
Ni 3.5244263798726774 0.486421432263268 8.864939148871754 1.5628052044886311 0.8784371925476677 -2.6145098104063034
Ni 1.673095634592969 7.213955048659125 4.872482828492975 0.3312557890937521 1.1913137078032836 -1.1197347100137167
Ni 7.585285122516927 5.105869325805343 3.2847052816783973 0.725032579539861 0.8919892202004895 0.20658608212679258
Ni 6.782502140946166 2.207828673028236 0.14266012512451753 0.8673701361002287 -0.6066834154742907 -0.25917671173931495
Ni 2.7978266942268295 6.820136633720323 10.390781864903005 -0.6471124700236145 0.9500007637182672 -0.11746778990188156
Ni 2.001259176125272 3.085086390729257 6.3544081694349135 -1.825768894074204 0.7540659906577336 0.339081455785758
Ni 3.21073480157402 7.961888643092287 12.469619814709798 0.029113115315872445 -0.1768060226508826 -0.44740845972863597
Ni 8.405070582909094 9.032860099673787 7.774304477918362 -1.0575312399017789 2.3511481140513637 1.2720918555936156
Ni 2.736817256370122 7.641649124823843 6.910580400882679 -0.24292451154651065 0.4911791770566831 1.2458910288285316
Ni 7.199630852759072 7.95967213308841 11.68018484109155 -1.5215351420952505 1.0282582019692743 -0.6521631450736445
Ni 4.704754898770446 0.6910053056210923 12.64083967123427 2.048303014889821 0.968467712174203 -0.09669918989596249
Ni 3.5561501793031636 4.86656012905345 11.482849878992239 0.462982402907493 0.14310091708895356 0.9251407672517938
Ni 5.811873939331836 6.482423628254652 8.102065353466626 0.2076687736680101 0.7967853839031309 -0.2035961462605332
Ni 5.614115069694282 3.0164299933591745 5.753441194354635 0.3132464970005251 0.3954888880412092 0.06508670519700403
Ni 6.633044718476427 6.321828243015431 13.258973516294573 -0.701536810410766 -1.5132153093756455 -0.4142150036958027
Ni 1.287247420209774 8.831471694904884 0.013958471749413852 0.08234446383618721 -0.002768563884072651 2.2689532884191634
Ni 2.120978422709665 3.8182432518032403 0.42375607672449744 0.7459374480133282 1.6064769343449687 0.9462646937146025
Ni 0.5776317424686314 7.869044580304899 11.515750275816448 1.1201234608117032 -0.4828673147568781 -1.4317128818247795
Ni 8.48014562383207 5.825182234813447 11.965433978311294 -0.09103942050702386 -0.2845406444254003 0.432132764516488
Ni 3.707953408193673 1.9591270151349145 5.4751528220929 0.9568344988106489 -1.969060072797093 -0.3627096367276592
Ni 5.2051135612289245 4.380479485203278 13.807777699071117 1.516545402190143 1.3188172846746125 -1.3871690337761335
Ni 1.7044869575228736 1.877060732241378 1.6278557418680095 1.1880319517282185 -2.94176727697394 -0.12156227168622936
P 1.430313905501669 5.995668795944967 12.417106074988785 0.6740100657454069 -0.6314022583772093 -0.049174919062754015
P 0.09050195054995773 2.5304047622590993 13.319124056524778 -0.03293197484133038 -0.41629116949854117 -0.16620716408911376
P 2.665399456953543 3.2158974227913832 10.49989141693551 2.2086418931236156 -1.4093789942142696 -2.7708791624693894
P 8.965801436598166 8.899897205816231 5.680179073905664 0.23396807368417122 -0.6797940194170357 -0.7217816767027312
P 3.769655505426592 4.275943332145441 6.6359677410440385 1.4599004000025888 0.09385786379242546 -0.9727709675352472
P 5.5014424778305475 2.0606616442291688 8.338721203034714 0.19847219477040656 -1.801375038610872 -0.06562895085371924
P 6.195764236544941 6.766266205167768 3.9951327562084593 -0.07373075402524722 -0.21509797625254568 1.2053951255970143
P 4.90181187357344 6.4473011801515545 10.036932666609111 0.9751641503577722 -0.2282447980471488 1.1904467318172982
