# total energy = -381173.3237144347 ev
CRYSTAL
PRIMVEC
9.19778293445211 0.00000000000000 0.00000000000000
0.00000000000000 9.19778293445211 0.00000000000000
0.00000000000000 0.00000000000000 13.46188505071802
PRIMCOORD
 96 1
Ni 4.196571296135684 2.2987283351623145 0.4362646466867715 0.4655169964038886 2.4885728066911463 1.5941114708010804
Ni 3.7803900087363176 6.276879877234332 10.345553240739305 0.07764243037482757 0.21653573714033675 -1.0651895277779848
Ni 7.15954512752783 5.83863310830051 7.591776546347632 -1.8850708742686308 1.0691695954716554 0.34211869995018496
Ni 6.356882194194191 7.714852081325773 2.7392782289715965 0.9248641165516395 -0.19379458678907913 0.5423091629632789
Ni 5.028713124141241 0.14469768336963731 1.5948965004680613 1.2330851353131151 0.023520194609127236 0.1935171647579764
Ni 9.157036870053638 6.8336124874048645 6.144946877180042 -1.4713387237465176 0.8757213362784015 0.15777240305819926
Ni 5.552692428874424 0.45057179821942966 4.002918412487954 0.9477520768934066 0.5283308464063159 -0.4864228933186203
Ni 3.195935280456218 0.38630320894312276 0.22992342132300073 -2.107711695865441 -2.3972554499323877 -0.7484278185353498
Ni 6.023729294377792 6.960689058009303 0.4263880672487977 -0.7802552474585916 -0.6315300422043253 1.191120617955871
Ni 3.391544532558462 8.416468170083531 7.447357555804378 0.5189139239677901 -0.6908747027112295 -4.1457153857117826
Ni 8.097010769227035 0.8835316814567096 11.891247120565255 -0.44997467779391537 -0.118618358566557 0.6517466263615163
Ni 2.4881842704048034 7.3327117889906095 12.016818933862885 -0.7695538018806876 0.262865987665444 0.4533142836901096
Ni 3.422761808226634 0.41551720746323123 4.85321114556233 -0.29665336852853424 0.37353063860256314 1.4895573036370733
Ni 5.095728171435967 4.361358777240861 9.700002238556484 -0.09002229209641915 0.32702426751090774 -0.15348688830896792
Ni 0.19044469692025232 5.059728048582336 8.010925958336898 -2.2555436998814766 0.02568969145662027 -1.1599357077126347
Ni 1.4285628720323542 4.620064821058974 0.18543374471517862 -0.3991043733066094 0.5099415452658508 -0.002849296523337028
Ni 3.7084633452934463 1.5193265951594965 7.039381610662989 0.8431200053036124 1.800995543784266 -1.0404614289036855
Ni 3.420535944728786 2.4063423968351527 9.626096212201478 0.22373868264667918 1.0104571692321114 -0.015199590558573822
Ni 4.873086634952829 3.5709380931453882 11.945847920078801 -1.7721773340009932 -0.39075960088634 -0.36675758154478777
Ni 7.7554970846191305 5.139537212098167 13.119993674528773 1.7910332903652315 1.4725042048095285 0.5468767277293033
Ni 1.711449887486184 1.4471423937912544 8.498259455846412 0.8741293092009333 -2.118596718209061 1.2806903958959042
Ni 7.454508832124945 5.530121069272276 2.382686618611531 -3.5392093763556214 -0.990965379056087 0.6877528692527963
Ni 1.419263913369855 5.061558407409079 5.773587306356565 -2.084687467056126 0.23683871036374696 1.3871268676842885
Ni 7.624934554239134 7.508683774283323 12.403646416439798 0.7745957351799693 0.2739299587890895 -1.1339912199327307
P 6.985982961393945 5.768178090145472 5.15512101591802 1.8266011601675125 -0.5768313651098647 -0.34441675195574234
Ni 1.264051324418646 6.240594623106183 9.841472419854242 -0.9894047194371863 0.602447265905756 3.1376575699497833
P 1.2353358457397914 0.913852173277608 12.826699367555044 -0.5327729413380696 1.762014020314746 -1.1675842253968278
Ni 0.35976760484687165 6.132575858979191 3.758020080582941 -0.8225478375792157 -0.14893963525791767 1.258268576557278
P 9.132009702377417 4.322222210367533 1.75396204073848 -0.45960962978051817 -1.8511953045671086 0.2990491224542205
P 6.488943963211166 1.841791671073004 0.5938061143059773 0.6373211949648057 1.1220160498487257 1.0367600687926983
P 3.1757277510976523 6.697531287195494 5.84278130845559 0.6473922060475624 -0.3367242684074911 2.189994196115441
Ni 7.840916895794826 3.7095302881271257 3.8873887387231805 1.0534699253482116 0.7055533877693267 0.6879816974341506
Ni 6.45803021438361 7.842857628018156 5.3840814293557955 1.2461303985328473 -1.7103538729362933 -2.484332543357554
Ni 6.308970942292155 2.2525278709073855 7.502456875159176 0.2752023977436099 -0.7464239007314435 0.5648582519083885
Ni 7.029451684083332 3.3180266526481206 12.098573428493571 -0.024189452762009952 -1.406714560008229 -0.4151097475959302
Ni 1.8535188444604287 6.455123714940139 7.767602286889867 2.1636650713026087 1.0908637926156375 -2.409961070424514
Ni 1.160337122758567 0.9460931621991293 3.629889444041091 0.032600816754156756 0.9042328134545331 0.283326312402325
Ni 5.861535588092421 4.192340315933162 0.6074556243506347 -0.4756743965528647 0.18070792880845005 0.32002906713999724
Ni 7.437860844806327 0.564900241518009 9.033504205257964 0.22792032482819458 -1.1137674366866883 0.03949420143988037
Ni 8.619766768814706 2.575829945078348 0.3561583947784595 -0.5085639481920339 -0.3877763498882999 1.5791088267446614
Ni 5.016259325892949 5.122190193267827 5.7165352976604735 -0.4875881172713151 1.2098089383939938 -2.0813743435224925
Ni 3.4073187304874293 0.11185975832823841 11.199669492227136 0.21150305981243575 1.4347881783159935 -0.47774747703180953
Ni 4.828504980514517 7.686486118402779 11.969985662134189 0.8086317417187558 1.3856446267118072 0.18242259750671164
Ni 0.10874998787938486 3.3897693604300123 11.876343952691027 1.4784547659660086 0.3127854982037065 -1.109492206350102
Ni 0.8216701520043157 8.349388738307463 0.4183216115148593 0.283894269090653 -0.37350235646778907 -1.799772212900126e-05
Ni 3.54446687353048 1.907491435391729 3.053169131526863 0.11351728989456578 1.4357474569054693 -0.5870761827663245
Ni 4.710515819562452 0.49777849993991463 8.718576712553078 0.9568758935715456 -0.47104743930381454 1.6938723303415022
Ni 7.596605382448336 1.7097942865373714 5.43593577085092 1.401917909950534 0.038022759100676456 -0.10066280252940082
Ni 0.16658932680446828 8.287174933764293 10.76431174694899 0.3525483799239412 -0.645777810372591 0.2903261407589258
Ni 6.05311621121922 2.729359339731597 2.6367257073106014 -1.318480470160484 0.10756415763492444 -0.7734279401241131
Ni 9.193708431069844 6.427272827867886 1.5702611583497255 0.2577456357197432 1.9750476578390952 -3.5534926257475123
Ni 4.69911976636479 3.887737334700736 7.444933939970977 -1.3777960772016657 -1.199384143516244 1.0049809766088886
Ni 0.7676543314926852 3.594668373411707 9.4595050458404 0.3324436387542662 -0.8669088801930941 3.6008299773808954
Ni 2.766352823154517 5.555028665768861 4.096276830213208 2.1886932179158305 -0.8501386027132907 -0.9718559119201458
Ni 6.151192171870286 8.15455209998133 7.520294135826025 0.15414560493888937 0.209594015715181 1.1995785189152373
Ni 8.90447494531223 2.2658370629792315 7.863477218057317 -1.176328033027729 0.347949190589033 -1.177512026033501
P -0.18785644077027483 8.426282204596772 2.471925349309156 0.13186699604634708 0.6382604189496234 0.40733087498145976
Ni 1.8604079839641001 7.835710950589115 4.637364011417459 -1.0192454569477025 0.44002270878752603 -0.28532740199275375
P 5.83322481186772 0.5031665612499958 6.143936960601267 -1.4295220448210477 2.241855403761107 0.4208427934249655
Ni 3.868440385864017 5.5223857337281 12.899528333515018 -0.18459132302325632 0.4650727097776184 1.6915971611540803
P 1.1580744681285227 8.642531281860883 7.761719384851752 -1.3754098363576766 -0.9526289453697334 0.18137410163753925
P 0.598223809504393 6.509795337383159 12.360339574732073 -1.7295510146900344 -0.8617175658001418 0.04941068922264393
P 4.344765976620535 3.772148795124449 3.7975034038772137 -0.551298768056399 1.633511826975574 -1.1587450298386432
Ni 2.566043503914254 8.38419314936473 9.363669665140062 -1.384398670119848 -0.5328331051520437 2.731173102129019
Ni 2.115131387722013 6.524116285590392 2.1701773599351273 1.7490276353574072 0.65146611900662 -0.7043079453979999
Ni 1.3896838430843979 3.8088663450558995 3.2858712031089548 -1.21840696447565 -0.9145053990251346 -0.03129032547284934
Ni 1.6699586881523234 2.127033318987368 1.2767424254696018 0.28473733381723865 0.07807180460276232 -0.04433764557511074
Ni 4.8409311854136625 5.751438124996364 2.2682064118926437 0.13615482478842358 0.6956289295667633 0.48807919797512067
Ni 6.273016808353769 7.362935704089494 9.563915519677284 -0.2288394942083543 -0.8629298409406881 2.088353088833171
Ni 5.765308381834196 2.007002250198433 10.170145079547494 -0.7578264861414303 0.5774389167868765 0.7395302589354038
Ni 2.744526483979333 3.3925194975616515 5.29404801020274 1.4943302995456844 -2.4229202016883438 -0.20225120219686457
Ni 7.726119365560749 4.016506297386184 6.4731476906028815 0.4357233100812238 -1.1342964098779755 -1.3762408168994038
Ni 3.2076072671453497 4.215160015677633 1.8000824842808827 0.3763421399094293 -0.891775818638103 -0.22541838434194725
Ni 5.710462001513244 2.8484062457342936 5.065384685157447 -0.7361212332538548 -0.02954377509538783 0.9305940770568811
Ni 8.517515014659411 8.895746249198767 4.489148176031594 0.14963486155272943 -1.3507462721727252 0.30813591524683703
Ni 1.498751154478972 1.0199881512144782 6.35578673823306 -0.7072881110722464 0.4428714910902309 -2.980701492145292
Ni 8.587556132577246 7.283365682932937 8.678177290067131 0.5036508271611326 1.3507686407702284 -0.3723849550338942
Ni 7.98210286559637 1.4965252909811233 3.0169970101302157 0.16366434306260202 -0.9228128904495655 -1.0053147057992236
Ni 7.6380965817821975 9.074210833697748 0.8802738267007678 -0.6191198414654305 0.3440650250432784 -0.00843938901660482
Ni 5.365269203685756 0.7635640773708124 12.649824159966924 0.9546248927538399 -0.3778053547185171 -1.6738066699398786
Ni 8.417415541737574 9.295923394092942 6.932534644096435 -0.09679483493356233 -1.3759654517508302 0.03186213881591932
Ni 2.8604921326606276 2.267124752606086 11.86994965391539 -0.7594766201503436 0.1288138110423201 1.280476223002569
Ni 0.9539848600551376 1.3473648432761305 10.57650497420718 -0.06043506535760559 0.00944931833835792 1.462731441693481
Ni 2.326524035536273 4.576724867332271 11.413107726991482 -0.1501421402064511 -0.4050690755304766 -0.16133055272310282
Ni 2.9149797994426696 9.009964319100758 2.6902770397782594 -0.14170532229300759 -2.2992491111892273 -1.3958027981917316
Ni 1.9187679174097545 3.4138767498013385 7.567289288536385 1.7609380136417478 1.058781567369112 -1.938603041858816
Ni 4.553840783106458 6.316237190900835 7.7592148285275195 -0.2429021429490075 -0.07303115685506133 0.48831008303900414
Ni 7.976427833455161 2.5448518117694494 10.059905050814178 0.9745167465817605 0.26499280420045973 0.37062863446441974
P 3.722775095717629 7.47490951492754 1.025892208153606 0.7310780144029925 -0.11791953272731952 -0.23296071546557942
Ni 5.750941444711719 5.761445312953633 11.581892564609738 2.2275222749678862 -1.4942315691842911 -0.1965523520398744
P 6.340243404658621 9.178017013188317 10.769023771204973 -0.5006570346401313 -0.7653968422895205 0.8738991954679982
Ni 8.15473605564231 5.592169313720563 10.563434004716303 -0.2152167612185971 -0.29628647210741876 -0.08459212221978335
P 2.5904820134753423 4.698163196927698 9.242957040627196 2.114748033886932 -0.362089486645157 -0.8506170850116059
P 0.425119692966346 2.753301169008042 5.112069872579055 0.26231165782387084 -0.011677179227612147 -0.0066069637935563625
P 7.085999654268341 4.046399092295305 8.941195254578595 0.02883749305698259 0.877459916236063 -0.9312353101853059
Ni 4.356244809865639 7.403249587193089 4.202450519060579 0.3784321896692386 0.45436560777275936 -0.5915131354917554
