# total energy = -340867.41149420553 ev
CRYSTAL
PRIMVEC
9.31830027386486 0.00000000000000 0.00000000000000
0.00000000000000 9.31830027386486 0.00000000000000
0.00000000000000 0.00000000000000 13.63827435902636
PRIMCOORD
 96 1
Ni 6.645904730946609 3.8858149576524648 4.272762023600675 1.8136137467689089 -0.23697086506623705 -0.1602406620930337
Ni 8.912870069135112 7.922754104430842 2.770642748025004 -1.4006313299286266 2.4942374611760916 -1.103129497356868
Ni 1.65843375779217 8.178588030466846 12.67178375846773 -0.9070921372801992 -1.0588684706559635 -0.17884979255378877
Ni 1.4129058715374736 5.084576977278322 6.0127877478748655 -1.0945769798011666 -0.344957969171193 0.6746464137778253
Ni 7.186617724065941 2.512269585243605 0.07627028536167187 -1.996728999467271 -0.16314292334149325 0.610638800577613
Ni 5.4397067079342385 5.262407414155798 2.082687569552719 1.562727042952528 -0.8665864638566688 2.069428484014526
Ni 5.3721397147567815 6.232274712996792 13.44823855919951 -0.8754799096915566 0.7307376003444382 -1.1450176529502216
Ni 8.778024950079674 2.756930869599873 5.741822766326303 0.017659364952976035 0.08748589882781062 0.67490378120427
Ni 6.735938145383319 1.5159103595506584 5.523582589742117 -2.141845404324356 3.2115842420359204 -0.4041059402862589
Ni 5.214828174442091 0.6445514689810047 2.499499786946765 0.46661717144660286 0.2662765560088898 1.910918431459354
Ni 4.6992745912771285 6.670551634401908 6.702230127024453 -2.5028473143322896 -1.2328215972390832 -0.0847427888650347
Ni 5.582928978674482 8.691839993535984 6.051507147964642 0.5074200643955777 -0.5669215621953204 0.642884547985196
Ni 6.413972244367255 3.310037201696728 10.638344336155694 0.0885945585109571 -1.176265812331226 -0.8537150072106394
Ni 5.484481139353032 1.1718880424745972 11.415181187186777 1.2816630442218184 -1.218531405868656 0.025581448013530135
Ni 8.199516932228889 6.825887695120181 9.491010945966561 -1.1256263929078032 -2.10858638516091 1.0375144304602197
Ni 7.261415718030283 5.131410752993381 0.6008290736303022 -0.04935901004910209 -0.5894613951690493 -0.5222018506904426
Ni 2.18979117772847 3.106600076465693 9.723421461335048 0.851978484135507 -0.1982387386033618 0.3632781076366195
Ni 4.219559189847167 1.2789180360804815 5.0421926898051925 -0.507100733382946 1.2252460988846705 -1.4536963280744062
Ni 4.163118246849532 1.8240758582917522 0.4166165330944005 2.1740165897402624 0.6431090052911763 0.9503450344315634
Ni 3.1852372100230726 4.6189228905228585 7.687308618757859 -0.09230491748300877 -0.24886427406971331 0.6527740391847662
Ni 0.9450899391859311 0.42461815728988833 6.298046069767505 -1.031850804416539 -0.5271201139276664 0.9672448955106956
Ni 1.077586846645627 6.064405538801249 8.153655987032066 -0.35772221081539685 0.9743866487617993 0.5851414276374568
Ni 4.201574870879784 9.119782920259842 8.845429804837424 -1.1388886572343482 -1.1779277734146811 0.5831169410082603
Ni 2.5268993162170714 5.962034695186915 -0.008296082474953753 -0.3748467863108254 1.238227084525371 0.3799982486047779
P 8.123544832466676 1.6980831242202599 10.321445726670438 -2.2037984489883855 -0.3520205324449292 -1.2407724766550439
P 5.865813929561425 0.5477091727466434 -0.08957029492755021 1.0738831988972408 -0.7912857942411404 -0.232957887252102
P 1.8885398575748364 9.012259056754854 8.125151307383762 -0.24701153713169074 -1.1071139359259126 0.8765587445780323
P 8.57618125414575 7.348113181073044 7.569487101941547 0.7951720166694242 0.0712205860088838 -2.0918413044920876
P 4.155011325864235 6.755310891048183 1.761969388904392 -2.0263262535084134 0.9199337691295577 -1.0700142028601378
P 9.108871190979633 4.375873672063666 13.364389700461583 0.7971425101322336 0.25499969754348983 0.0030007344995367675
P 4.747944072088858 1.0400527343137012 7.100590246791965 2.218143661966464 0.9566774044074944 0.9166589550330277
P 7.785495545679781 2.368637309304104 2.4155698589989845 0.039010319824926365 -0.10482490432689043 0.10840439414803267
Ni 1.6051703550887715 4.5263548984907445 1.7481540773494482 0.10693295180882874 -0.09557613203511281 -0.34372718208788544
Ni 3.16073008106752 2.6111460663642765 2.6293773202812116 -0.17031655827179698 -0.3107658966705164 0.7965462713091314
Ni 0.8136609089042982 3.807233733894984 4.164092009197765 1.0401850353138473 -0.9894913656137216 -0.9610526506570546
Ni 3.034523026096416 3.7279070461388555 5.382836191307382 0.5353018784075104 -1.4635860763842923 -0.9944448529642549
Ni 4.480825684773319 8.53581437861896 12.264286113736793 -0.2260246504673785 -0.8443268811275201 -1.0144644906192917
Ni 6.828273179915855 6.136035310771336 6.881340898319609 1.0063374906367832 -0.6889080659031619 0.4814349531857257
Ni 7.732399872376079 4.85574748459334 11.647385768125638 0.6121544658911909 2.1842002151414834 0.9333338445855474
Ni 3.2414731504210796 6.455885957691238 9.489265628379728 0.4727664788774503 0.014191718119349753 0.12419842375749579
Ni 4.148544425675963 7.75115761024206 3.8483255731604578 -1.3861354503052967 1.8490198941823446 -0.6987443352672934
Ni 1.2800175954784871 8.695241173029816 4.1559776335724825 1.6484856746765868 0.6480555506631742 -0.947735364722858
Ni 0.4962059969100525 1.130626610149431 2.2114729981291465 0.6157190433139976 0.7746965224238915 -0.7640007332729423
Ni 0.03401831774830244 3.2330494072363574 11.196231887973877 -0.19859535061183217 0.03544625662275186 -0.16128195887335448
Ni 8.6965177801275 0.7878958094510273 4.213940254957358 -1.3785473535453936 0.07612059441366245 0.21853939783392684
Ni 3.263156834481753 8.607947338788136 6.064858408180426 -1.7587662028014097 0.015539747506811946 0.7087073600172763
Ni 4.207510627969019 8.714902785994155 0.9168517629171454 -1.1644117412061172 -0.5890860141075016 -0.4418847016969293
Ni 0.8072769415858766 1.038654989316236 10.623246826523074 -0.5490068866984287 -0.8402745654350173 0.08886580989447276
Ni 0.8264586621010874 5.465611581887256 10.692706366427098 1.0258873877442525 0.5351702379256525 0.540867802531062
Ni 0.8226269771480369 6.295937338481329 3.496349155218822 0.9181345111372897 -1.9379211853004434 0.9108498045504184
Ni 0.9294734002442542 7.8157707023248735 9.93019081064004 1.85606060307921 0.5394102441489291 0.6906985821446814
Ni 4.09920402726545 4.327521013451362 0.41798166404192466 -0.5144078085673205 -1.6497789395667135 -0.12452006876297263
Ni 0.2744584122122266 2.0075718215589533 8.0317838052131 -0.38303472143825645 0.14516731269967903 0.6460801721043583
Ni -0.002507554525452156 6.450844757400381 0.8369538633720528 1.2852265932033609 -0.6770912757738919 0.123329133778665
Ni 7.893429414384027 0.14557327782598 6.588350251100993 1.5394418471723421 0.37058749681383923 2.400226102524937
Ni 5.632688700584235 3.00750927444541 1.9558785524027074 0.6371946966892704 -0.8151682572856929 0.7036338021491106
P 0.2693156424515538 8.95173669836462 0.6353822617976345 -0.878479615749829 -0.36344651489368374 -0.5748552152201002
P 5.370257418160195 7.101634828220071 8.684375103419523 0.5522403060340618 0.09884606103563622 1.3409840505796389
P 4.6710960521282345 3.607113923457933 3.9849402373826854 -1.1608453640110976 0.007021425623155649 -0.2658888336521679
P 3.166088103557802 6.126111321289335 11.635752802426737 -0.21496350755721044 0.6223226646734443 0.10124310051290307
P 0.9768373872283521 3.9763981517881777 8.174372431554492 0.9655168570759951 0.25483154739674174 -1.1760832640067747
P 1.4114242618401605 1.6668947741768245 4.758270612130129 0.5665605793114759 1.9686643800205708 -1.1783810589020158
P 2.2590354649028845 2.789097641141534 0.6191637606770494 -0.7948010064832505 -0.03788057709585734 0.029280237021356025
P 2.848734761033372 6.551920357317064 5.346599186333103 0.7648530539709085 -0.3437726906138402 -0.5140805071348887
Ni 0.8806576221227892 7.352436872265201 5.88426043620797 -0.037817842178721965 -0.25401856457714317 1.718851368884343
Ni 8.209962746509945 9.363493738017835 11.79654752327511 -0.08255966517078685 -0.16429143512363964 0.5032510206195526
Ni 2.0921633488055336 3.6077289312568173 12.234923218660047 -1.289584098841108 1.251238152073058 1.0344213933571926
Ni 1.847790931748741 8.021490811051768 1.7941147283560914 1.1891570664715971 -0.14687452519877287 -0.0763573930148169
Ni 5.136750138883698 3.4050372700244305 6.506779716708933 0.5980691914427184 -0.6221732835797735 0.10691135454227393
Ni 4.143316859385445 3.0368246461922417 11.699607384890927 -0.19579619060014022 -0.06851218593878523 -1.2404729431367538
Ni 7.926518697624013 7.636756841349543 5.458896814919434 -0.3192492515511792 -1.0764255057031202 -2.571737966656416
Ni 8.410828020945644 5.235188659905164 5.252099510714493 0.0841887161337776 -0.12502529053416533 -0.16960102026201113
Ni 4.713419770651474 2.141149651816689 9.240462359680972 -1.2407817326264243 0.7364624186433575 -0.49247706993250023
Ni 6.236393401589322 7.527723413247291 1.8392712100741928 0.3051968872231711 -0.6250125528007816 1.0270155878114249
Ni 2.638951873513846 0.9421267197913054 12.80277948780015 -1.5453486995750805 0.10501310907829657 -0.8857908046992616
Ni 7.555873997496237 7.475168201342609 13.372409029427038 -0.75507437731759 1.0494386927016313 -0.28727424130647944
Ni 5.694301300072491 6.355313545973641 4.433475675239197 2.1503953507768965 -1.2378208502258876 0.4099798825685326
Ni 7.447492850392803 0.13759215389045504 1.5948596561574715 0.7251202541576609 1.9815345511150195 -1.283441219168164
Ni 8.806073033028804 -0.14236778263179367 8.705296550541577 -0.32591200828333544 0.3956837776608347 1.030535170928909
Ni 8.474136551030822 4.371279750171998 9.22675607223583 -0.4431921076544432 -0.6799302878845838 -0.24576918008415738
Ni -0.014856165663056012 2.2453934737276264 13.343742211359029 2.970577773447729 -1.5247284522215678 0.2885191694571741
Ni 5.642062910367233 5.825596146834367 10.78584277475818 -1.3508138921858672 0.20141739344165954 0.04272607811361674
Ni 6.543226383432832 8.138090698740296 10.37867220235665 -1.0232802891387087 0.5880755705651163 0.2990293249598786
Ni 6.1960544809624825 4.746788602890954 8.668023350609179 -0.9556556480111994 -0.28644968852265507 -0.41311122910866277
Ni 8.702453537216735 4.4383808283503 2.3619579518762186 -1.1386366891245423 -0.008982920224900659 0.7383058996099994
Ni 3.2273559259466835 5.473774412672451 3.2748363916805703 -0.0032802134131685442 -0.4753668926147749 0.936696076189561
Ni 2.782407101753668 1.5153046700517572 7.459385796661233 -0.6263425844661148 1.694857834183223 0.1481536490215126
Ni 6.457870755587638 0.6007983232403579 8.747902613554306 0.9203448885250474 0.49214925427943623 -0.21784854241448934
P 8.773496256287887 7.00252538959982 11.687796439662348 0.3166784055002095 0.6064571583960975 -0.9133404321827561
P 6.656918961526633 9.113753980170776 4.3499958211806 -0.09900032722531338 -0.19549331464774075 -2.860790640019557
P 5.8015362962780035 3.940755654352821 12.665442655329233 0.7071785820775756 1.4224923916677759 0.7658467853427455
P 4.232884358823 4.266486148562058 9.672140992868055 0.1565398162026788 -0.09192362288419006 0.05493958946067312
P 7.329001347807706 3.6190506657362835 7.0960485073802015 -0.1505234348052698 1.0907277812584053 -0.6131499970352408
P 2.806215358210488 1.0713715405568995 10.713900839738658 3.464179701013292 0.06614831369229898 -0.8408384083582875
P 7.761445013423401 6.3324743927150635 3.3500509136541567 -1.3053806995537325 -1.7765530944711858 0.4542943882151918
P 3.0279908978082632 0.33053128236052964 3.1505367927160073 0.31633542033849393 0.1820569866371768 -0.616901493657873
