# total energy = -340888.20239476993 ev
CRYSTAL
PRIMVEC
9.09204250892133 0.00000000000000 0.00000000000000
0.00000000000000 9.09204250892133 0.00000000000000
0.00000000000000 0.00000000000000 13.30712324955078
PRIMCOORD
 96 1
Ni 6.874211352408421 1.6922472866308036 11.508093468469534 -0.31115927545419314 2.0673350918206075 -0.7222609303319948
Ni 4.640160171289985 0.5447351689348283 6.001059794858598 0.18782731346205073 -0.908695477211577 -0.3378869212570245
Ni 3.0176670334150186 1.8376290434876652 4.750629394803841 -0.791432861341966 0.7026639820366737 0.05926135676447858
Ni 3.5115467727811684 4.362761959801376 4.469250687183154 -1.019869977905579 1.0816543582022276 0.3617683558603124
Ni 4.07064373178048 2.957132215581811 2.6427548495285857 -1.7091125443300244 -2.4740288474387 -0.47442046954110556
Ni 5.4256853524758695 4.578761609435426 2.398169818808983 1.499453993925495 1.5665124781368893 0.17943883228803936
Ni 5.070122853076164 4.818427845254493 11.394037434256488 0.7913377305249983 -0.8120127423758468 -1.17102359009568
Ni 5.898762498990956 8.357632610803552 12.33103240384341 -0.35935331866091663 -2.02162447715737 1.0380659320883154
Ni 1.8735607947758655 6.843207488063086 0.07239175023577357 0.609205410565196 0.1013693416781222 0.7360646689843064
Ni 2.767881354482651 1.629821323992954 0.4208897327450615 -0.2991673931996396 0.1678282446323045 -0.15353728193092914
Ni 7.919477998878034 8.824518076491902 6.708852560144061 1.9159611360895843 0.7040415791104907 0.985033329842368
Ni 8.965772046130938 2.5888044887507715 1.0396868600916862 0.40247149000662946 0.633052906606755 -0.22635529433391985
Ni 6.858854892913035 0.8785094980948979 4.667659962521333 0.4168159316537596 0.032075540378306046 0.9742503802942512
Ni 0.6614324414447411 7.570843635733797 2.4024812652818737 0.497231296788034 -0.5658319286755674 -0.3968914248156907
Ni 7.626905168740639 4.063251901366183 3.900583444427273 -0.35768107316481623 -0.09971715078667988 0.10069519842923305
Ni 7.784088396541854 4.056705630888575 12.315143150667485 1.1130477849118445 -0.856369671224667 -0.06434648459686983
Ni 8.160771710274172 7.287271927503111 8.98725836056522 -0.2648961307215954 -0.7937095731912848 0.19288390204935166
Ni 7.121033025541206 0.7937989397061935 0.5369305597987477 1.3179431095997753 -1.3379159531772764 -0.8981225867917372
Ni 1.9927483776799682 6.600877283841328 9.046448465337818 -0.4239186041368118 0.2729236290117622 0.0682429914377986
Ni -0.14559451064738405 5.366096107044982 1.0836014245456351 2.1735193383888696 -0.5205036370524133 1.3676939557706576
Ni 6.545379457458946 1.9033099572796583 6.949950792630105 1.213246503320633 0.46028788679446536 -0.5632626252864944
Ni 3.7634236214494385 4.249793333851 0.4828292711182554 -0.06022474911901241 0.6125735557064805 -0.30378303759478004
Ni 5.822816669408382 5.675425571196587 4.730429604359258 1.1187646327909635 0.5651806682448137 -0.4154956701804393
Ni 5.679116940382571 3.2555875971067234 8.769873083680075 -0.12333864686036178 -1.285754697792689 -0.2758647139179572
P 0.22628820473468989 5.790930876957035 12.339016126213393 0.7059051146817907 -0.05665811481367662 -2.2135125909523556
P 4.011563640720075 6.189753313762929 12.527485071672173 -0.1970848275045767 1.466847006523751 1.0970670932128719
P 2.392416374422553 8.674881243824595 1.3188807499404718 0.38855667969775015 -0.6049422644134678 -0.12268764353992419
P 6.3369534790857935 7.880582241790251 5.900830938621033 -1.162591400167927 -1.356873982337018 -2.7252091712361004
P 4.780959538812521 1.047466920713476 12.618332758633633 -0.05156913032654344 2.2933589709570374 -0.3613757484075841
P 3.857808112877274 6.227794418871692 8.084848610797424 1.5531147166737445 2.3012512292209206 1.5834293084968858
P 5.047001789430947 1.1323411358641204 3.651434208458005 -1.5090958878906333 0.45752729333019265 -0.46273300590084826
P 0.28298345309193396 5.560847653753799 3.591020314787787 -0.27519905530950023 1.6865266886097083 -0.27196872129766064
Ni 0.5393035828468803 9.105134870965335 4.429887599119608 1.0479816485401305 0.3155023829142373 1.6379410663915208
Ni 1.9156296746368222 6.815731336141797 4.6567213263940985 0.21835222152378525 -0.4715300353671879 -0.31189178274484347
Ni 5.944786417265467 5.752626102620703 9.118147401948045 0.3117539716153986 -0.4664824456409515 -0.25063447859625865
Ni 8.844056875459094 2.464461717845553 10.04010413352113 0.267810476154913 -0.5635125365137714 0.44445863307169264
Ni 2.4962747739582585 5.40000942493592 6.794936016924597 -2.717287088175546 -0.867504347685248 -0.8540153120598776
Ni 0.6138028684947502 -0.09524368942802101 9.060181086073065 -0.08598000370624546 0.7051073013708438 0.005944133398576859
Ni 1.845457291933804 1.246882685137588 11.287474152127606 -1.4759949915716064 1.0816281329499824 0.2676729221357842
Ni 4.139388663837687 7.078582279902388 1.3264389647294093 0.161059044229271 0.23252362792816084 -0.6746006481415543
Ni 5.5637207391300825 7.962110585363453 7.8653748917890765 -0.035803382851854464 -0.5138848461843151 0.8207071848260511
Ni 5.294232604468582 3.0011831606707107 4.934440486976956 0.7585746771613645 -0.5482404408460494 -0.39335590085860644
Ni 0.9138138984623271 7.43059888279339 6.8505465846318705 -0.2573008348728407 1.1813131449471461 -0.3571555396786494
Ni 4.735444774908491 4.997277409928122 6.716703538696025 2.3845387736966677 -2.0581976482957134 -0.19904555077537334
Ni 1.0997097959417141 7.6119123909384525 11.094241885692133 -0.6553957930783293 0.23926788863052986 0.4337258200352207
Ni 5.07552352622019 0.5944059053879066 10.538177122809879 -0.8246144903002574 -0.061082983354249644 -2.2555632402655026
Ni 8.385399708079403 7.18742311863494 4.831416736927146 -0.6213538730022719 -0.7084384226266057 0.12682300586453643
Ni 7.467730783669151 6.083058197020261 6.814777580901379 -0.845378462320486 -0.35692131218065626 0.3054701954892159
Ni 2.330163160588974 5.654377493202614 2.3408826784960555 -0.878306066286442 -0.7879855262233139 0.1224161350460924
Ni 2.4011901952710124 5.511232378758934 11.32680996406416 0.11960411951859402 -0.07055621295200752 -0.75614627022553
Ni 0.9080559080547317 3.4819067147853358 3.869511389764463 1.6323028942691373 -0.5209697780555543 -2.36260649239995
Ni 1.1608537806110322 1.007952904747252 2.327721947223366 0.26676583694048256 1.0608255943823344 0.41577746308691615
Ni 1.2904972121946465 3.309530684250674 8.105687571817807 -0.13810963452194924 1.2436724239106582 -0.03457079599633401
Ni 3.8070108723795073 2.7154748224924727 6.980717354670626 -0.04649402979648122 0.32430841124164145 -0.2659327995162259
Ni 4.145534884452775 7.101176005092463 5.881429429493025 0.04015626050391149 1.2170540499921816 -0.6519988515816384
Ni 0.6005703100876535 9.108589847050737 13.240946725350396 0.25426461914967824 0.23393850599781646 0.18478415576035273
P 0.29618146173817667 5.727759366848125 7.866253183078155 -0.07081717992287803 -1.429343096041022 0.9433655177899366
P 8.708503616360973 1.5515206554469068 7.8468780408729035 0.18042819278450217 0.43471440920073523 0.5949836105388592
P 2.0765042716240214 3.4207900062430077 10.244581437910359 -0.5526617098421966 0.07131006039889655 0.07938358143565037
P 4.109984998942434 6.202554909363584 3.466412056246532 -0.5126422320264654 0.428897545408642 0.4182863455516989
P 6.96184954842739 3.8904576368843404 10.280218607027065 0.5125458156579172 0.7230104069035097 0.652875854869953
P 6.2411415370121475 7.849742034206857 10.051469186433643 1.479681182173942 -0.979692377245429 0.824150149069329
P 2.4623069038133405 8.756445955567116 5.8993534817424065 -0.29412571701067414 -0.008239871411289035 -1.659039281822717
P 7.327967908972236 4.15023547033739 1.2764818289429358 -1.9485064170154573 -1.8444104204347913 1.1528114379630274
Ni 5.765191305120776 2.824770263341524 -0.019924301561984176 -0.5321363361953351 1.2103316436666833 0.7780227585836471
Ni 1.7878046515192099 1.2105236078598776 7.3194895794995025 -0.8372599469784097 0.048583051115026005 -1.6746155389944193
Ni 7.067990050587927 0.5200875513824039 9.018197671410011 0.10974728132917227 0.9468357357267241 0.1526602786426145
Ni 3.27040762610464 1.862250294117333 9.227891080483966 -0.38484040718842755 -1.3263835270576447 -0.7803534635993529
Ni 6.692161388834628 2.158359928721102 2.267374425462157 0.3166822621549514 0.9842910523597047 1.750976788663978
Ni 4.219062230775566 7.089729123798982 10.196969139840794 -0.8157431559525564 0.20421501079145474 0.15362367099714833
Ni 8.10480109769063 7.2807802092794836 13.405196288450494 -0.3111104244941287 1.3370782877673295 0.3848830875009049
Ni 7.96915691816921 3.89015759948745 8.259265804835174 -0.25900367649656036 0.2804839578575234 -1.3309012124223403
Ni 3.4356918636218943 8.667443953198648 11.977369232086442 -1.5877742157291428 -1.885655543127507 1.1280077486557862
Ni 0.433060340608013 4.8946918963186175 10.018386881211667 -1.0142585452560724 0.5974634395379194 0.3952729153756612
Ni 8.995248447364832 2.3356456621139694 5.762955571911827 -0.4758515455606772 -0.569542287647619 0.6630342834601936
Ni 3.9086599056290203 2.734813596528404 11.258411438819728 0.8015555515982647 0.19774123014165298 1.6250423560519822
Ni 1.7838677971903154 3.5431143437509633 12.436783766592223 -1.5314593431874979 -0.6563059635974245 0.8565398782539442
Ni 3.217928357775822 8.58922511303357 7.932309598218378 0.7897410754618399 -1.0962564243861184 0.3224803568939672
Ni 5.431340602805136 7.927260787112524 3.2534855169200254 -0.16292540801404842 0.6133109480931372 1.5477115433803021
Ni 3.0557990589470814 8.890344462961176 3.7630017506853264 0.6459968683619327 -1.075884545597986 -1.298111933806461
Ni 3.6911146087988684 4.241537759415351 8.963052616270033 -1.3194731730910565 1.2865473688973132 0.8911548972246524
Ni 7.2379748739897956 6.221539093748645 11.352306778370208 0.4447447968535437 0.22056748400754916 -1.0781039218468078
Ni 7.7650769360298035 8.699984372697754 2.970349317516947 -0.059778405610213185 1.4195227675164908 -1.4971320306605376
Ni 4.810735977443304 0.7166002266905437 1.3785781906750854 -0.3514857429873817 -1.1942000282121434 1.4794101879007424
Ni 6.148548177923323 5.519424308898273 13.460820494221263 -0.8975669713985832 1.399894451762602 0.44578866473702583
Ni 7.91482287320507 8.801515209396976 11.321872985078965 2.1201054415441036 -0.9163853896566669 -0.7328783008365249
Ni 0.31777597147618375 4.78820589654954 5.7644730337767065 -1.1298604855938088 1.2697022723155167 0.6996442213737434
Ni 7.356562382100118 6.4730068005120645 2.6775264562154764 -0.02399893401775867 -2.186019270628093 -0.5268694313694411
P 8.64416832483382 1.7795854452528805 3.618871968057307 -1.3025671413643374 -0.06434725592781822 -0.7605407997487998
P 2.016096742383434 3.567762870507621 1.6669568616856474 0.04108211475229054 -1.2637378272019655 -0.6691082575684154
P 5.002914476172728 1.0568680924827063 8.177053739678756 -0.11794344398671945 0.4936266101559112 0.20057535715633842
P 8.880306848228845 1.769056860234729 12.242499550859169 0.4941935384029747 -0.23397141611828093 0.32724178283835254
P 6.309286394275572 7.853969833890312 1.2800104505712129 0.5531185948739571 0.3318790245000478 -0.5610874720120466
P 1.9292950142588274 3.4058972409064507 5.80746839275109 1.1809755591020692 -0.6821902875633542 1.312377956807172
P 6.67431370974082 4.015327746244699 6.234879847459468 0.9511698443257038 0.6075470490261665 0.11765573754297157
P 2.5887317524121314 8.897008929989072 9.92718005857817 0.002169496847493038 -1.0131941085473002 0.6894212580941546
