# total energy = -340858.78436917317 ev
CRYSTAL
PRIMVEC
9.37768309599866 0.00000000000000 0.00000000000000
0.00000000000000 9.37768309599866 0.00000000000000
0.00000000000000 0.00000000000000 13.72518712172466
PRIMCOORD
 96 1
Ni 0.5552882569391925 5.121959271396022 2.2492429399872913 -0.2804281649189235 0.4288314680573969 -0.07616481738803656
Ni 2.077034916939817 5.788609391765772 0.9937296435493733 2.4385923610079616 2.499135155588025 -2.406057878715366
Ni 2.9835849287034373 6.53568252318211 10.923739619203648 0.9362703015060522 1.7796762134811996 -5.263742626116089
Ni 7.452332299742509 7.5765584689745715 0.7440985303081318 0.3269142242956047 -0.4370039765658603 0.3606663810453853
Ni 0.47728093708262226 7.360280961538997 10.54883578728622 -0.624175658721783 -0.6055757842324087 0.5717225831283896
Ni 4.893959659971615 6.875576650442326 0.17345619268020568 -0.5281968919316129 -1.0414299634645419 0.47013983988788066
Ni 0.6635404806235914 0.6556697911213291 5.343914966003788 0.255231868158954 0.19344568809009266 -0.34380920027873046
Ni 8.415110899919767 2.1916489609010354 5.2967967968102725 -1.1947659280179426 0.19170967923559243 -0.6854553314678711
Ni 5.656496590970022 1.4782604675070092 13.035400693558158 -1.2613161051343502 1.9011724078161836 0.20852186569692474
Ni 6.83473684014523 7.084942805366085 7.100135589903932 -0.5090989947598974 -0.14292839606683128 1.581074178001148
Ni 4.730197178406015 1.5907832881166202 8.695537386992152 1.155513924495855 0.22063741801353612 0.8053942086180645
Ni 0.8646477099609767 4.766310636374813 7.633605729130788 -1.3468883318792157 -1.7590269126619642 -3.0143888570954087
Ni 3.8875748329558966 5.832421927634436 4.828465920565204 -0.49549965880890795 -0.4703223882123319 0.8961258680766826
Ni 7.872058644008279 2.1130827311262776 13.793950233663725 0.8017802660145611 3.0445998334611497 -1.7029159286010092
Ni 7.839602482483996 7.862015145310646 4.326700790439025 -0.16230937169660434 -0.9011330914832869 0.4658473831601138
Ni 3.8373010733685873 6.427773522702504 2.510995646521306 0.6148687794985604 -0.33359189342609646 -0.7092753167056043
Ni 1.9372042828778195 8.208370496289508 1.8251887949288454 -0.04877871206559986 -0.5878549699138779 -0.037185607911361766
Ni 1.7463215415236544 8.237188116735656 8.761089268034347 1.4798902128609546 0.16039235717954956 -2.2076083096527785
Ni 4.873150580970637 1.839863931354546 5.6622160399482535 0.7091012530215852 -0.423183011522368 0.7714723590596392
Ni 3.2312776748290855 0.6496258743046865 4.671408482481217 -0.7155575501698903 -1.0426005867338752 -1.9250931802978395
Ni 2.3594813569715583 8.025974558223258 12.861845097436127 0.37453953948305174 -0.6846647172457756 1.6919157208357636
Ni 5.527037674517344 9.156191691777014 7.260445208518581 -0.6007685926517524 -2.928237103697989 0.07535132034780571
Ni 7.350584437119434 1.8510608850846797 9.496388718204301 -0.2109569575009786 -0.714983422833975 -1.3462697244586106
Ni 1.6819906348329359 1.2579505562992765 12.826544684599996 -0.21156579472957115 0.28898659601189586 -0.7155902031800385
P 5.828877163388213 1.5242298705096187 10.810492841451687 -1.48247262887615 0.4932676841545956 0.5553973636058047
P 7.027560761919946 0.2799191544117491 5.32372575186174 0.12082667907178546 0.035840406737376984 0.42141383543708716
P 2.9592310854562367 7.670757296628838 4.0277111794899225 -0.5853190908659016 1.511840797625622 0.4106689382157573
P 1.7166036634911634 6.00562773617344 8.884670252662865 1.637632791122483 1.8076858113202479 1.9039952219769596
P 1.1249843863331401 0.6209264126667456 7.360694517367723 -1.294310814892816 -1.86932980938429 0.5863660440731773
P 0.4308238945540772 8.933040342562387 12.087566369314185 -0.04912555388205733 -0.7563612144498135 0.78439086689352
P 3.754336710177219 1.7182728910991736 2.709750015146052 2.1315113693882 0.5475655262662118 1.4677247811430143
P 4.373170023955718 8.463696676532685 10.154991848627798 -1.3959809756408088 3.2725430411074807 2.3882933556430936
Ni 5.24473189973347 7.946536203911731 4.613446898213871 -0.9021823586834075 1.655194197045014 0.655677071764174
Ni 0.2551376888110359 3.5290566268782215 3.6134989129405013 0.4623812789883843 0.17665175646120543 3.4897428941943773
Ni 6.3950360306824905 1.4020011477972538 1.6397619896552431 -0.3404076307963492 0.047091811281480184 -0.9189562357076367
Ni 3.8883438029775643 0.5998031812788676 11.921451027035948 0.025164672191085695 -1.262901447343599 0.04227767772228848
Ni 5.4008328141319675 8.622029479530656 1.7615724676972864 -0.702112480408578 0.6698749605311108 -0.2438079425927285
Ni 4.908476313551386 3.656208633265896 3.464415318873878 -1.4579337631945215 -0.0990913442772229 1.533640924219849
Ni 8.588869991767044 2.922798786258942 11.134544310728915 2.1251445466299077 -0.1820878398751122 0.1344992914628716
Ni 4.579807273070876 4.454905910649057 13.068423267147182 -0.8722053527053429 0.6949707271574741 -0.9655140288625177
Ni 4.790148707046505 4.491300699113587 10.174851906089838 0.9880734022202725 0.6794896008027395 0.7336858843394848
Ni 2.9668645195737655 3.969310719649235 1.7833680789699637 -0.2755821496805318 -2.1265031175403317 0.6692388696090087
Ni 5.734575181218844 8.409409268539598 12.29642237827235 -0.5379478006707897 -0.0068386201883882235 -0.9221392614213088
Ni 3.3144483470506567 0.13616864877588578 6.883606760558838 -1.1552452442155008 -0.696919880464045 0.3138031408349435
Ni 5.443426251185794 4.1364022787476635 6.249270260928866 -0.35749878195068113 -0.8103047585458045 -0.8383364678720401
Ni 6.629937616935523 1.5470363960302933 7.061828691836743 2.2894254402305863 2.892316221431664 0.5067142965778048
Ni 0.8870575594826691 5.004644454675777 11.125280097504461 2.160422910216228 -0.39447073118934 2.465354459593154
Ni 5.773070570718174 0.8518828076012966 3.64029001604906 -1.8450012599412549 -0.1066922965529324 1.1425681629684645
Ni 8.77035629456376 2.608252536664179 7.678693629913438 -0.7534185868817218 0.18712617362996806 1.352561471004593
Ni 6.723601916647898 4.058004847270345 8.693725618599638 -0.142058077646736 0.37994296988681014 -0.49812269825405187
Ni 2.2340548442910397 8.954374571822065 10.790865350532782 0.031325806696475084 1.5822753973981007 -0.719466141195677
Ni 8.159719075894253 0.6256246319454701 3.2909019223262073 -1.3084526536108367 -1.492681965308984 0.8887347178189339
Ni 6.336228579391309 5.800912912112451 4.747157656225378 0.17081483806445422 0.8467380616721741 0.9797111462985062
Ni 8.896195425304686 4.868096009730652 9.559703084037109 -2.532908395383728 0.05936291533934938 -1.5278086338087882
Ni 0.08647349224146537 0.5977429042817902 9.39202166866596 0.8363474624664694 0.5557223510453914 0.43611308932047477
Ni 7.741455650206291 7.243256852997675 11.879904139426245 1.5317822737445554 0.10571039225563729 0.4300357727781433
P 3.6845292365029176 3.0835791645697825 7.4506630721345 -1.0818402489607883 -1.561593443568717 -0.26080910513641536
P 6.61058207882916 5.195902303357584 0.8492936292722431 -0.3669612129151616 -0.24790191015644406 -0.5730965806577808
P 3.6974423062570168 9.305203077683066 0.4084056051175129 -0.20190898836609744 -0.5336890253944356 -0.01969696420829511
P 1.2858304084263181 2.1941434246298592 10.604930274830226 0.6110694603571283 0.28972141729539136 -0.0424082897628818
P 2.738377268623422 5.671735326155506 12.565367767813914 -0.9262088035049919 -1.7457949873527223 4.928862352895873
P 9.277295092506451 7.1127382583444065 2.1336076663265655 0.5028766679992693 1.782092536232176 -0.16276959916247452
P 2.2686116068501208 4.79950763487119 3.7308493648568737 0.2187972794810038 -0.7249521040109127 0.1570409242088134
P 4.818309889669279 6.842839158422312 6.6450497533979265 -2.004025276018368 -0.31455801672309697 0.1585589035152366
Ni 5.170235584463634 3.5462928085834022 1.2994186713701739 1.7566648401876908 -0.9802791029868343 -1.1513759910680816
Ni 1.303919959301886 2.5564877254494904 6.551319809903214 1.0894437723396593 1.0243218430293457 -0.22357567470625367
Ni 7.753890458117645 4.227356428017821 6.232937150114985 1.4207648674537081 1.3971515989101422 1.2643934585080934
Ni 7.735060070269983 3.358110839988264 2.164242681775143 -0.43875104116395397 -0.03367810897873555 0.22696773110693813
Ni -0.2317319293344522 0.4270972032539473 0.7174096439463556 1.110957735152035 -1.6401709841633043 0.6052927057743511
Ni 0.5069425490159666 5.885312060832053 4.5726830471506235 -0.4224106521327177 -0.3185056885169354 0.7341435407021938
Ni 2.542768174940959 4.032882034001477 9.432580148467325 -0.505868917858374 -0.6000628248339794 -0.05904975497430475
Ni 0.4808435189269086 6.370579032920188 13.21351196817441 -1.414212925267803 -0.1453228644409368 -0.8058580356283604
Ni 5.881185880227983 6.009172500419663 11.738575889358634 -0.6840237412276671 -0.2855503166368372 -0.4493154469433616
Ni 2.080382749839028 1.2437808769975744 1.567196539354449 -0.6826782829433663 0.5361192321024832 -0.6239997952655512
Ni 2.44054205047514 1.464034522106161 8.719446728056097 -0.3863092784244702 1.1891809777309972 1.7649635898613731
Ni 7.655030921917419 8.362605251732983 9.785618974256462 -0.9208611660398335 -1.7497241472037997 -2.5905257887868807
Ni 7.806011621293594 5.6230651503938684 2.936709641504571 -0.5273743960303177 0.4487444049312401 -0.614007974160162
Ni 0.8499894533650202 8.181897296641125 4.258801675294106 0.5616554287003747 -0.5168359583928389 -1.5332534589734432
Ni 9.259252430046837 6.998893184404855 8.260449459891097 -1.9149717755931217 -0.39490704739581023 -1.312580045515649
Ni 8.204422491666069 9.065368830071531 7.490603562613572 0.40832666323582584 0.9681481240512553 -1.0116604455115932
Ni 2.486567719576896 6.946856420377625 6.662727623981406 0.3433407452827442 0.08911906355585943 0.19532439317004424
Ni 6.491157283390924 3.4638067072347782 11.853030512705605 -0.5427755610767362 0.45413883647393394 0.3143029632894974
Ni 7.909644398238075 0.32865872502899973 11.433657707096138 -0.04228564814208847 2.0537331847664566 1.1777331409053717
Ni 3.1534335266600397 3.2060048186291605 5.325359344273624 -0.7341566533283163 1.5110118739664236 -1.4519436070493574
Ni 0.7004857390914374 3.5439014993696802 0.6255242907353257 -0.04942483029003101 -1.4301637921701045 -1.0194174637491928
Ni 4.391156420316185 4.924962280601282 7.997735540829998 -0.8925083259287533 1.9665164804396322 -0.0020031464729578408
Ni 3.7587348435938295 2.794690256185778 11.238018604827467 -0.5857672341469137 -0.18753035104692217 0.07066831304983959
Ni 4.860256266582921 6.877152101218426 9.173805794114795 0.9167900812942534 -1.7916146167899984 -2.120372579162561
P 8.468038543850147 6.409712104876509 6.1477587159222065 2.0784062620331047 -0.9385678392909771 -0.5943732306483699
P 0.1581780712253196 1.8346874502330772 2.60615193562938 1.9326622508943492 -0.2818762102193597 -2.800114919406055
P 6.017434239310993 6.948028630776509 2.842912178690882 0.5244363964479162 -0.8178085231220174 -0.10169047246296681
P 3.0227555113925235 2.906172153961181 13.385886913982686 -0.1536313843066322 0.3977023507527602 0.8314055450801617
P 6.852976433951855 6.218285457897262 9.717418835481109 1.378588234085658 -0.8625212926483596 0.4934941983431049
P 7.132693968174997 0.16015207353703914 -0.2828084186029167 1.4099153263337139 -1.9753281651939916 2.2377280118562943
P 8.618259650887847 4.3345433468917145 12.837620666216965 -0.039234777130906624 0.30992026084076946 0.0776866533492017
P 6.706346979576335 3.733818339355165 4.460630986237203 1.8304092210596927 -1.3717637549646569 -0.8378014213041766
