# total energy = -340858.9706935458 ev
CRYSTAL
PRIMVEC
9.32843971242454 0.00000000000000 0.00000000000000

0.00000000000000 9.32843971242454 0.00000000000000

0.00000000000000 0.00000000000000 13.65311445227178

PRIMCOORD
 96 1
Ni 7.309084253403816 1.4522514687686654 5.399478983339909 0.9662869024728002 0.2685599527264278 1.6836185138239779
Ni 9.152141368579178 0.10664178806408342 10.573694808484637 -1.6498110783562296 1.176420335631219 -2.4660555994252364
Ni 8.769899229677169 7.74628955812022 8.424449389194805 0.7925978281843447 0.17306609599247613 -0.7885545113529066
Ni 9.119659742074473 2.2396557225411104 11.485887463773091 0.8125619300110973 0.36007065644291536 1.0814471272874278
Ni 3.2743382518410464 1.515274406352177 7.494399302080401 -0.6088405710266096 -0.788033862962746 1.1924632480266946
Ni 7.23768437710657 8.23102326233159 0.9379979176089493 0.02983199575976798 -1.0911386435435788 0.7639932770737745
Ni 7.158588538182562 2.5304698254371996 7.508475917357713 -0.49953706210307514 -0.48442566038293344 0.06541452085006798
Ni 3.9724786675826125 8.418739451347726 8.004370166643819 0.778316378564666 -0.7845322775673909 1.644489409033
Ni 2.6494354149876034 3.162919369884643 5.4265529134388775 -1.2973244049081594 -0.7024138136990806 0.6545637840953371
Ni 0.010088707370717572 8.668741631223112 1.1997156847121535 0.31560625548195326 -0.8127609333957809 0.2578137699535173
Ni 6.8491175561912945 7.852167346985356 6.1388501690378625 0.3534351534042688 0.3867515081682113 -2.14635126261451
Ni 6.102562539197742 0.3102293841264862 11.369822086078033 1.9785101624663992 -1.821851818407985 -0.726260024189059
Ni -0.15892489319645584 7.188532829130322 6.190049309494806 2.208414350493842 -3.721837405004919 -1.7124539499984315
Ni 1.1011849748346985 4.637792304556212 1.0931886364545051 0.6080715540710689 0.7134340760689842 -0.3937217688384574
Ni 3.025306229678609 3.195783462410799 1.2630623191479664 0.0875648316948621 -0.7727005750397854 0.24460524168304323
Ni 2.8878050307471463 1.395217389374706 3.4829501454437812 0.5063759394017795 -0.060734855986211526 1.2536483041764475
Ni 5.72903316283318 -0.017142873356604423 4.459052872916722 3.6563660627749868 -0.3450734117031347 -1.3693242922852287
Ni 2.128124899310136 9.042410934180888 6.777665440632581 -1.0457591869675151 -1.5192268056770482 -1.5118873345928414
Ni 1.963972348591211 5.74776466944474 4.968340895705256 -0.863087449564475 -0.7649132177848826 1.5031851788331532
Ni 6.309084862341816 4.332575090998645 9.426628836579075 -1.5418118900664157 -1.3824459172688512 0.09737590424801293
Ni 8.333486842322309 9.187244286596755 4.144730169516754 2.9883348403208343 -2.367605488276439 2.521497582443625
Ni 0.819531399574342 2.537969890833461 7.097912635989224 1.293978885474694 1.9868677904024752 -2.8679573329713253
Ni 4.784752541188929 3.0377876817932834 7.020349459682885 0.6788344837172438 0.9593428670547993 1.0742439246707693
Ni 5.400625448560307 1.6387456322040659 9.18865474665635 0.4288679777222872 0.06077573652647598 -1.5010763600202666
P 7.405400391732673 1.6838113236584686 9.95878646176248 0.8300292335579253 1.0992982965362357 0.3124908497814231
P 4.589097850117797 2.1677894242664846 13.77708468050254 0.2892390783423341 1.0180619781625628 -0.4779076567587576
P 8.708620710289056 -0.2884409478751824 6.415858181403521 -1.400302485834298 2.9275629604491002 -1.4485793185628149
P 5.601317496987138 6.321874152961561 3.7596988271900154 0.07973119458305625 0.2862892516853908 -0.02541149809456914
P 8.87381804623731 5.848838311942867 9.486948392381695 1.807899727103267 -1.4526072087752855 2.3600086497657875
P 1.9535244962979113 0.5174578701443129 9.160175020717562 0.930991569605616 -0.1796946570525873 -1.713641285438313
P 3.908354974132485 0.22068289437731448 5.026271438139739 -3.773231700316495 1.1187031834254089 1.8411482047437517
P 4.190428329172483 7.980862498983895 0.5765031611047327 -0.01587681913125653 -0.8253945629993914 -0.4191456082282008
Ni 1.1384520908273168 7.130519263583866 10.187612151020884 0.2141862630715537 0.24916097937452572 -0.12197133419918996
Ni 0.9772286701263352 0.7950554398893779 4.786727371841154 -0.4990382680897857 2.336533449461982 0.8189662908755444
Ni 5.485747459432058 0.4978457588394617 6.770715753169627 -0.4201496240126829 0.7657046033379263 0.40686576241958317
Ni 8.020163214797888 9.547471308166454 12.840399274337935 1.1850070488589657 -1.6056626659737896 -1.157967014022038
Ni 3.4082013593489497 5.743632170725157 3.2352688813278343 0.15202058817608657 0.4712680399550529 -1.1855966028138485
Ni 9.603535229847465 0.7337153528002512 7.867102178701047 -1.5753305906491515 -1.400478606400846 3.268696156557564
Ni 5.558779812650132 2.3766158719788133 11.52457996532858 -1.0118746184049283 2.7576138128190504 0.8702040060045981
Ni 1.8646804380466728 8.064837111791292 4.469101467997385 0.1855493160611514 -0.5654141244118586 -0.8098805265241923
Ni 7.517295024106004 5.605011559047984 8.052087933461602 -0.44444423489398943 -0.4579091021496436 -3.4047108562236974
Ni 8.073577859647383 2.634789764897888 3.490077073258139 -1.3857469566176261 -1.4676440485037499 -0.15500846715981692
Ni 8.45981257067576 6.103625981306166 1.4311468071361997 0.3179865827886717 1.1218440430472356 0.49808001794157447
Ni 5.988447738212084 0.6238748428152995 14.255899489820965 -0.23315329109235977 -0.4234424358313417 -2.6376278844810055
Ni 8.85397645531959 3.5570086270120904 8.622283203744255 -1.8243481024672774 1.5629921236884565 1.7995796372733457
Ni 3.749472991757948 0.5829052691662431 1.5441403296882366 -0.7926811319267703 0.6592046253014582 -1.6685222816124878
Ni 5.77136562150014 1.8954363032350743 2.3376994878741812 0.3054809941224933 0.5646546205380146 1.8712252266347902
Ni 2.998664206330695 7.615868644805377 12.359440789611476 0.05423407875321628 0.049857804062391556 0.06800696416759254
Ni 0.7082552427430163 4.883036980262328 7.0227935108443535 0.03789394683229603 1.1136319395500887 -1.5164664693230916
Ni 3.5133701868084692 5.581429263871678 0.752450590787629 -0.33545182945297064 0.6637613914342052 -0.3078677491871149
Ni 9.116544043265577 4.5903385325776265 3.2093554091085865 0.27648357844887866 0.019184029127618574 1.1361167509161658
Ni 7.397974953852792 3.6423358635538876 11.329681810704757 0.4536297580479993 1.238393434899906 0.3762624357114294
Ni 7.887932584210812 2.1831160504431733 0.10583301235530744 -0.42883403916055823 0.2678536706880225 0.9622150463962718
Ni 1.3424557352935422 2.788177296378895 9.570382888539289 0.8211977513092243 -2.6682522942350824 0.9811957012638327
Ni 8.37886970072133 4.323657102791151 13.633781192172478 -0.47034578525109966 0.5963393532358052 -1.3700534571417695
Ni 4.1944582150570415 7.455400827707751 5.183650608903159 0.044533306525684595 -1.038947306252004 0.7684955358195023
P 7.17600473481791 0.19848307394196202 2.7243968895041193 -3.318138984569724 1.2595145331492372 -4.404500261329318
P 1.4673448839566645 0.29829084719348165 2.3076497855595326 0.3955475091932865 -0.24486158066822347 1.1857858360065192
P 7.3450920300575095 4.266389812408501 1.9960584492590983 -1.110441714747565 -0.6134279332869758 -0.5414812677453448
P 6.1054636838970415 7.135183483357661 7.836901355665727 -2.5019093758990523 0.6041855887531014 2.463026582790926
P 2.1893940902587006 6.820451261461553 6.981642965468073 0.3687532718185778 -0.4288067854670486 -0.6275589733717193
P 0.8589319296914939 8.141050462895095 12.032667417947339 -1.044029091650286 0.38366772703656504 2.012692464775063
P 6.537501033104082 7.682557659131092 12.231770833119217 -0.15524346598875846 -0.9653553917974664 0.8735189293104441
P 2.4726241718026 5.293954742333627 12.439952685658808 -0.10972516984198522 -0.17930127826891054 0.8902275003143766
Ni 2.32207248594406 7.671065021608462 1.9722606671292437 -0.1882785420668564 -0.080144627971391 -0.6961169249467754
Ni 5.06314116260763 4.096770796114689 2.5667443954619547 1.0142130367301179 1.4563777315613111 -0.12200861519502859
Ni 6.995881895593513 -0.20936936289399846 8.84908835299665 -0.980432340735247 0.2549035382852578 -0.8267515912479181
Ni 3.9985329992390284 0.7524757775744075 12.173758200416716 -0.8523762337945578 -2.003511569606743 1.3186172528486644
Ni 8.382852944408151 6.6747130504095695 12.785595624839807 0.7997817475272936 0.5430352424960261 -0.016561246792790835
Ni 3.1239731347734585 2.9761266963837194 12.18061180495233 -0.525125966315773 1.4207648674537081 1.170613499141455
Ni 5.289290522559832 2.47970445741922 4.842691479219006 -0.5718056297604991 -0.22653398600362923 -1.261661404288911
Ni 1.6565349664213183 4.863904350750223 9.034935122727449 0.7307792522156511 1.7165985682944243 0.48680624479996804
Ni 3.431820968283445 1.8808839375408353 10.204378155419766 0.39398736379501825 1.0705600480612787 -1.5487235295845845
Ni 8.175397777309318 4.932095243843099 5.482107502320589 0.12431515184101818 -0.03127695573641066 -0.16907754365837332
Ni 5.777578362238834 6.578266313927046 10.242880356808486 -0.04302715429380332 -0.05199979010605884 -0.27819001961702416
Ni 4.662354085885014 5.635468914170862 12.248604935126798 0.9587967647433424 0.02132627228160198 -0.20856943110540854
Ni 5.622082603420072 4.273190244838693 0.18539154188087553 0.8016326846931032 -2.0916232749440105 0.28690965887820913
Ni 4.082199773541355 5.889780833117236 8.399764472463975 0.5250562894201022 -0.36168736611073193 -1.8931009436619592
Ni 1.6871322481374103 0.49612372889897677 0.04063654835720748 0.3944169951332691 0.43241095787853917 -1.0135584338652543
Ni 0.5985257411886808 4.797821684995101 11.45021177956729 -0.41966728505962564 0.07039474767347877 -0.46738181752676927
Ni 5.913241858579421 6.503704096623166 0.9454644006228395 -1.035933459126345 -0.8161923276748332 -0.03539149212541647
Ni 7.8548166238168715 6.746542034926005 3.677644007241512 -0.47123127317984653 0.24505467051563604 0.6908129962353586
Ni 1.715677273153033 0.7301267021062937 11.16942201780904 2.4752370088141884 0.6184518688641285 2.980440782284738
Ni 0.754160493756702 2.3299363604826775 2.272725040737314 0.48289739666386505 -0.020088286109442823 1.3697348974600863
Ni 4.5484351821298565 4.83636679720574 5.168727904158882 -0.14156056918502716 0.23683639637090176 -0.08586481828461986
Ni 7.932252000501409 7.749200031259067 10.57252129078955 -1.3063919144270661 -3.1528512469710863 1.077176782046848
Ni 3.2278266522567676 5.914771722665226 10.451581803430877 -0.9272007351046162 1.3447825983901227 0.8730270772756901
Ni 4.633249354496536 8.177235479900192 2.693432067269852 0.9144205526208122 -1.7479624273176864 0.7030910422717633
P 4.671010877785176 8.406006131365267 10.39111205975154 -1.9056952353872019 0.2753821178545838 -0.3751193232459217
P 4.2268372287267235 4.102573085513289 10.21252934589645 1.319345903484573 -1.1338644645468794 0.18754706321747056
P 2.7764141341093853 3.6399664399088003 7.5017995531735036 -0.7367066734436797 1.0482778396243109 1.381791571514304
P 1.0327515423135851 6.21261014054065 2.9919300058212905 0.855044010434708 1.3927213310529305 -0.44946097138229046
P 0.2883504620115708 3.2285635989810273 5.02377234918494 0.06890505050182971 -0.048229781540665324 0.0032424181966976416
P 3.243377160982599 3.4607111455623287 3.503908350575349 1.004777859459147 1.931816357954286 -1.2973501159397722
P 6.315540142508747 4.261427082569183 6.276063119187305 0.8464809513560454 -0.15805008219961814 0.08874162561178264
P 0.7785329077626881 2.5605167292199837 13.894637944305439 -0.4825366708903367 0.5606454993786215 -2.1992918193672835
