# total energy = -340853.26973365684 ev
CRYSTAL
PRIMVEC
9.43776803051324 0.00000000000000 0.00000000000000

0.00000000000000 9.43776803051324 0.00000000000000

0.00000000000000 0.00000000000000 13.81312749686822

PRIMCOORD
 96 1
Ni 3.48115851033562 8.884195800809763 0.36622220911041325 0.03461913273576618 -0.5770771625720835 -0.16723406269173133
Ni 7.4750332098205865 6.532681504000665 1.8614987712418476 -0.6274988095577452 0.07927919464730218 -0.3406454578387682
Ni 1.6932110971340772 3.3763615334863335 12.220211819496653 -0.9157698675598551 1.5137796665195478 -0.010868567283387734
Ni 1.0045182842156573 4.379341461503645 1.5850014233441654 -2.345443864577735 0.08572289339011689 -0.9241051268984277
Ni 3.002842985867078 4.1177170923358615 0.03331154624344755 0.530200552625203 -0.9752070877805656 1.4983350498297034
Ni 1.9449541231137122 2.5683942074716164 10.170163429838883 0.01686412274519031 -0.5863261919741772 -2.043898200953906
Ni 3.792878552514572 1.5757486355106785 1.4444522934238715 -1.4760214739341675 -0.20526016422651747 -0.726040194868769
Ni 8.478777597053027 4.084722655100171 12.600197125809816 0.3956652657180734 0.3548700860785824 0.7792010951624644
Ni 5.40129130337786 8.848662603958397 4.93667375551226 0.7679784869737678 0.8767243236216191 0.5219498825806365
Ni 5.119630552559227 8.766884343475773 11.06061307383559 0.6406582297578387 1.2719193345714934 -2.916299471720139
Ni 1.830256927540101 7.766443175074135 2.8871236800095352 -3.465083443774484 -2.2118388027943583 -0.7313706059427468
Ni 3.4612636952060907 4.562047213919471 10.221714406689223 -0.8919611951760315 0.6242188532548927 0.45835801676160415
Ni 4.151475988786681 6.918931600770648 7.893263183756799 -0.07986926282281728 -0.8219690822576102 -1.797058413513389
Ni 1.206835718718373 1.527927464608721 5.322805880181144 2.3270543063269535 1.5444706678455014 -1.3605920546185535
Ni 5.174199727644113 1.5362798893666119 10.639631046724913 1.0604083043392576 1.1082771029960783 0.26036276162761607
Ni 5.464977362435766 6.859473661816172 3.6406294214955697 0.8046156785808273 -0.531352406841459 0.2506383352510006
Ni 5.640123462613095 6.246452873427433 10.938532712286726 -1.1952801486501996 0.9292632740605997 0.18862075589762353
Ni 0.5718834448467116 5.2026451606613815 7.294974751353447 -0.2599282451933588 0.8640019909589443 -0.9538401920690154
Ni 2.7197948831395067 7.200328094082818 5.623462026830518 -0.6131847069279182 0.9806465136285821 -0.19533750579616682
Ni 8.632415023757776 6.231758268514398 8.511110446745747 -0.431170914823851 2.802549754099793 2.2432445707991495
Ni 8.788610085614376 8.786949038430887 8.0964262422802 0.048371706435168305 0.15117572367728804 0.268828375896466
Ni 0.3727522008505088 0.5515450546170455 10.69133302786466 -1.030259034449387 0.02355953248749491 -1.0836850154790112
Ni 3.759129093831841 8.370233826272798 3.3824894763058797 2.9223600760919215 1.270680834178702 -0.6531224236631202
Ni 2.1863911063412385 3.850260182489686 4.420352338953293 -0.33742052314356724 -0.17357645996999135 1.0428751805515009
P 8.29431641977283 5.724402731639043 6.060758179858133 -1.0369737274654012 -0.06275471462971773 0.03146490337750065
P 7.652095176919782 1.5164794519179623 10.796989785386764 -0.08252289839558047 -0.7784657596583368 -0.4350185707047153
P 1.7814164776846384 7.5491574403838335 0.15821002534339107 0.25589855520867544 -0.4822003705968405 0.4246760511281267
P 5.372024784536935 8.567653059137836 7.353266182172245 -0.13930211216815364 1.5921414915589032 -2.3261145681215036
P 1.5407062025998894 1.3319333347249735 12.243900617397562 0.7312394796815214 -1.74978122569398 0.19368120113966644
P -0.1615085252901513 5.731141298053884 2.919100725845338 0.310709075290652 -0.9456746255390873 -0.45366266816846385
P 4.444471499079016 3.7786841493102017 12.104927594747966 -0.1559885716848991 0.4869304290826582 -1.2668393489454246
P 2.09902568715051 9.289047738481218 4.27216522331937 -0.6791167908443531 0.6479398510209163 1.178951072472873
Ni 8.995769095146242 1.7059803973571577 12.813443495758449 -0.3379342295551922 -0.2872557293637182 0.4724564038361993
Ni 6.542392967363229 2.1812852738056234 12.609893488743438 3.841956259376403 3.6644773790282117 -2.5556395184326566
Ni 9.267652318225695 3.7837616685415525 5.522474133181553 -1.0458041812728376 -1.6307298933550627 0.5459830122704404
Ni 5.896132359768512 8.738467223762767 1.6989870112039407 -0.4980555924615423 -0.6651541580166738 -1.0835554318796823
Ni 1.8216874341161862 6.284392701141242 9.008203354602198 0.7996444506184809 -0.494526239152045 1.0939455168647547
Ni 6.261289044861789 7.496305939090965 8.872669454643873 1.8825550498253127 -0.7772336870234484 1.2061294326598777
Ni 7.0897552031636675 4.5633779392198806 3.560568834804963 1.5196577225668797 0.682382091859186 -4.335083818408708
Ni 3.4851789995411133 0.44720486574321877 5.907653987050357 0.08903447426185311 -0.3679094357610438 -0.5218514093295592
Ni 5.673835170223475 3.8286005047276976 10.099730310374856 0.5690707473278392 -0.4533029708361999 0.4467271173908951
Ni 8.934697297848716 3.255322157757578 7.955201368164805 -0.9062724695923811 -1.5223782068218363 0.07079943931106515
Ni 7.6257071773457 8.78617514144767 3.334322883091901 -1.349647639791908 1.9786986243281213 -0.37715126607428595
Ni 2.8018279633605085 5.217641774153233 7.084601238010804 0.7587911640475448 0.16714870206677668 -0.9612377700846672
Ni 4.645967847758075 5.751885512311335 5.777603430351168 0.6660864400229561 -0.5867568517536927 -1.0182216436688787
Ni 4.610085453487454 4.135025959009275 8.090003841096308 0.5728297001496392 -0.22447658925396827 -0.7939188609886133
Ni 0.3312486719066668 8.506458570855166 12.979574639858107 -0.7032887601048662 1.396467171248608 -0.01920254107037983
Ni 5.763116456336069 7.956680266424197 12.793926191352439 -0.3459447585644945 -4.8113462262545585 4.01030900905361
Ni 6.921460922618236 5.007840189556724 8.027844812915044 -1.1754805974257692 -1.5414457649762485 -0.43230117177355226
Ni 2.0681075588941824 1.2687946662161724 7.641671162066572 -0.2788842174705713 0.658404497997666 1.4191900667674202
Ni 1.0848997550212565 5.568207669782442 12.828292880068126 0.1337511004429374 1.7175614464283258 1.6879904176394283
Ni 0.7229745617213151 9.408501569171188 1.623042235176516 -0.6948223745050679 0.5028486429748114 -0.6482848930651609
Ni 8.182865816421494 6.74297385253775 12.27927620352186 -0.6513966992212652 -0.43057956109675516 -0.6909538926885971
Ni 3.549355822539596 1.9671045648162768 3.727334196920137 -2.4646291513913554 -5.111924640869113 0.7066378790827572
Ni 5.826311751453398 1.6513262823594794 2.549903732233583 -0.34467411938218706 -0.20869335827778254 0.20677274421630196
Ni 5.927890449384672 2.1573794072386887 5.567988713562801 -2.2417088508809138 -0.8008107030124402 0.15523446712769395
P 7.979623480646154 8.843877655537776 0.7779184161992952 0.17983143974076773 -0.5499875054441431 0.5501430571854009
P 5.192074860402808 6.5355128344270685 0.5397204749795752 0.5926405642279794 0.9642079084565846 0.5143671851373722
P 0.997270078324064 7.514077256400692 7.439183847738272 0.9368410864078576 -0.11585210867532951 -0.824945905497747
P 1.6886337796113913 3.555037358928579 7.659766194821717 0.8256750703542877 -3.114524840587062 1.2193258767454935
P 6.361150069001044 2.5755857867546816 7.692889929480215 -0.06126733145091384 0.6032916161839222 0.44570407544301954
P 8.033173376777533 4.575637599966209 0.8081523062692421 0.35939574186307777 1.5879809324233103 -0.06375050288408377
P 4.078757985668547 7.395463387070556 9.833648483339106 -0.49545646427579837 -1.488704725828791 1.8928402338014045
P 1.3459484203356715 2.1211195022445466 1.7081727908840028 0.3884862314711309 0.43220526962563627 0.6507500667762018
Ni 8.345384182897064 3.5049039348450584 10.36729103567 2.217556679114742 -1.7159316241343867 -1.8391057203924264
Ni 6.5755384088883275 4.270769377419153 5.458561567689535 -0.12346231692241963 1.1240107116812514 4.675110668826871
Ni 4.699763125859745 3.566013483214937 4.029717455129619 2.2863030925515204 3.59401578267254 1.0361021234937253
Ni 3.7902171019137527 5.837901330665477 12.717829467258799 0.46003231914023357 1.7036952299691948 -1.0480713800404595
Ni 3.190399751080143 6.537994967434216 1.2703943679070904 0.05403558958916501 -1.2853083542838897 1.098729054296327
Ni 5.000761863490714 5.042523987280168 2.1633016067139166 0.8700610526688306 -0.2039342463262423 -1.0979937187921993
Ni -0.02949019394461145 2.5679695079076557 3.635587765782953 0.402694661761029 -0.5850578667847149 -1.4163515688773607
Ni 4.554581939361854 1.0687800471269318 7.978421108991741 -0.33066186426349503 0.8528516307690797 0.2018850771066975
Ni 6.190543535274049 4.931299890362946 13.18487912796068 0.020294231472661822 -0.1465647072678379 -0.01678570409877109
Ni 7.5094905011099184 -0.31954583947753173 12.347430101992629 1.385816376402981 1.6221601494081805 -0.9044439010240745
Ni 2.456707659918081 8.585877389315788 8.955658580772191 -0.7077758493419424 0.7783338620661628 -0.5265529285702866
Ni 6.881076712969632 7.401692314008645 6.05928022537555 0.5596414835941393 -0.6099818837199042 -0.05188486179474935
Ni 9.047695695166485 7.397756764715943 4.09287122406736 0.2609685135324151 -0.5736344554391217 1.018636362608794
Ni 2.8918359576158794 8.41870620317283 11.383481007680102 -0.19010813907642743 1.044999425983355 1.2135866602688712
Ni 2.989573483935333 3.7500688364673493 2.2992781379955685 0.637475975375115 -0.16816197382263942 -0.06694921232703954
Ni 3.3807217823429947 2.949094896605849 6.368736146990189 0.1351142993390512 -0.483520889180477 -0.7490309993369875
Ni 7.835810770521025 2.8527635977315096 1.9155082866791147 -0.03985415588246039 -0.8584592067638441 -0.5736881914951926
Ni 6.711772591238783 0.5839213180429711 8.827058609028128 0.5461915287368206 0.3429494233815965 1.3440853152127819
Ni 3.62895395859389 1.8418936955926202 12.722898492498869 -1.3811804202928666 0.11424336942731295 -0.5504027386046909
Ni 7.018235796592712 0.4073793719654253 6.495416476705149 0.5366936165487144 -0.3379931078175857 0.37157839997219877
Ni 0.8514537300338504 7.7019643434968375 10.810623585166708 -1.0572602456285791 -2.366051256415441 -0.3717434647951533
Ni 5.400611784075524 0.6289932671008904 13.2079469207214 -1.4201557731147996 -3.009366464180153 1.8000740604112613
Ni 9.034907519407229 9.272748712993222 5.53641182909393 -0.7888566159743575 -2.7943332797272715 -2.5101039958947027
Ni 0.8981923889361129 5.650599385190788 5.055397102952217 0.9437144164889231 1.7080190541555296 -1.2315522436083564
P 1.1994742596097236 5.200238529798939 10.810084688608882 0.169340824622089 -0.5661576874461023 -0.9526906518456045
P 3.4775721584621757 5.567311081814082 3.730083418764175 0.32567906633692295 0.773403771754397 0.5729947649725938
P 7.290713599061709 1.9962861437444102 4.006083396283619 1.662212794454692 -0.00787271787985741 -0.22796943289857516
P 8.21280241679667 7.960181678384849 10.199571515201127 -0.7242481359653526 0.18895757041175198 -0.040945332064110135
P 7.2545952605888875 5.004584159566359 10.978107161433378 0.5720897366598212 2.0026638768944673 1.0968855733296852
P 5.359340424226646 2.5834946364124356 0.39537547473428264 -0.6358214704908276 0.9226473114059787 2.9910748649598164
P 3.353361692655848 0.8408777671144241 9.996533035216489 -1.2333561295863145 0.23247811940220606 -0.8743977323709716
P 9.441354439885558 1.143791427890452 6.920667206322033 -1.018002328569221 2.4281511110699796 3.7052581604899992
