# total energy = -340857.8945950167 ev
CRYSTAL
PRIMVEC
9.37170137021652 0.00000000000000 0.00000000000000

0.00000000000000 9.37170137021652 0.00000000000000

0.00000000000000 0.00000000000000 13.71643226140409

PRIMCOORD
 96 1
Ni 6.496566479718661 3.3640659244585134 5.159449614780944 -0.0016437062510100725 -0.11817458616091904 -1.4316228932141344
Ni 6.9828828073094815 8.28598976796856 12.757187257017728 -1.1921788840170564 -1.398930802297752 -2.4909523626669166
Ni 1.7955804960512405 8.417409136306764 6.5385545133752005 1.5746255941623268 -0.3703481271095235 3.2527704864662432
Ni 0.8335884706072575 5.685408239174918 7.643481853803183 0.3962717889538208 0.25861081193351587 -1.8380975908428863
Ni 5.590182381535006 1.0367725793709506 12.432697720036389 0.029739950266593946 0.21522601718997772 0.19832204234578746
Ni 3.7727845646899727 1.7080862920431488 11.150403433784033 -1.979529861980165 0.1920665483543789 -0.42055611542248217
Ni 5.703654941746014 1.7586747360486843 9.810911779718678 0.12919510564113876 -1.4145011459321835 0.14300655760293435
Ni 3.691888038447701 2.816458669895443 8.966418397395072 -0.650738496811976 -1.4499666858286446 -0.453888925246657
Ni 2.745571120718364 6.483296150576046 6.04990650648305 -0.4557892275931634 -0.1604466074562527 -1.520206138871182
Ni 2.957390315126129 1.362673494578898 13.45988023739347 -0.8030349643572687 -0.5791420155209123 -0.5977909980806673
Ni 8.560421299242014 2.6268410360377175 1.1478141202460876 -0.17553024126225253 1.1961039301030756 -0.3596813914242966
Ni 2.7547179012573415 4.7919664605858605 9.454242631736633 -0.2836798390870018 1.2119175000965643 0.2778071823563087
Ni 2.067734703891321 0.588869918533425 1.7398741659265087 1.2208389709559102 -0.9158989369385517 1.4629111618044548
Ni 2.9264730723002192 6.0083570684507155 0.395074380204105 1.6801408396880226 -0.8810612604340762 -0.3966068036957363
Ni 4.753345679232246 6.416944504862967 4.6750123133151895 -0.8241123538528581 -0.7321601917235777 0.8332168872572877
Ni 9.395505493388228 3.580608456357718 10.775176442745346 -1.7339961949455813 1.7181872529377826 1.307213381887097
Ni 7.64937009377515 0.054066282384649014 9.877216566924895 -0.1707770428479833 0.5449645983082549 0.652855800265295
Ni 0.10836123428277247 1.3637324968339233 2.9821166120257594 1.0809853571596608 0.28492862389243834 0.47627577758228945
Ni 5.225482622647377 6.552309359478744 9.930176051377524 -1.219496597995403 0.47202163029162575 0.013241695501254615
Ni 1.4775518099956921 8.160371482779565 12.823094684085778 -0.9089965533917634 0.11986457226883228 0.137349359317157
Ni 0.29254703002534255 5.8805551768420665 9.896186764841902 0.5097245441590382 0.8624418455606759 1.9983585646508941
Ni 8.538060419768652 7.344799170889655 0.38560896181848237 1.13624067808854 -0.7900874030576652 1.4340307313246785
Ni 5.091945249799123 6.650365470932971 12.45349165104037 -0.15670693790816237 -0.6546365463148017 -0.5951666730839427
Ni 6.795177000531625 5.509632608243494 1.0039397607846237 -0.35585841813378066 0.059902332782587164 -0.45601805577451787
P 9.2565887639525 5.142439976790939 1.0381052353060354 -0.6823507244006184 -0.6499157438003645 0.9914477180091441
P 4.5755176457003754 -0.09099359730036073 8.041505508429026 1.567056009345185 1.2974691580161397 -2.468027121329311
P 8.4691315561783 6.615596458843209 12.056469831291183 0.5156571075933893 0.4484338156693567 -0.9021831300143559
P 6.993116705207601 6.496041664441834 7.246871451744223 -0.42035196983147605 -1.666037567517421 2.1052989726588907
P 0.9072134937550694 0.26623410408344883 5.2985340976712285 -2.0478049922074795 2.2363591565332257 -1.843986188413179
P 8.628366134188315 8.586081017598286 7.953006658033866 -0.29937359567317473 1.603323990538284 1.4873147874597998
P 0.6493567535279653 1.1460653607700904 0.361788908441515 -0.6114492122940501 0.7683119590537865 0.41510280561739477
P 4.615975280522883 6.273782394705769 1.843269335652309 0.10673883352015165 -0.9037828704013079 1.729196716674409
Ni 4.689393189070375 1.9597727040869914 3.2660744777437523 -0.7332076591514857 -1.1589162653091847 -1.2323297452043294
Ni 7.651197575542671 0.4374916377834779 5.376539454040268 1.0306387863863087 1.2810596063098647 -1.2936050470750433
Ni 9.086389295337359 7.53362958183214 6.227534922775699 -0.7393322839919848 -0.26680260371568887 -1.2075311981034107
Ni 2.842793150750492 0.8806812700010731 4.603632749816086 -0.5314285114950332 -1.3815228912339497 -2.5451118794284553
Ni 1.2377112284859355 3.453968655719185 8.077771181227881 -0.2673757026103395 -1.325386453251698 0.07508932493567068
Ni 5.584737423037929 2.496405696343563 7.46404376197562 -0.7087886068771728 0.06840085717190154 0.1675063425165115
Ni 7.545606616185434 7.068446440834962 9.314280957597939 0.11794961463430656 1.1577253303248771 0.022784859104999472
Ni 8.404541790323142 2.6417326695176726 8.982438383720204 1.6708612141583095 -3.017921809949331 0.9359645973401752
Ni 7.827704199181103 5.583172348908822 5.603135010001113 -0.6105228438250389 -0.04267851270513295 -0.9185363745613988
Ni 4.15259150618911 2.3470957500863947 5.681607077098473 1.9507684735767563 1.2590843875903541 -1.209111655216653
Ni 6.847171199742946 0.7185086636109674 7.621206256812306 0.921266371898052 -0.4948548261360574 1.102689838716288
Ni 5.90017014781346 8.314423509930917 3.90818222026055 -1.201289588069073 -1.6355897925505252 -1.5219349486368303
Ni 8.003236165876858 7.704044599578835 3.931705190704028 2.178178691537752 -0.7627033546177575 0.6523621484583281
Ni 7.790873412789523 3.183913708986411 6.999302965283195 -0.5745425690756879 0.4180554604878155 -0.8984879405509557
Ni 1.3452140149230416 7.823927403528226 4.045551681799775 -0.5158149733274924 -0.33568374295811865 0.8056258650128963
Ni 0.8316653974857429 5.5362107533342115 12.879867513826634 2.360796692884721 1.1810758321253594 -1.0734239998726354
Ni 6.824763461762725 3.210679288104567 11.607023651237704 2.44867854159937 -1.7335012575870339 -2.2399399319059485
Ni 5.339020784767989 7.870645334867166 0.713682237404437 0.1424177749789999 1.2706741493104825 0.6918270393221698
Ni -0.03060610234036275 1.496923116731417 6.970059508322306 0.1626703545804489 -0.7212242615373643 -0.7500303871357793
Ni 4.347119911565713 6.97120566740009 7.590838195686789 0.666550009922936 -0.46334672822544715 1.4097255789204108
Ni 0.2586252197396003 4.123520488533465 2.9327924105352934 -1.4164215028833476 0.7520677292807821 -1.2180755492781603
Ni 2.4541393231562783 1.5612129881426757 6.690834351797125 -1.9700216653794136 -0.08729100920818514 2.475376876826163
Ni 4.179225881488059 8.596661668447165 5.973382816100909 -0.8175408712829274 1.1519953698196355 -1.215427827242668
Ni 2.391939341150954 4.306849710770643 5.999608585220043 0.8882878600895024 -1.0713128670669032 0.7438237441044351
P 1.7861900512765934 9.133350890911968 10.956617267156087 1.397687159698638 -0.3843616677797961 -1.2555403789928379
P 3.451147773606242 5.219615937588565 12.115039216185032 0.207384666768688 -0.7610449930787281 1.1138054890134754
P 4.965530369993514 4.321966265083524 6.325648201608295 -1.5884478447574 0.9287559954068778 -1.6093874231235443
P 5.473917054315169 0.641892193385244 4.776034568253625 -0.7043575676890128 2.7965503419832483 1.767170367704705
P 0.6947663953553869 5.708828120903305 4.355077423200596 0.14692954680642437 0.515912418137305 0.859968701429835
P 7.75330226198956 1.1964663707481877 11.855071031638836 -0.35176702167322643 0.2098004752990322 -2.4658206005962953
P 5.760138185914477 8.527648459544467 10.920885781335429 -0.5449368303941131 -0.4925079231704356 -0.38293367708401793
P 8.120879133198363 2.361996755267722 4.093860928031664 -0.8742876891556686 1.2708117033296114 0.307791901643857
Ni 8.270020388830837 4.512849078626456 12.923224753053608 -1.4412318770588082 -1.0826228927630839 0.35684649307866284
Ni 7.680418540420266 0.6739687156708584 0.08453555788498197 1.517283308797432 0.5135297768377414 2.8372056536107655
Ni 4.3718799465902825 3.151609454357459 -0.07332794021432247 -1.0964497713438472 0.13884059915070282 -0.19031614132217545
Ni 6.645023601150986 5.83479315904306 3.444484493930818 -0.3726441222325518 -0.4048171074206705 -0.35327240257415937
Ni 0.5386488452216681 1.239304417719159 11.943226877763786 0.34995413683420373 0.4240975529168373 -0.19570131689348877
Ni 6.912435728096883 5.578608330340704 11.121159976823145 0.2642980921262803 -0.8961346098274308 -0.29980348412174174
Ni 6.7786921778184475 1.278984201327799 2.3372798300694635 0.4965139590060352 -1.334278099314373 0.2937158831667651
Ni 3.3890415086146364 8.239543615969406 3.133875383851406 1.2987819632902924 -0.5930079748697271 -0.7787660645075749
Ni 6.422239516138093 8.216348655073945 6.395341796030594 -0.4208715897803719 -0.592116059183077 -0.7550898039365577
Ni 0.7527463002329428 0.8447342350488625 9.103431734282166 0.13512741196517372 -1.1666540002730745 0.5346719581329953
Ni 2.049553603229828 3.5542177452944372 11.971962388510317 1.2682339153001063 -0.09615900112177632 -0.660757828721191
Ni 5.283231046501046 4.632506961742921 8.371028586217214 -1.1250728343971783 2.478432890043667 0.7471342965349068
Ni 6.514072817881377 3.60410331169708 2.47887499175728 0.833863776812667 -0.034682896094166075 -0.19812483873331688
Ni 1.641640929316352 3.066336343574508 4.213756852362976 2.136816326540881 -1.8464521334551685 0.015155881804831964
Ni 4.617812133991776 4.117325793926637 3.7404297028736133 -0.7565352781338325 1.892539414731534 0.4759196797944513
Ni 0.04247911080842741 4.001988265142619 5.642734196977955 0.8108948267213195 -0.536116918109638 -0.21822726591014677
Ni 2.7501913694947127 5.6483993904572705 3.060890447907295 -0.29410951906075794 -0.10893378428894143 -0.22143137466974122
Ni 4.814599119399008 3.937164206753162 11.200618884074968 -1.3945182750523533 0.4269789882296905 -1.4283334238295853
Ni 8.125480638571968 5.008012292312354 8.545213839425825 -1.1612503127590001 -0.6262693080260182 -1.0142004383246277
Ni 3.7236206192929666 8.57806821292531 9.708764920615614 -1.1804199437089156 -0.4872109364375544 1.2882011024506526
Ni 3.7222336074899247 8.811948392362535 12.111253048830783 0.5427693904291491 -0.36774539937935374 0.1703219575884357
Ni 2.3980028319385758 6.5273525187253645 11.003609789345223 -0.4386955053356703 2.4953661754638956 -0.303701019403935
Ni 0.06746031798537364 8.625779544609669 2.26004295321292 -0.21600377589626668 -0.7551021452317318 -1.3970793509113102
Ni 2.0872934446544837 3.585828494021868 0.4667032309597014 -1.3191152755310054 0.17453779544199619 2.0923781508321646
P 2.9698265628466447 3.235083198477004 2.4047785720304615 0.2148660627473977 0.15770452593474132 0.6758687162207004
P 1.672783092975188 7.443061459774064 1.0670244313994555 -1.68409519635008 1.8086294061804398 2.711561241435362
P 7.085137440978322 8.36691440931495 2.0522526532249366 1.3404184078841561 -0.06725594493418094 -1.105978793880205
P 6.348849722694716 3.371994383819144 -0.187400289313133 2.182501487282822 1.2368224908683603 3.4803905064451994
P 6.677815184251277 3.5406194066038053 9.362932270929901 -0.6696181073252984 0.9391144558230665 1.1120818214541495
P 1.61076117329593 2.496218262316125 10.154343399512907 2.1967024613735524 -0.19387814764182096 -1.6139045942676078
P 2.077172007172828 6.965235893626188 8.754252450036548 1.327523811309675 -0.5427768466283168 0.1266877658382528
P 4.89175633679389 0.7466209562162667 0.8137260867196451 -0.460714947029555 0.11525869806570473 0.581326938987373
