# total energy = -340870.5641135739 ev
CRYSTAL
PRIMVEC
9.21049202119466 0.00000000000000 0.00000000000000

0.00000000000000 9.21049202119466 0.00000000000000

0.00000000000000 0.00000000000000 13.48048608381967

PRIMCOORD
 96 1
Ni 8.973045290996781 4.528292225669882 5.42898253154377 -0.061691563472526016 0.19868071123678685 0.9138006596486262
Ni 8.713152844756657 8.84342604033451 9.350334665321986 0.08353668437207548 -0.6276201656269579 -0.4092486608294629
Ni 0.9828699976317964 8.874511450054198 1.5186037776588976 0.6106087186706258 0.8876677100070002 0.8382361948487498
Ni 2.499635361133642 6.511725575621333 8.194571763550584 0.15257029003196948 0.44623449402519283 -0.9383199849462291
Ni 7.901920361236379 8.465077459455895 1.0949137879008501 1.3435019319054864 -0.00799484528001849 1.2293500937507151
Ni 3.237966802303895 8.808831433250912 7.727903777100979 -0.9901567671118625 0.9455712671920038 -1.4568821820015554
Ni 1.3079266731361572 4.25865507913837 7.673012009306483 -2.02391970094945 -0.11146297846869835 1.2173001045647165
Ni 5.205033108382194 5.5197556121219655 2.48537015148213 0.8503944274778387 0.47315214435164316 -1.085744469111201
Ni 0.298755195209386 7.683769863692437 3.560573486997756 0.2973308542115331 -1.0036018368731747 0.1396031883483402
Ni 6.74414312491514 3.6178995877667446 5.848347274367191 0.01025690184131782 -0.2297596920297785 -0.8332145732644425
Ni 3.0245136555620395 4.804201717095946 2.527658282340205 -1.546717554898149 -0.39179909789444783 0.25585793177872707
Ni 4.519210680785849 4.420529471974965 4.4929515687530115 -0.64825506826849 0.1560155682680926 1.1365810921470942
Ni 5.272085488459032 7.532902008519553 11.825796169759247 -0.80096214098864 -0.8383698922131368 0.04371466727913116
Ni 6.237354236320659 1.0782630608812203 1.4228109790667078 1.0258156539660526 0.4806474242874238 -0.21183318945834484
Ni 4.5598381599780105 2.886365489521863 2.154410471803148 0.39716010509604505 0.9594549671526316 -0.4327081774039838
Ni 4.920649964528839 3.0216768240972502 10.922738767500777 0.9737117341819618 0.26024603354409376 -1.402329800676972
Ni 8.453573555236668 1.3316160579655014 -0.06197279386634626 0.6533779913173522 0.6038415751501214 0.40259773117184855
Ni 4.629985265289163 8.979151847039494 5.475463278255001 -0.47973596821674797 -0.495242034272147 -0.10792565473940122
Ni 6.471973093147208 2.4780367579358145 12.726831869074465 -0.0673796149962388 -0.42479483609417806 0.5375950453170613
Ni 5.467587386743503 0.7040592012985619 11.257068566117963 0.15206018316477038 -1.3662695646193053 0.5348403653900596
Ni 2.00287669807538 4.573819686483042 11.514613258006223 -0.8894520556009328 0.23628052386743176 0.9081645444087715
Ni 1.9207099010059472 2.0293200199435937 1.955384639367935 0.6288260130096008 -0.19138083514126394 -1.5947958984626147
Ni 6.121099409214911 5.664912962398196 6.529704455554023 -0.48566570343762167 0.7822167420603368 -0.5074917981737775
Ni 7.834011405425044 5.013979877622051 7.869597061422965 1.2300751448421976 -1.3226713683133802 0.7649001051587601
P 4.610468233231083 3.125911959444719 6.313665923772667 -0.023178494998992338 -0.4758556593257353 0.8768904168858382
P 8.875008816609714 5.775337548214296 12.121234666882689 0.33880994729192615 0.22368366103902768 -0.7744733506694921
P 7.894275653068278 6.521461065420951 5.140958480294209 0.9887377752771488 -0.01622108984455271 -0.36937033657728646
P 6.691274902162249 8.42172367470017 9.82529209436351 -1.9835598090751645 -0.4157414676426582 -0.25976935101799137
P -0.04072326830655619 6.562116176088418 1.3339785491041978 -1.0238040228526626 1.3694024538213319 1.3016880811934939
P 0.31541052747490045 0.5601646094438334 3.277308496845132 -1.3297503866473486 2.032534182091338 1.1311308676658003
P 3.109876493275244 6.395682589826268 12.187801654043312 -0.8146959456349647 1.233356643806947 0.4275369176156895
P 5.66733532173339 4.150689694624538 0.43749835901782674 -0.7760676917398054 0.5459177062501436 0.3477995523850462
Ni 2.1456116890164165 6.579367427171373 1.211297561891361 0.60911747883708 0.8068461105732426 0.9057495072093755
Ni 1.0136054086642696 6.8191349488966795 6.080305220121734 -1.943191432560447 -1.1413705431159376 2.078033194964402
Ni 8.055367154104527 1.6691713708001188 5.227058157348917 0.6637863311348696 0.7748764996451816 0.025640326275923588
Ni 2.506368230616632 6.880439982109788 4.618697807626503 2.250333359325131 -0.6150484996095343 -0.4392256668075274
Ni 3.355290046454823 1.4576984797885546 11.093064707584421 -2.158199420202348 1.746378370660018 -0.5408307786455395
Ni 0.5531241095357655 1.8004024575219295 9.860652093313096 0.8045822542397304 0.451867523941254 -1.5210252923383674
Ni 0.7822387764812823 7.1623547141691075 10.530523791264239 0.9126158953119058 -0.7479992156383635 -0.00995068345480867
Ni 7.076273458097936 2.625330942302406 3.1178877790157435 1.5158494045643829 -0.6135030094992853 -0.5207964857024837
Ni 7.657013385104084 1.014544878824687 10.95207234168604 0.5397262327274511 -0.6069179000825999 0.4622992607975393
Ni 4.61623400107835 4.891360600704066 12.06890341579992 0.2831327083342801 0.7554692987631634 0.4940734678853427
Ni 4.731926988186202 1.3875145325103264 9.016705785128407 -0.05965344999657468 -0.23825281710245422 0.923425841443216
Ni 7.700146118057357 6.375843190556281 9.897615638879628 -0.08374571505908804 -0.7421872369422766 -0.34964303335168817
Ni 4.464988515742945 4.56879075797728 8.198683327076175 0.4080600398380005 -1.7758874358627288 0.45818318174663675
Ni 3.1717433664862495 8.66063462069098 11.624748634380783 -1.757173404392993 -3.1267650914069955 2.688334666807254
Ni 3.291756074233666 2.335504397813691 4.367394144960779 -1.7615129123086115 0.09493644156858488 -0.0464894018107909
Ni 6.6683868301167895 6.566528001645671 0.531686689943892 0.4050065977236573 -1.1363802889901977 -1.4033574706105378
Ni 1.3315147425560447 2.4764341323680443 5.8995456349624 -0.6656768632893633 0.2226948147631971 1.3844711752289962
Ni 2.9917243048651248 4.912259206527464 6.456303283500954 0.8453581506055118 0.9151119222608821 -2.0907352159121024
Ni 2.5308681387216305 0.11644087903947724 3.62991743742667 0.15724301291729048 -1.0588227050196928 -0.1089093588089092
Ni 6.895941239756672 4.587138057580722 11.835866000410071 2.0689913964771076 0.9313021588674993 -0.21780920453612165
Ni 3.380425478491868 5.737067954914947 10.07565168162293 1.3918911218421512 -0.14127157718969863 0.2880106052518717
Ni 0.9332899204403656 4.902975030824519 0.5244002699055972 -0.8574006835923428 -2.614690816068858 -1.3969204567359426
Ni 7.889790143576874 7.415569553876857 7.216131091410401 -0.42729960479390283 0.1756737088186523 0.2456820196869898
Ni 5.530347677656081 8.18128378707574 2.190861914027336 -1.1869986253676976 -0.8911168448978652 0.012705106271494246
P 1.7822669992291693 9.07008703227282 9.605210156695652 0.8434460211844635 -0.16457657046422625 -0.10320639488686095
P 2.0302318586287047 4.290910221312695 4.538717581302984 0.2720288851116347 1.1651025966255546 0.4149786213347047
P 3.469730406682118 7.1958809042075265 2.82544269171716 1.6655138338034672 -0.2699275224979158 -1.6037415376916768
P 6.497108525184253 4.520721201435932 3.807064667714284 1.556766968714351 0.26848899027917633 0.3351888055995711
P 1.9835346653609072 0.48885145587475076 13.220002124539604 2.074074724537286 0.720411792938398 2.8533244135494993
P 8.491944463945472 2.8541932417734577 7.165067203995018 0.3214776266610657 0.46503851410557334 0.13411851108468514
P 4.395688775674522 6.870078178869893 6.409499248528639 -1.1008535568384976 0.9241665762639826 0.24111779735507508
P 0.3640898185713429 6.541024149937874 8.29368033917954 -0.48793213087429516 -0.8650895675961681 0.783580969397715
Ni 7.094869440979136 0.06333042035306684 3.6165309086899016 0.701093038005128 -0.1987028227239739 0.7529758429173483
Ni 0.7477998267085758 2.849974836543349 3.7077672770040677 -1.914137452617284 -0.977013544861685 -1.3072619757368453
Ni 9.135969679895021 8.7692815815957 5.594347700760739 0.0355940950545258 1.0795349978663795 -0.13834849000563268
Ni 5.403906046654045 6.71399718535587 8.648944664538021 0.7281379579380621 -1.6093902513370217 0.40954716590648826
Ni 4.360136277446967 1.4539958620974986 0.15893900910988049 -1.0050097729642948 -0.20462150220125405 -1.293669067543759
Ni 4.097821471871647 8.21924943414672 9.727828512564459 0.3020082050825444 0.5350704791229945 -0.5110430058601457
Ni 0.8218144175134464 0.48223555963722436 11.652801029161006 -2.2127088641041377 -2.315427777831619 -2.9298702684260376
Ni 7.127004846760467 2.8614234778119627 9.52111836684654 0.2464212118458595 0.9315348437035958 -0.07624632135824934
Ni 3.358182140870225 8.572379688562371 0.888352852149585 0.7244013737137653 0.24969936837649898 0.9303745048469074
Ni 5.4772860345760455 1.8580232940275192 4.5559190957303874 1.3815640288845301 -0.26713659001633994 1.0818178803632852
Ni 7.51111919548635 6.621044902425177 2.7805120707706177 -0.4945113267537096 0.08196702589211044 1.108326211066459
Ni 0.27621620080196446 4.073128143439504 9.920855551710655 -0.31337222394511194 1.735557111674798 0.11410941495260994
Ni 3.228572100699723 3.5902220600015116 0.026651478982189124 0.6871370900456683 0.8497691351890139 1.494563241492097
Ni 7.520016530535007 4.455142500042101 1.696964029712462 -0.08807313878984832 0.49844717147300605 -0.560596391308241
Ni 2.7897105889001144 2.1909365190106636 8.006814967794494 -0.002507082692569876 0.927012787463526 -0.5076483783562998
Ni 5.65975508700767 8.743842203330285 7.7229706377096115 0.915515585457204 0.6977354343868049 0.21052346950798584
Ni 4.391276950117268 6.393987859340809 0.5166864830492303 -0.6737580976356009 -0.17611696700365798 -0.910611206177051
Ni 1.5667414918393348 2.4195685561874956 12.530556289481414 -1.450586835911147 1.8784693097917131 0.42705072200789035
Ni 7.578475521791558 7.70227374165595 11.85819039035928 2.0461869969880824 0.5480100700027981 0.3157160415869401
Ni 0.900099913351508 0.642122328350114 7.672458458751178 0.2447343110617398 0.16389574234711773 -0.789947535045691
Ni 0.905883181133135 7.764334035194099 13.10082112419891 -0.8730607587271029 -1.8239608943311878 -2.4914953796545802
Ni 6.261633092623206 1.9052454853261382 7.4847163997819175 0.594867396675969 0.0705821810939365 -1.578462965630546
Ni 0.32713364139822443 5.283865707431323 3.274625480592882 0.9384768222390677 -0.2751592032105003 -1.1142132659748554
Ni 5.748719227002474 6.907150408239298 4.421289337545891 -0.670029226720788 0.28196182795463054 0.3932366016719227
P 2.3378254417394277 0.5940389560711126 5.749049883656975 0.024794947556492784 -0.7350537112212888 1.3208651683425767
P 6.974211998807903 0.03287869246707234 6.072176961135772 -0.8792326918657697 0.1269793289367426 -0.45918745464143496
P 2.855832709308303 3.238666799678324 9.953329903589077 -0.5844060921333291 0.869920156215592 -0.7309851975788701
P 8.580521763285988 2.8553721847198634 11.476975504442214 -0.13050713958434298 -0.08455509833426084 0.9345229797976423
P 6.313644739641599 8.737293543682672 13.306951008935396 -1.507185558241798 0.9958160222801687 -0.3303070520272376
P 4.540818494475446 0.8798828839189999 2.898600706787532 -0.143035868178973 -0.58474007843398 -0.10013624060196948
P 9.132451272039342 3.0973410139779127 1.3390351090852668 0.7273162333677151 -1.3510432345878538 0.3040620022877796
P 5.97059076322101 4.802479355135182 9.897588007404321 -0.2472722469922451 0.49628281683183556 -0.9674189591947145
