# total energy = -340870.88779842725 ev
CRYSTAL
PRIMVEC
9.23472663542601 0.00000000000000 0.00000000000000
0.00000000000000 9.23472663542601 0.00000000000000
0.00000000000000 0.00000000000000 13.51595589141906
PRIMCOORD
 96 1
Ni 2.517543433543691 2.5671800884672558 8.749148879138597 -0.45809859245263035 0.03293197484133038 -1.2844179812591363
Ni 0.07560101194367476 8.241836408585577 -0.008438693073330807 -0.3115182014555087 -0.18209401052269933 0.18023921670214765
Ni 8.112374777818424 3.5216075414272967 5.379323302422687 0.031101349390494824 -1.085450077799234 -0.18121546457248794
Ni 0.6230466803817775 4.055817999849316 12.856931608461473 -0.5043295983957121 0.051562702568640234 -0.6894276858520578
Ni 4.588920291091645 6.158740683112413 10.84887911745154 -0.879775194632801 0.6261983455787667 -0.4104020577076158
Ni 5.6720428925195545 6.218156913396731 6.619925694810883 -1.7365572708045383 1.3462836084156815 -0.7436584221711644
Ni 6.579290127804342 6.632315927352455 12.231628884396377 -1.0280244886919134 -0.04396123607229848 -1.0283659311917321
Ni 8.983514232498347 3.7163586885311197 1.560903340114871 -0.31633182079406813 -0.8062542426255147 0.40976725233709427
Ni 6.311676988635975 1.6442799917693627 5.496182301938829 -2.7403874216384354 0.3328840687257944 -0.09824545133715984
Ni 7.4235934672828 5.150253141236549 0.4831128697665644 0.9189359239926626 0.4022115514770235 0.23722077629351404
Ni 3.7074194732816297 4.707374127873888 8.847950294461707 -1.5707681680894496 -1.124177833386735 0.5234120689484598
Ni 2.0180740162049187 8.908297385176965 5.541528502931698 -3.2690355421748536 0.3239492281300098 0.37583280437317856
Ni 5.934419941763891 4.448063007826692 10.151063473983504 0.6650783104734159 -0.7386982499524116 -0.2297352665497463
Ni 1.157360567740567 3.8814571288517676 6.2984759471079315 0.2066907260254569 -0.5420098865553051 -1.1450022263312536
Ni 2.8532719153569346 1.8011041171483337 4.755926625906658 0.10866973199427735 0.72970144577044 -0.2239086325656402
Ni 1.80774388549997 6.487801692394527 9.357380287800583 -0.6005130249975207 0.2752219381276357 0.20540825976860755
Ni 8.163719857144008 8.544199823563687 2.1978704472188406 1.2185560884590045 -0.07953630496343077 -0.1404241415877388
Ni 3.9567755581646216 8.674594161707079 0.79817403367861 -0.7675809944250329 -0.5874927014784528 -0.1409887558419572
Ni 2.254723117427479 4.9672208620579354 1.6147103975246646 -1.4425865913144897 1.450954503663211 -0.057054321810830776
Ni 6.352383663036547 0.8707977697995206 2.2442435497982207 -0.048287117141161996 0.38974812890269006 -0.08083934004557046
Ni 1.0789023314185946 2.9788087873626896 3.3531735178957853 0.5427943301298136 0.5770828189990385 0.5822257966525585
Ni 3.5879498165846706 1.3484455284249195 2.0923239876620228 0.9239580597976024 2.8255318168172625 -1.5071590758792366
Ni 5.520159345816697 4.45469354145183 12.909954637591635 -0.46411523096035556 2.040442895415454 -0.4672668892154598
Ni 7.520354931522634 6.034496672816294 3.201308440645922 0.5438495108672053 -0.22912360110767635 0.10278139153430041
P 5.234880174858789 6.002350589878819 8.65752376977662 1.7830268751209872 1.5238059404072983 1.4168706746056243
P 0.15831276329035315 5.16086384198207 4.364883055846595 -1.2195567618093772 -0.5338558899896032 -0.32432100964713173
P 2.4023309857620374 5.535839911409294 11.232718677370976 -0.13319779904262868 2.0383047660265285 -0.17667952437534734
P 3.526446538111938 3.647135178706554 2.4225864348614508 0.7076028140991878 -1.4215415977187325 -0.17274753631079282
P 7.102723660403886 8.040593248754076 0.12722220959153194 0.06373404782385152 1.5845292264292843 0.6095424821896406
P 8.694633518206452 7.567913772984282 10.04842410632807 0.1240431291265541 0.24848143680899787 0.9411314862530954
P 0.2772357241786651 5.744877180404606 0.7946648376095952 -0.8023505366957343 0.6328706153926198 0.05255540549921272
P 0.6821387717660372 1.795323178360957 5.253273903096326 -0.176137021608316 0.6325047474127687 -0.6659987654051562
Ni 7.754464482958408 5.817018863802352 5.837703727683895 0.5794024682711505 -0.4053935487494309 -0.8500524707573877
Ni 1.2684450927778799 8.717748038629463 10.867896189727652 -1.270308795551264 -0.7171567763362101 0.7762335278937083
Ni 5.659419021397599 0.0925513524296659 7.633339039800465 1.098725197641585 0.10418110009530444 -0.3033436360645163
Ni 8.163766030776495 0.7565771316436883 6.1155101579601 -0.12636843482562107 -0.11597089364138093 1.0300281493855037
Ni 1.236686868353296 7.2273370597599005 2.193869040227514 -0.49236265584182304 0.033426912199877916 0.7261376396785818
Ni 3.618812272539006 7.233293458350729 7.782216683028416 1.297489983951746 -0.8177118496431531 -1.429498133561648
Ni 1.5551094727103976 6.732725108558764 6.311073037523045 -0.9626336219909293 -1.240460858951896 1.4097564321583462
Ni 8.954821937270903 6.22870297105677 11.996910764484426 0.6801604016175189 0.22098991625694842 -0.4936713473509175
Ni 6.538287942155853 8.006868027585545 9.569513037117828 -1.0910393989615532 0.2338444036221134 1.53617783170909
Ni 8.541651039050402 5.345890822084123 9.563146616670513 1.2368415170317537 0.37673500447247377 1.7262998547425883
Ni 4.156661213201003 9.125507387122482 5.5675325692757465 3.684434538876429 -0.3249229048971888 0.33781981546451495
Ni 2.9994022274519074 4.196545996943305 12.781349989443441 1.6264335799725538 0.9531719623573971 1.1896170368271513
Ni 8.786085014710277 0.5387262396792508 9.23779057965916 0.6781361720986385 -1.4590457653117774 0.3744752619040196
Ni 3.3455290113012315 8.508304441668264 9.706658883803474 -0.13782887005673683 -1.4525593862564854 -0.4697469753248361
Ni 8.870481180170081 7.823364777355564 5.690892816246063 0.6632695393994513 0.944324025048464 -1.3049006745935205
Ni 3.7027189974944488 6.831979948952898 2.25297498370152 -0.41381931091928087 0.09167731120133887 0.521019143236251
Ni 2.1240609722156627 5.743177990729083 4.142045411573557 1.245461654600597 -0.08767024692447482 -0.834761348926272
Ni 9.140606164945744 3.1649254651914367 8.297323262745248 -1.194637372859878 0.33413182508996647 0.5111687328047326
Ni 3.1706232914403367 5.052863715594891 6.387802533044702 1.72812276688394 0.40644410150113236 0.6800457304165255
Ni 5.424829264183961 2.9906846456383547 1.5000686558405505 -0.4389950388539601 -0.8227748659883571 -2.446845087935057
Ni 6.968238338422144 2.2976091872814384 12.117175531132812 -1.2369567024533794 1.3786656242908126 -0.998135928662597
Ni 7.954941160490622 0.1983637721096087 11.897649459781745 -0.22880529853630915 -1.1108212095741705 -0.7711450576272073
Ni 1.9970465439703224 6.875863369268577 13.55474632845686 0.6582648870960082 -1.068402635398644 -0.6386530264023518
Ni 5.338272172723762 7.031440806570399 4.267189807703172 0.37638224911874535 -0.7028282755286799 -0.42365018096677365
P 4.841111437009341 0.9289488425536945 3.8135809656231743 1.3749480662299094 0.27609765586436963 0.04979738313810133
P 4.323301852846718 6.357555109875095 0.092515336996326 0.2595199540113466 -0.04331434651691895 0.5267344484534735
P 1.975474222872379 0.04161998885116505 13.503831587386053 1.5332187490807658 -0.5783382886726943 -0.2156967861788092
P 6.777061030472818 8.093739099746655 6.277458633072482 0.22634398148001017 -0.009014287683468345 -0.7055981249643332
P 9.201906279435534 5.2729549522076 7.457522775906925 0.1546282010022627 0.2982549086876992 0.29540329817151706
P 1.218596039144875 1.5642887908488206 10.222333399199895 0.4682138265097614 0.059028157707749954 0.2927794873954248
P 7.365211526366192 4.526290375986228 11.712833031443832 2.182760397371163 0.3375825026427283 0.24593038825237
P 7.814674899721503 2.101823750809906 0.4863893507278445 0.6439993783159297 -0.3926542468058915 1.4600898903055757
Ni 5.6497133238488235 0.818095185678817 13.565829847199048 0.48732972140360586 0.6817683695345871 0.06787918034047664
Ni 7.880029059143655 7.198321549105047 7.98359097597618 0.9295103570743992 -0.5651654987361622 -0.9325514578935681
Ni 5.438949160998496 5.230502914499018 1.967869425601764 0.12171679498622263 0.34357137323631154 0.5694219600196709
Ni 4.435826995217626 2.739814065609788 10.592792763897238 0.23544542956064612 -0.11366718520886876 -0.5110607464719585
Ni 6.93334030698844 1.6381019597425972 9.60768200867691 -1.0916945160470488 0.22779408366297543 0.8554160490621461
Ni 7.001141668932406 4.745218037060264 8.041723579277358 -0.15801382964504398 -1.306533582211253 -0.8817189486227331
Ni 0.5711955380441349 1.4793477765256682 12.893478038574962 -0.8863410207757767 0.8970234401902873 -0.555433873270695
Ni 6.93095774755211 8.805902737773712 4.2156803502459335 -0.5765076632218588 -0.3952112088997903 0.4280110290386306
Ni 2.231516249739494 3.517876711922344 10.797167419484008 -1.6781916863814519 -1.114374474143068 -0.5683102150127309
Ni 5.428587797868405 8.79194906603613 11.673257611039194 0.69624213767073 -0.02784864678115204 -1.0249103685429641
Ni 1.2123256598531356 0.8712992154483298 1.9211851127394208 -1.0376617546713613 -0.9516922924880772 0.4581379303309981
Ni 3.39821312596894 0.6712639578426904 7.655735098501976 -0.8658652694199281 0.40454739869905165 -0.264233557436932
Ni 8.912434542647803 2.9796306780209587 10.744346630864138 -0.46078076727048384 0.4292351312537188 0.4122429675710965
Ni 5.091095483294158 2.4547288239083267 8.33161364917542 -1.2488873924526942 1.0901528825915419 -1.3888595341046792
Ni 3.4406651636775214 7.839857998879933 12.099577836319353 -0.4044370983734325 -1.2060828956926584 -0.26205197640458094
Ni 3.0092187417186516 9.00381216133965 3.377718497453244 -1.1275436645351742 -3.055068594202958 0.31642875138324855
Ni 5.995840107698148 7.7190493068408506 2.050316140297967 -0.5660358171562574 -0.3596410251046645 -1.0248571467075254
Ni 3.280562710391971 0.746908373000903 11.418332986078264 -0.6196677435491005 2.604593579733856 1.160774658674162
Ni 8.185513811677888 1.4851841236720296 3.7469200924016395 1.788928328207087 0.1828242038205045 -0.4076890296518269
Ni 2.0431278291923847 2.801326578809018 0.796567191268061 0.14827757619388657 -1.1561088777673767 0.8659714559804892
Ni 0.7018041218422661 1.2700981088209156 7.370102237519219 2.830369347415222 -0.9554916116295094 0.1392234364114183
Ni 5.572981981381867 3.915173115293802 6.272389691698056 -0.40419438623500714 -1.6403507042742782 1.1256821858464032
Ni 4.087123722675526 3.9778492040317053 4.419258048935978 -0.5664461652207986 -0.2936312938727588 -0.32170825461463304
Ni 6.319868191039176 2.997296709810499 3.517014188467486 0.23676440548238578 0.06831112567157267 0.7031617476086987
P 6.071213945369986 4.8644106519623005 4.467806853078148 0.9727478276067958 1.7049509567531669 -0.6280438834279377
P 3.324935571212013 2.887384995038357 6.584878984280573 0.9823974348814178 0.20834574513037668 1.1291323491785328
P 3.541766949371137 7.0560051790535026 5.326556998689151 -1.001308669963624 -0.5613250419441494 0.37592253587350744
P 7.101680136309679 2.370618934969941 7.546444880823111 0.721041456102597 0.35534059795709766 -0.8558202264791003
P 4.67321487455998 2.659767456330261 12.661423213784861 -1.1348677090004131 -2.814686646572643 1.1481019483025001
P 4.853384388524396 0.6813381209787119 9.621427899068301 0.8127740460219035 0.4712814096914916 1.0459854440457084
P 0.5914565279794466 8.653188065686088 3.6591883437309702 -0.11549292556369786 0.28324018044642185 0.667357850536212
P 1.8185300460489413 8.330683712217132 7.799274146341777 -1.191500369892793 1.173377177929521 0.48545230187523486
