# total energy = -340869.87595890084 ev
CRYSTAL
PRIMVEC
9.26126088736187 0.00000000000000 0.00000000000000

0.00000000000000 9.26126088736187 0.00000000000000

0.00000000000000 0.00000000000000 13.55479145125239

PRIMCOORD
 96 1
Ni 0.8097407617765885 2.5167013786424026 4.415731288012824 -0.3327480573685624 0.8950789148694069 -1.5668202391852952
Ni 8.10776170759761 3.3614209972038243 0.3306788818386876 -0.7281906655528685 0.30420829805765676 -1.3236129062910431
Ni 1.0971630717216807 5.024095189949488 2.5936957983427886 0.38566958795794226 -0.5400481348432441 -0.43230734242113933
Ni 1.1191400441462642 2.623066961573856 0.9336647694951339 -0.3360933196917115 1.1126078691609484 0.8055456465942644
Ni 6.372016165323938 8.84174442802134 12.871887743673726 -0.16788969399785925 -1.2674772396397398 0.5560208561224166
Ni 0.8904989579596342 3.7240364115789353 10.0390180269747 1.2060993507528905 -1.3485847457450322 -0.43967946651549444
Ni 7.813688886106756 8.794919492252822 3.02147159307394 -0.3709834467006772 -1.7075791384046335 0.7066512488191958
Ni 3.2421822614404396 7.9467454233271475 2.5790157734838726 -1.3578646283850617 1.8340151932433961 -0.6939165748613468
Ni 3.253731053945056 1.3866237852195125 4.513054175674425 0.5817984793071528 0.016984964593770746 0.10288937786707442
Ni 5.195437780268585 4.225478128796232 8.41206266577018 0.20985549690668376 -0.008497495948049882 1.2080294778960678
Ni 1.999904490637091 6.419822794761654 6.77635170838774 -0.021549958256633854 1.6360338220664792 -1.6462483007056359
Ni 3.2026459381026617 2.1236719830442268 9.910707886032268 0.781509688690983 0.19867762591299334 -0.3009926193338365
Ni 1.4911926835111142 4.056561988867038 12.484952257833399 -0.8506582226621866 -0.8574353934850201 -0.21319638835445867
Ni 3.4223323109992245 2.760624471654909 12.380241662248036 1.3429568580352935 -1.8522841667559131 0.22555722391265673
Ni 2.4250797232709718 5.361501451800488 8.82265141228155 0.30927979904329317 0.6287583929964591 1.0022574070301384
Ni 9.019866261414517 4.716537972398712 4.5773041740712 -1.6482766439895742 -2.161801021510677 -0.22114675354978686
Ni 4.515800139569869 5.455345809819158 1.3482247447362392 -0.5311881133494529 0.21148583342125513 -1.5443575393064048
Ni 2.464393776344026 4.658164244125578 4.587713831469106 -1.5001859869955132 1.6136924782568016 -0.28069196010327147
Ni 2.2627020336290755 6.129778621818922 0.22223785031037335 0.027564025661197693 -0.16484087986920642 -0.101794859251315
Ni 5.541012474348192 7.398015707289825 2.6139057221628166 0.39968724239327297 0.4127031950369666 -0.0325229123283698
Ni 9.248721282730944 1.6584788414989988 12.638691043186357 -0.9798031917916804 -0.7507659797502231 -0.7950285491130243
Ni 6.864057702595616 5.529019141314127 0.40630078265440334 0.385141226258298 0.55426402133231 1.0083113265337023
Ni 1.2704875719012334 6.072071704339958 11.290083808369571 1.5471726401576966 0.09623022067934395 -1.4120886798359489
Ni 2.3643628959572056 0.7773198652882871 13.038909955722252 0.6742862022249291 -0.9250908878504649 0.9933811875864311
P 8.685590305791715 5.142944952749605 9.854591127072185 -1.5919484017114904 0.8791681571764214 0.637092109673135
P 7.252382377590467 0.6308094941693734 6.5959377128895955 0.6390392060971768 0.40117771089587034 1.5711512624604813
P 0.9675887686486312 4.466696933587929 6.201331124537983 1.2437169039953484 -0.742991735121443 2.4096975323504823
P 6.135705828878228 3.5747356225116325 1.4291496436178277 0.08621988763119345 -0.004581705833411464 -1.7108454678607308
P 0.47281608549915705 4.825635627334065 0.5562285590934483 -1.1666295747930424 0.390927751033088 0.7166039891565336
P 3.8265770937049313 6.237857538040956 12.160247815485272 -0.38378625489230034 -1.08736169299965 -0.007425088819477534
P 3.751190428919381 6.087380568822822 3.244488315436951 0.24513874558901005 -1.4704558069209321 1.4550435861309199
P 1.6968760297300665 8.164060913399988 0.7783135985968238 1.4773255374575718 0.6366555363563488 -0.015385995537767051
Ni 6.272059375025358 8.386942421351957 10.368263265605917 -1.4551747123921457 -0.6131399697329117 1.024664828191061
Ni 3.8005251664270747 3.0286731496509973 0.9963218309947205 0.5927884026597533 -0.35877147801551756 1.4574599088818962
Ni 8.473451860634738 2.755252940257413 6.815714846144254 1.5195777612585637 -0.5360426132282768 -2.193394222935926
Ni 7.669342871690592 6.3590781836647965 2.8102611262721857 -2.099143751690772 -1.9084990233845842 -0.4985003933084447
Ni 3.5936008112300803 4.815466762722943 6.776500814690325 0.5339605338882675 -0.4923996797273455 -0.22472470070903233
Ni 0.10155157944797391 5.753910342909642 7.8267537470420105 -0.5282477997742063 -0.6124712258006614 1.1517878817945195
Ni 5.091609782859397 1.048189523394164 11.185996495651539 -1.4150269365286663 0.8402126018488303 0.5480931166349077
Ni 6.301102689615958 8.765477943437924 5.147378318404747 -1.00608732229919 -1.3348383426932173 -1.1807264192057407
Ni 4.255151209136883 7.165094992381155 5.363468543643296 -1.048693844115807 -0.06143933825240387 0.006887214038136527
Ni 2.153196883208395 3.087889652677877 7.959400936524869 -0.5065296913708244 0.04026321839542098 -1.1932826586041965
Ni 2.376735940693507 1.028296334701368 1.924766953773253 0.6357008857525632 -1.035713629806055 0.8019234764606447
Ni 7.9503017475627304 7.515226226887603 7.0042759729706345 -0.8966922821031138 -1.186355335356744 0.6096280999249114
Ni 6.5318655307046 6.426796524317369 5.0992447664526654 1.331632691271726 -0.7126822855046242 -0.9879800711755178
Ni 1.3249530480196385 0.17091749843781265 4.030693434557579 -0.34639932960340986 -0.34275684775481613 -1.149961370108742
Ni 7.41897394100109 1.431614991304058 4.478110511681506 0.5628329939482435 1.8154423153372152 -0.14774355806728748
Ni 8.038783835444935 3.5418951908986647 11.371507889220688 -0.24070410685642415 0.1676230706000339 -0.47627526336165715
Ni 5.876936934434365 4.863773500256288 3.0880934004205414 0.24687938242920063 0.4182310668337313 1.8590055446401466
Ni 9.139549537707351 0.10126262810383273 0.8668447711624877 0.19008962713366617 -0.5098248171823284 -0.9198283538999449
Ni 4.352014738251387 3.577773316129527 4.614363110083408 0.9723583054778608 0.39338238322116764 1.9855544709076898
Ni 0.7735292311486403 8.2993031082235 7.8930097345779195 -0.6547941549385885 0.703128323267602 -0.6634024654328897
Ni 1.0834100990918845 8.304563504488634 12.010847004798844 -1.2404395187956572 0.04091679281901985 0.7527025346513037
Ni 5.982422697567954 2.5331679007540373 6.7213601926428215 -0.09363674892055486 -0.0737711203448794 -1.2891012456674185
Ni 8.633458667452912 7.358747960521922 10.262644140313494 0.7636682896341881 0.724244793531243 -0.3963738617493238
Ni 4.62538864133982 6.113543631233041 10.059417806645845 -0.2828316321540935 0.05089678684986718 -0.024558920286286735
P 2.5666844044222072 8.67751448617341 6.0085820554737595 -0.5240350472444394 -0.507090706080617 -0.6635343630250637
P 5.477044944412836 6.009900859044455 6.891309889302982 -1.366851148154388 0.997353799080934 1.6410186768755801
P 5.913704140724124 3.1941533617379996 10.444726088923174 0.13451883184689736 -0.33302650784092963 -1.2216426978041284
P 1.5995123925199335 1.9574879151189317 11.36749591094242 0.557243415675608 1.841488618802306 0.5749642299941388
P 5.317621597039563 0.229534797876041 3.298911189754617 -0.04606876933360453 0.40709407638030537 0.07324610107934483
P 4.351672071593271 0.10660730184434142 9.436601706871608 -0.4039257059546527 -0.891856037056735 -1.5521760069095591
P 2.604674097167947 3.068811454955736 3.068913328827068 0.31150843126349576 -0.7034713084293175 -0.7291190909044089
P 4.751749286835403 0.9935295607941255 0.08680209513133187 -0.4971595630098341 0.13016569708452422 -0.7217598223258602
Ni 5.931819167299127 6.652326752923966 12.071653666344602 0.3132272137268154 -0.4551371958314613 0.008602911177662605
Ni 8.143334211214476 3.5525085960392344 2.616115459044614 -0.09220490157003475 -0.814558648726152 1.1237026935225294
Ni 0.22955054201979225 7.260819386388949 2.290149632944178 3.4548067444388244 1.6294034612341552 -1.534000878662429
Ni 3.7996916529343596 7.4226877066741865 8.07533525435269 0.058391809675331696 0.2106815923524049 0.26685993931618557
Ni 8.40496483531666 5.877844538015321 12.099576368350553 -0.6899362500573601 -0.45197319628118293 1.137936320623408
Ni 1.5752108435767782 7.100821840831805 4.409753144017852 2.3755509683757605 0.021535560078930652 0.10065688899212986
Ni 5.810820791940012 3.70362459226845 12.46215381155544 -0.8995994284475798 1.584265431244936 1.1601311115528923
Ni 7.695663375538323 0.073234347722139 8.962753916893691 3.498502128444246 1.819058314823248 -0.635794216797318
Ni 2.6748651945155735 0.5662464651497786 7.902633110914365 0.6940541288804756 0.20732218896186874 1.061190691031237
Ni 1.570107888749157 0.36245334230708337 10.052382952767333 -0.7897541880879624 -0.5558974431706748 -0.9597431878170115
Ni 3.1756678847217885 4.30863499158609 10.945778833177203 1.0450580471354325 2.3476706970257246 -1.4443989619328803
Ni 8.874334805586493 8.718282557228198 5.414624045069519 0.2610099082933118 0.5982285998387181 -0.22068806874581345
Ni 7.230071999768798 4.892677895931436 7.000548315405993 0.679140444993437 -0.41123509513187234 -0.09960453646821554
Ni 5.985339994792455 8.502402562615035 7.879739273647795 -1.0254996653875306 -1.116506432884406 -0.022625193598683615
Ni 1.1406724760413995 1.248844004873736 6.238999451525976 0.2376532358452423 -0.7203148623492175 0.7764374163743983
Ni 4.110684798327327 7.912367622383172 0.06439632632105179 -0.6163242809981644 0.39845516975838474 0.4389510729899021
Ni 6.812657703878196 1.6642115620766715 12.409642461514402 1.9470928244973822 1.082317188597207 0.6439307298615232
Ni 3.4401694997433236 8.14967817502014 11.125528796259484 0.1097475384394884 0.2843956342071038 -0.43997900003378415
Ni 5.734109766827149 1.6837620841113516 8.792559722942334 -1.0364381666769054 -0.8236788658598653 1.2657792831120265
Ni 7.5491317035190395 3.07629455386811 8.760529651669506 0.5704154342811918 1.0974265334348197 2.3991048444363003
Ni 7.06535121108627 1.2271541315410879 1.765890946926862 -1.3715503534022704 1.4584559542465785 -1.6213065431586335
Ni 4.58397228201292 0.352596582192678 6.585554913148677 -0.9408188401086829 1.2778812085818831 -1.3102531971546854
Ni 5.392332189769911 2.502920622229516 3.1145250394006343 0.6374430652546506 -2.49519391155209 -1.164066956272189
Ni 6.802803722142099 6.5336992603885715 9.05083221379498 -0.04100883831219389 -1.6793306850819014 -1.1726071325327159
P 7.084614634029014 3.6127716215625236 5.159767107284799 -0.5511283039168057 0.5911048443097433 -1.625148542612543
P 8.119968049635368 0.06532800918068646 11.191147609036518 0.07203151194595336 0.35754866135201 0.9071366173648894
P 3.7669345726706633 2.5727597916579956 6.470854195290073 -0.05940276743834932 -0.5623614536284638 0.24663589895982685
P 8.860915238353781 6.679906788271799 4.491692150982244 -1.9018300960048407 3.4056773339020254 0.5885090585581091
P 0.5003164740021313 1.482681584624392 8.378799920654236 -0.310159373434769 0.14960169432194884 -0.22413926051920754
P 1.7784029105786159 7.515198443104513 9.547168197806347 0.5590462732123017 -2.0701126545657447 0.9263144758449209
P 7.628241395238716 7.765659986404316 0.72514099451823 -0.5708388949718556 -1.4539169287256444 0.9830191276258168
P 9.076545178919133 1.267940725117938 2.6190975850963274 1.108340352133846 1.8000210956861389 1.5264359218309775
