# total energy = -340864.7756225543 ev
CRYSTAL
PRIMVEC
9.26330161611032 0.00000000000000 0.00000000000000

0.00000000000000 9.26330161611032 0.00000000000000

0.00000000000000 0.00000000000000 13.55777826405707

PRIMCOORD
 96 1
Ni 8.655063895228649 6.5850494804569495 3.385689469111538 0.639569367569034 -0.7222907551286657 -0.4406428588700282
Ni 2.2134195858734453 5.301535682725092 12.231556070418764 0.5570302712235373 -1.1459044264305491 2.584800970487961
Ni 3.110051594892401 0.9715813817587158 5.339052980282044 1.3362069409059698 -1.573761960610451 -1.4300432074318403
Ni 4.2245842459775265 7.373801079770399 2.648430710384639 1.7311710667919606 0.9120021729873068 0.4084763014398127
Ni 1.1400623101224239 0.7884764792577861 6.408748472935299 -0.7541071283083142 -0.3859662932627546 1.785733475418873
Ni 1.5117337577107821 7.796559635337965 7.633896986669949 1.0733872330974288 -0.16111612271945155 1.5599703061429973
Ni 5.110183662865342 7.892897971327769 12.353264736659419 -0.1864764558611111 0.521940626609256 0.5224749018461711
Ni 0.8252656813138927 6.461801253500762 10.300291091396073 0.3067197516256008 2.142117941259453 -0.04352851941025406
Ni 1.8560136226528086 7.410807969412636 2.2333458738107215 0.28931055501021785 0.9809640448690009 -0.23029448148732595
Ni 1.9111487934038964 4.477166689000026 10.210714965528629 2.0108335571894527 -0.7737411004891578 -0.9089695568085701
Ni 2.9277868738409207 3.6634134388369155 8.28880499472864 0.7307640827069997 -1.5487582394772617 -0.6832899483854361
Ni 5.149321111861201 9.096145261237353 6.4144555930125415 0.2374835430365975 0.3390871122127128 0.005268704598107055
Ni 6.039144594250107 2.2894342382900166 10.533349273768023 -0.22314578625768663 1.2418618530644807 -0.9494873144169583
Ni 8.759164877906862 4.023385336583435 3.7535926056344486 -1.142331107256994 -0.9826100651128561 -0.32020287371370015
Ni 2.4433625199383413 5.535044987881918 7.018400621332625 0.8760003009714011 0.8638166144210156 -1.035489686720707
Ni 0.8397701588612808 7.032865266683402 13.1721137289983 0.2875894585540531 0.8591310360198882 1.0873285257688692
Ni 4.283332104328232 5.853294975503621 5.003728875266455 0.5155987435516282 0.8230936827803567 0.07299181897669364
Ni 2.1177204176897275 2.383391905784688 11.904678243745048 0.06069114723246967 0.509812218776838 -0.32435777642233815
Ni 4.665702665192382 4.4163160612003125 3.0442367637987506 0.5028463289819662 0.2602717445757066 0.5136989554257541
Ni 3.183528102687702 7.011754202479483 11.098220769872857 0.0026744615083695873 1.6034247777822064 -0.5766688713900714
Ni 5.348787783867782 1.4661953673525245 1.465148614278789 0.18018419509449615 -2.668256150889824 0.2616179741909559
Ni 6.979434543415211 5.5970998448815035 7.867917626071644 -0.15568106774680932 -0.732306487493455 0.0035437514872003486
Ni 8.245496281050455 5.467821208624416 5.721951549333829 0.6106732533599741 0.8969077405480295 0.12626121982379546
Ni 3.279986861597494 0.7374032662308836 8.015480166903412 1.062262326828861 1.0903559997412833 -1.534968384782021
P 3.0094428768938175 6.2157031215544984 9.145345434693377 -0.912128671262842 -1.6278800826110933 0.02345180326503703
P 6.9815187862611445 3.9466944631546284 9.397357258341168 -0.9931317905797863 0.080430534642926 0.3853350874366589
P 6.463440857872896 7.454030534386522 6.934992927958991 0.3054349713759062 0.3717041269167856 0.7863688165554972
P 0.2318076366643908 0.15030169909640123 8.288208438109626 0.3468405309058865 1.7809278265001134 0.2736633353912642
P 1.390143661729804 2.8845272556608834 5.6815357647257985 0.5818642995480817 1.8150713051510416 2.124874837908289
P 2.3702102276968526 3.6741403420173184 0.18526047276870153 -0.33332758402111623 0.5735856044790574 0.6333539827869414
P 0.41327386112334 5.681201359540296 7.600286949701506 -1.1123577008233554 1.1732488798817728 -1.7864400145675943
P 2.9067499160493013 5.728712833126036 3.183596651119079 -0.7893376693758342 -0.9196208658748289 0.46952868866644293
Ni 8.326485326392651 1.764316200733282 11.793938252854922 0.42793338172315976 1.2591792612970059 1.2649249055315313
Ni 1.168787808190153 2.2985863802090476 8.99184419124593 -0.2522105648341269 0.23414265158882258 -0.22344660532755709
Ni 6.494157965771183 3.8153315840516075 5.520388592189314 -0.7556173943052535 0.9356992594939304 0.293257712583424
Ni 5.422356924678458 6.484774241313715 10.18487405955967 1.7986239582282961 2.518465737595837 0.6191586651231659
Ni 6.568236588166421 0.10972102772100358 8.585734567531677 0.26487453345504064 -0.33245418027722745 -1.5435715530699996
Ni 5.551793037061683 2.6402354675144295 8.097559502836573 1.0717453266186316 -0.07748662152325365 2.091640244224875
Ni 3.147253013866925 0.2719066163598394 11.872099212237726 2.920654663365041 0.6691401392476153 1.4812017325835265
Ni 5.568818985287574 2.1501975528801363 4.1478804039265675 -1.3102619389054337 -0.9132807825894141 -0.9733700345718269
Ni 4.3924167432336105 2.4340992184008603 6.276152648397639 1.2801154972290405 -1.2966749442496184 0.27320027971191657
Ni 0.9147130472899649 0.9918772754273372 13.336013954751724 0.21906030333440338 -0.7193409284717225 -0.13984101539075913
Ni 6.306326000495677 8.497773035122217 1.1093924450619774 -0.30286258266303967 -0.9851842535979356 -0.8829561634639439
Ni 7.052985157622812 6.775688226098311 13.083839096996874 0.32346560362537197 -0.9960553919844847 -0.07814636659443962
Ni 5.119039379135174 3.4992677355927486 1.054320264761344 -0.9503434917696665 2.3041066963918446 -2.4441672839925777
Ni 7.69183801145674 4.610567494441294 0.5571421973019606 -1.6199526002339004 1.1353806440810899 -0.706495439967622
Ni 8.317184971649022 8.744195382622292 12.882044557313922 -0.016655606278810027 -0.07059092284468488 -0.486500283523775
Ni 1.0959875214070884 0.3561424488909247 2.2764054046775493 -3.451225969066102 0.8013370078295554 -3.30423908665918
Ni 4.850236895120545 4.846346308474803 8.973676077940468 -0.3090550846269967 -1.644691497741477 -1.666567471878962
Ni 0.8411540961109805 7.19189762747888 5.5525063112800686 -1.422718391635653 -0.8480066439719525 -0.5873101531540014
Ni 4.897683525595523 9.060759449364175 10.14933910853174 -0.6901280543531921 0.6682729061513136 0.29432317773346084
Ni 8.088853852051647 1.9589289027342245 9.041777091853568 -0.21067053660881135 0.2092410032511364 0.1156477059740073
Ni 0.004335225119541202 3.3074618139576626 0.677161237342182 3.5247960291437685 -1.4855006170691964 0.054442852329912694
Ni 8.45840400358792 7.561457042316692 8.202320032584254 -0.6915902407210154 -1.671590121904534 0.8085348111295754
Ni 8.129973647576527 8.994999271749595 6.398294837150251 -1.0671808471764008 0.5114021889717774 -0.6726838907348157
Ni 3.1993405584121826 1.6547683967510292 0.38173787736913906 0.17779306915450024 0.03756767384112884 0.6482144448385416
P 1.6486083012286041 8.636305709615248 4.155756989223888 2.1321281770365923 -0.6617392187978539 0.8310569034914913
P 8.685354891256212 7.6944595257918476 1.2998681565962806 0.16871321834041914 -0.11869317766855042 0.20515063523184668
P 5.087673840129263 9.193122765033243 4.220264768470599 -0.49665459834895753 0.032269658666983135 -0.8307990218444143
P 4.760568136237726 5.842771864957043 12.083546112122733 -0.3516292105437815 -2.4254277986015453 1.4666947972166031
P 8.65928796072974 1.8779769105981763 2.7256560763121587 1.5612635710331242 1.8031092476931592 0.6052970766497253
P 0.4354770685785287 3.3309628099582524 11.110680836770923 -2.042994972413346 0.3543198700020672 -0.5199863310963626
P 3.565843083742626 2.3724148934627727 2.696872219444743 1.5102225452959088 1.6191727846450823 0.21793313170849563
P 7.213360697141224 0.4553653769795009 10.665402268835585 -2.0622777319023577 -1.5566276149230096 -0.5474040609876831
Ni 4.253495010076006 3.3679604362989526 11.81198409058009 0.31424717035089755 0.7911204723078697 0.4008408963817419
Ni 6.083200856362367 5.886170432660142 1.4509674259550591 0.17050116347877733 0.46832489816632894 1.8710532198333003
Ni 9.117654647407385 8.714024809514715 10.382953088995938 -1.4698618820906753 -0.027630360122758865 0.22817486404116188
Ni 8.875965846992962 8.862487743255928 3.9386566964105554 -1.6080262811099597 0.008889846290462109 1.0362445626088606
Ni 3.244675156136615 3.6920370405877323 4.837808323447706 -0.6606452144027267 -0.6112157561270054 -1.1034786531661704
Ni 3.878859305995653 5.636663405748086 0.9755673804102939 -1.7889339846340415 -0.059160569520556185 -1.1688258111134129
Ni 6.64734518329651 7.71434783419282 3.777359458389164 -1.2574635641574796 -0.013137308712906406 0.4876724494550052
Ni 2.0437251650083272 0.2949740898484751 9.779225748261984 -1.056340304917471 -1.9440252413156518 0.648946952129192
Ni 8.034237426186657 1.3409833204703911 0.7772697370577414 -1.6152541663169668 0.16595853841341743 -0.7480781485054149
Ni 8.684567510625525 3.0838549781444042 6.521616244188585 0.621414293926562 1.327631797642449 1.9878936605638278
Ni 3.9791808616465745 7.725686115274697 8.201764234492005 1.3487490392370385 0.5657347409760708 -0.6003073367446178
Ni 3.0390298620045324 7.818106074714147 5.796397924800105 1.1447160625494028 0.8191665798118085 -0.23672095383896008
Ni 5.615959926811815 0.9216392178495396 12.280025369383479 0.4081597986406583 -0.09556481918120316 1.613155889027041
Ni 7.93596306017552 1.82070191719193 4.904024255497929 0.2828663420467709 -1.0605885386708638 -2.157142696803059
Ni 1.5818291604449024 3.2094190304849617 2.6310360827575567 -0.01295450327813898 0.4853808252073511 -0.9016151733260279
Ni 1.261689459309552 4.890828682457787 4.657638961204004 1.0507746379042355 1.7092925215513142 0.20811331740459643
Ni 7.052568309053625 0.5632717239293119 2.815530480489109 -1.1610963036796391 -0.03133120601311378 1.2526576581284041
Ni 0.824043851841099 5.527754769571919 1.7352600028006648 -0.40959241732212687 -1.880270881776826 -0.845632230202505
Ni 8.955945192467574 5.356142845288543 12.15091439888422 3.469671834476115 -0.25736356978997615 0.5695088633065224
Ni 9.014248412344482 4.683812419698158 9.266646515666384 -1.260971577310738 -1.7983763609938639 0.25506346090188975
Ni 1.207878940678324 1.5359665545328327 4.242269741272886 -1.5683932400993699 -0.12309619183225252 -2.6310864838180623
Ni 7.133844516743485 4.521704642792236 11.790101393358096 -4.595131619899067 -2.196416554702017 -1.8037509950422161
Ni 3.1786185528728366 0.35618320741768966 2.541785098774079 3.104358184466705 -1.3135148986250926 0.7424857420193018
Ni 6.948115320916987 3.513051528280521 2.4656037069298335 -0.2763033441172725 -0.6329423491708196 0.2749080064316427
P 6.842717476023526 1.6900059957996076 6.698559198506782 -0.4055640128890241 -0.39114500925021667 0.375077928485025
P 6.685130190267896 5.543020690505688 3.684041885030733 -0.03225963136465412 -1.4056197842821534 0.31956009792337864
P 3.8457985828083827 8.307430715130053 0.5321535150744513 0.5741695020069854 0.9049190408882801 1.0553506873106921
P 4.48656894006057 4.446106838944853 6.691861831495184 0.40043517630289105 0.8997696354768568 0.6276759585655577
P 1.534447373080686 8.435542175393419 11.667864718929803 -2.4098042331316756 -1.2175513013435741 0.48425056825764995
P 7.687919634906386 6.694828866977638 11.003710083276397 0.16301462529374508 0.9527803833459334 -1.0815887950716145
P 6.5384087572157314 2.7478101882691988 13.11068321852234 0.302501342668879 0.2479052525905537 0.15349537294940016
P 3.396157926179045 1.9166697211202355 10.049472380986309 1.2125471632607634 0.8250703468907533 -0.34145741221710224
