# total energy = -340862.26257601485 ev
CRYSTAL
PRIMVEC
9.30648670310192 0.00000000000000 0.00000000000000
0.00000000000000 9.30648670310192 0.00000000000000
0.00000000000000 0.00000000000000 13.62098400408191
PRIMCOORD
 96 1
Ni 2.1137730020352294 2.379929213198073 1.857452816592796 2.3365159659604853 -1.4870993290148842 -1.2612220027586472
Ni 6.448231924523771 5.906854984219391 3.324610196850498 -0.4758613157526901 -1.1901739377718858 0.04750858710392463
Ni 5.708691964383369 4.260267611065409 1.0100162423974033 -0.1351022151541931 1.5334306079812559 0.46715118957320195
Ni 8.651254133351255 9.136038328451912 3.0356949726312985 0.14685704169727612 -0.30632483018002726 0.0725192502156493
Ni 4.515451474490185 8.501456924537061 6.59636978677164 -1.4012939032132898 1.794627178364077 1.2150773858817847
Ni 0.6571235758327026 7.8384348974775655 5.294517014001534 0.15637706537256937 -0.3365774584169816 -0.54633036830753
Ni 4.827907456642754 1.8399110199418343 1.7473812766121175 -0.8081951684019695 -1.0083519499636504 -0.8401107861636434
Ni 4.759030149085978 6.6675858144188105 5.099736902055916 0.2994777253512068 -0.9648439993786867 0.5946547664445306
Ni 9.372655751047642 8.377513135584064 11.659752760100488 -0.4573992523927607 -1.4400489124943006 1.2137319275974838
Ni 9.380473199817766 2.7921507320360397 10.905558806110754 0.28602339961851386 0.659268131549542 1.8305981971420473
Ni 7.594939981261453 8.848309681278176 7.632640558604041 0.7036376588038528 -0.3048176495068815 1.469657993609985
Ni 4.430120298569624 7.545382939950842 13.598427938766212 0.31047021980696854 -0.9741339093210449 0.9183767090550828
Ni 8.66095149242086 3.9697935503354986 13.432714776515512 0.20427440327448046 -0.6644396484481525 0.03979064963437663
Ni 6.8966835958166115 6.8340416343026735 1.0086900680524713 -1.4144144997556478 -0.16137426147684467 -1.37000229218886
Ni 7.178176896947509 4.4712828889389815 10.560744169941847 0.3667444689186652 0.1727691335773476 -0.02305328227503772
Ni 6.992977812988609 6.617172576338138 9.301129817395656 2.342225614750753 0.744789193341498 0.5570917205890922
Ni 0.27631051872603746 0.6966928956908158 9.947608633819705 1.5518821298182242 -1.5209782411505162 0.04686735397549993
Ni 3.913433467297554 3.1040390185041113 13.199809711436927 -1.5142969724755986 2.039553293721649 1.7829880514632517
Ni 1.5163058668052072 2.061535692574862 6.342189162605696 -1.3920610717611122 -0.6401622639580264 -1.374239727308975
Ni 4.513013174992836 3.1959219610129663 8.903002041911828 -1.04100238900882 -1.6914164126018418 0.05324394692580508
Ni 7.240307001696737 2.3481196418929713 1.1041076141838186 0.10218438138024982 -0.5176414850132698 -0.03983281572622172
Ni 2.224296837266179 6.478738587700518 11.60382542869089 0.6499815640412935 1.2917829062646398 0.5891001551748887
Ni 8.506184619745659 6.265843399527463 2.4581381348998526 2.9211367452077823 1.0298332597658781 -0.4699868592497841
Ni 3.666364860215097 2.619543324489018 6.64101951768167 1.076200534176508 0.15389029439497368 0.8478991718598107
P 2.4567077279046523 9.289846633004109 5.688108807901363 -0.07544439428224425 0.21446085688917904 0.27327407037264545
P 9.129486561863617 6.038234655990637 11.166401013407238 -0.27817947809406285 -0.6116577287604305 1.0293984862213046
P 3.745749191178385 3.8092194300024906 2.088764611160136 -1.7442214722180154 -3.18590586343321 -3.1179148401052172
P 7.606489331170647 6.936468826164567 4.8274812195550485 0.11845303663328632 0.7431164336247653 1.176963609729199
P 5.780463589282415 1.2903536778887177 7.283684535884295 -1.5193910991690542 -0.8430775821014513 0.7678252492253551
P 8.973202731867547 7.815606085771477 0.6266839193596991 -1.010988359145233 1.7420635453347482 0.3281925767873961
P 5.8772882761923855 1.1586389725987523 13.392164552966479 -0.016999876992106207 -0.5933640726575652 -0.23302550726524385
P 9.563717921584136 1.2946718876855483 7.939821624134102 -1.508661628566692 -0.7362747281125835 -1.2124080665797379
Ni 3.0061533921181955 0.8416014070776927 8.249807664734776 1.564252735568435 0.08821172125024163 0.2564001774354423
Ni 3.1633492578041147 6.568462425310959 9.123062294142168 -0.19528865483610236 0.7623670543242612 0.9177444747877226
Ni 4.413573365339527 0.1753500291572066 4.40410029259773 0.9143303068998513 1.9180974657062966 -0.18339653138420672
Ni 1.4091788991946093 8.670267285538593 7.87283353336344 -0.9877394159196214 -0.4043985318260132 -0.9256241346461155
Ni 7.627549910416828 2.2121984046457484 6.757261258298768 -0.3111163380313997 0.8166679817596709 0.2994831246678455
Ni 2.1148990869175925 8.482155271264158 13.22815447776927 -0.9684389158187967 -2.2266113331178423 0.469372879814869
Ni 3.601787149481891 0.7545885490228922 0.017546449894276915 0.6073981821531281 0.14421523319905485 0.19080105137839395
Ni 4.7760237936743675 6.028732733140284 10.989178519139854 0.9709614251303343 1.254309849019846 0.9816415305519998
Ni -0.12294613358614272 4.126393800877027 6.884726621792974 1.0820022284599493 0.4528663975194136 -1.4824530884921245
Ni 4.585631690175314 8.854433349481441 11.654863132024506 -0.7816570129021247 -0.32473110060135685 2.1622177973331214
Ni 8.600114989313356 6.60416210802786 7.0769725774289425 -2.5613108577858212 0.3502855520316935 -0.5938189008067967
Ni 6.52526171436939 9.17154257494956 5.659696104216613 0.41728310109816524 -0.5452710738050803 -0.7635312498356915
Ni 1.5182788419710007 4.644439379197237 2.951190212723579 0.8753526400850732 -0.05308762385359889 0.09547380212929363
Ni 0.9706386361638907 7.197999713471753 9.770522014257136 -0.8345530895702079 0.9375543104247982 -1.9192886578009205
Ni 7.517407641137754 1.2779388247228296 9.351650080072584 -1.8784541402830615 -1.3631433602854974 0.1746486099882476
Ni 6.241646534286601 3.3875797466938504 12.595310594908444 0.9707683352829216 -0.4995573738180493 -1.1790400326422534
Ni 7.867238473600823 2.886285844309621 3.9951165004587237 -0.024688503885615543 -0.6468286202346086 1.0604083043392576
Ni 9.05053032928536 5.173485224715408 4.54503586484179 -0.30078564552935294 -0.004462406646727798 0.7992143050595977
Ni 6.648163176819704 4.256973114797998 5.56091612446545 1.078054299555795 1.392286814618673 0.46836629292722565
Ni 7.127047059396243 9.250954825372741 1.2780746994276437 -0.7529635016221742 -0.13328135989537046 -1.2776811767559348
Ni 8.084517016977127 1.0622703035337062 12.10419240500666 -0.18817749771261785 1.4454878241216846 -0.19142685788785097
Ni 3.073969760199025 7.9088756947883665 3.953613292678668 -2.730552180715568 -2.1707443467468943 -1.0119316968951086
Ni 5.69221017655969 3.2926535830566253 3.214320885082652 1.0792686315788702 0.514672632192933 1.3251753656821565
Ni 1.5488320375809035 0.8893036656027246 11.945930015952818 1.1017344167815541 0.9315924364144085 -1.4985901032633029
P 6.075311698728942 2.5412199330016763 10.251846988277013 0.8645889738106659 1.4690427286234893 0.39856572719432004
P 4.568935853159119 4.108097248160283 5.453433649065543 -0.47740937696610036 0.6489518372251984 -1.5221617199356559
P 3.4674014825287998 5.393834908679976 13.029997041825226 0.15412040812790875 0.5361739965998186 -0.09921681411149365
P 7.796146222225845 4.331378475413647 1.9343979174100718 -0.37616010580561027 -0.7830148124816 0.2236198976806278
P 7.279552455820086 4.735438205476138 7.704573185721806 -0.25785696448662687 0.6467085497169764 0.4747156321840212
P 4.524255410843206 7.3640925803770045 2.324625416392758 0.3509553244052085 -0.29240230656166416 0.2767651142450395
P 1.1604258180319234 2.4489554245409457 -0.3936038923324497 -0.6217485373375292 1.677842787682465 1.4708607556688347
P 2.938122974844851 2.655494282344959 10.677257659968575 -0.39873027779664233 -1.1162511223404903 0.5487734305313839
Ni 5.3998655120169285 5.255801098967493 8.846923945418807 -1.3815550300234658 -1.0574453650561917 -0.8015169850508453
Ni 9.339803853239856 0.7853502099333318 0.5656975818174342 0.7392960314374107 -0.8958031946299412 -0.14912629734742705
Ni 1.6064857222605713 4.3468179367346425 12.065454154404705 -1.4324284198345654 -1.1266666612468599 -0.595967314608367
Ni 2.1186123750834014 5.530910150269455 5.3363878280035175 1.121842500385339 -0.024299495977312992 -0.930095797264224
Ni 1.2541607513803679 0.884030610277543 3.7665566339881997 0.8799086348868718 0.25351822790195694 2.0111919689701363
Ni 4.7567128339148335 8.336750724139844 9.652237499824512 -2.0917063215761207 -1.2664338859768898 -3.6206081884490873
Ni 8.557323763783558 3.1297342280925795 8.835346676049717 -1.5450136848331648 -0.26523911588331095 -0.8520864704682809
Ni 4.660511681609148 1.7817827044439805 11.623262026019942 0.0643372286254892 -0.848485383380584 -1.2572897575837767
Ni 0.5669949060538096 6.0416036041510965 13.66171018656037 -1.082221543559607 1.4375251176311823 -1.6289524897396657
Ni 3.296701904741154 2.410929120166269 4.07771436125573 -0.16822316607787804 0.7355188237831656 0.13808880858634281
Ni 0.36580076352203694 4.885989239707451 9.38224236292634 1.3029384086608269 1.5167981416308975 0.6302072096278437
Ni 4.31744666492689 5.090043265580961 3.366780679722004 -1.2223667204543465 3.706973600519209 2.517508258778574
Ni 1.3815386339002407 6.3001936416828554 7.320570795646662 2.074086294501512 -0.7495009969948704 1.588548374891006
Ni 1.6843530959029893 2.7019150376608887 8.93800746072605 0.25614666666373953 0.9171130118513108 -0.19023360891069818
Ni 6.06488843370211 6.835716801896273 7.1458405784990875 0.4414435003944527 -0.255057804474935 -0.6745106595309094
Ni 6.914645115014635 8.453016661622183 12.325791950125783 -0.7990307282938819 -0.9163162269816284 -0.005655141403248325
Ni 2.168011206121283 9.079259453515567 1.979033688590156 0.2949790661499049 0.5652668002007168 -0.8017800089042451
Ni 9.32612331789214 2.3915437085136864 2.334977021472531 -1.551771829492605 0.44298256274679837 -1.1288659828910235
Ni 3.1117540959212935 4.671065237448816 10.338340544377798 -0.19123968157770938 -0.7913732117486242 -1.3154126298684377
Ni 1.9734218771516023 4.506628925163901 0.709676375189864 1.2696824748211746 -1.8121993829198855 0.5435715746154703
Ni 5.576297885569333 2.067249875366358 5.283525122641541 0.7232806298457608 0.2742773148261793 -0.5185187454119006
Ni 6.355250816592446 8.321972023369655 3.4613504049212582 -0.5079255432770866 -1.261207604580944 -0.5567464214345316
Ni 2.3917112252730464 6.795754748302326 1.386370561759108 0.7826057499686393 -0.2560001137835462 1.0856233701523046
Ni 8.771251971972664 0.6132648962863152 5.740754672124837 1.5777255732438895 -0.6169647427956407 -0.6773399014495883
P 3.6576632952150185 6.652779194188729 7.186553665564162 0.7580519718886751 -0.022836538278541315 -2.2229027739180043
P 6.708627420461964 8.575778526773028 9.896067449559345 2.4091825403872766 1.586402532192597 1.4855736363989769
P 2.1003344353399203 4.082495103438126 7.200706039784077 -0.35805773977794464 0.5181328228273915 0.05752071992428803
P 6.400908440004625 1.12048237741124 3.140781027723696 0.5223933978759583 0.6733791170296274 0.7896258900402143
P 0.8910262962781412 3.031634552514149 4.201596727396961 -0.3299581533282511 -0.2244627052968973 1.403493739078086
P 1.1762561517914254 6.717245227082363 3.381886038172943 0.6804658486730797 0.6771519538084982 0.6025398256195622
P 2.5445237357557167 8.44630668476116 10.641638943685363 0.007923882832767 0.8741660759761396 -0.053417496389191875
P 5.858330962924833 5.7694912415443484 12.870930572326454 0.5928390533920306 -0.15338481551346486 0.34766174125560123
