# total energy = -340862.63319968904 ev
CRYSTAL
PRIMVEC
9.35590392840985 0.00000000000000 0.00000000000000
0.00000000000000 9.35590392840985 0.00000000000000
0.00000000000000 0.00000000000000 13.69331110849037
PRIMCOORD
 96 1
Ni 0.26198963300166933 5.9452652335393426 8.93476186698909 -0.798492853512541 -0.4830673465828261 0.013097199503590349
Ni 8.217430685359973 2.40844354722257 12.114609042111235 0.31939143355599836 0.4520169050349248 1.6786136044102187
Ni 7.166903022157541 0.9513363706408956 9.44082551272021 0.07632756821814596 0.7755236463108772 -0.9634831144754179
Ni -0.019906556610373747 0.7133465021816574 5.6047954723171545 0.9688220101898283 -1.0378083075515545 -0.3287749316534273
Ni 5.515352095971412 9.294744301269791 4.7549884346085864 0.1320937673451725 0.001817512824712999 0.45159215879268033
Ni 0.28765474842845756 4.41590241156503 11.730703561699631 -0.6572842683502937 -0.5363148930530569 1.121994709692487
Ni 2.1409489003986777 3.3933114772428796 10.939340048537767 0.2002053754114294 -1.2810989441882326 1.3422323211644431
Ni 6.0082398223180356 1.945906372948162 11.266322338777432 -0.676319430604874 0.6258954696263672 0.5861050771023067
Ni 5.375312927223904 6.714301817766208 12.13550545334838 -0.6308163039667523 0.5505922289076776 1.3987014598957652
Ni 4.482918750804635 1.2591362512277668 0.8375676442989275 -0.4394655507324754 -1.0141104497139823 -0.7267734734903676
Ni 2.123687257805201 1.356970937731822 9.399307753818956 -0.7459081374372896 0.6547201071675434 0.2896381135529657
Ni 3.114580389901499 3.7435684494770114 6.705819755340601 0.1326475829661135 1.1179470219856746 1.253175478305087
Ni 3.9990220480527716 1.5630253640075522 6.093509529958656 0.2671638437098496 0.39979728560857597 -0.28958360616594647
Ni 7.002239114490776 5.149994694931931 10.196929431062541 0.4926758162068676 0.5575696886667751 -0.06421124457058619
Ni 2.8438392444434952 8.38320794558426 12.613291815299268 1.320351719041268 -0.08496904594322785 0.43893616059156665
Ni 4.978978128554612 4.776216980432218 0.2837524009348321 0.5659116328735673 1.5035297066567654 0.9684754254836868
Ni 3.610602344036098 1.773916792570994 3.0884306386555553 0.3069969165463874 1.5749053301862748 0.016342188803449273
Ni 9.038401891828784 1.8761113302666808 1.0184397197862562 -1.494742961603071 -0.9095704236173624 -0.5745911629254362
Ni 2.778563103319005 0.152472229366734 4.547836560811873 -0.7238321314738566 -0.8640958362243313 0.2330810430935276
Ni 2.5374614612410187 5.424094609870184 9.76339930106825 0.0027240837993824053 -2.154931805194669 0.769760775685171
Ni 2.2927016607597537 6.942408109403902 8.140645846916115 -0.38614549915309626 1.1048611353359938 -1.11613028049191
Ni 0.7654663713197267 8.696612012574109 3.272811178084648 1.9147699439949606 -1.4615759879327992 1.0298368593103038
Ni 8.174000579712866 6.410908567890192 6.349957661113108 1.4695577205866948 -1.266874058838102 -0.8548619763308891
Ni 4.799092165332515 4.929288923235397 9.165603824910976 -0.990687442804352 1.9494633816120877 -0.6641221172077336
P 3.7980198098531806 2.6934805137552797 12.522957756907509 -0.020665755879467635 -1.1833589717325812 0.43704717109896984
P 4.112378179035188 9.118628767297109 2.7903131829575667 1.853083008508125 -0.7297158439481433 -0.21069084832378554
P 1.0193631474957283 3.455977321194698 0.03936964337850859 -2.17470410272559 -0.6970018986548899 0.22852273429888384
P 1.2480401492679494 1.2964850193758197 3.2542425157240666 0.5415409173386867 2.81984376529355 -0.1817484542578225
P 8.084567494861354 4.219540701672412 6.012841991419245 0.2457954053364025 -0.7353861548600432 0.19471375616923883
P 8.56047425572984 8.137035403622445 1.9211300683866206 -1.9779769156707483 -0.5983018762788148 0.006695152631988469
P 0.9267443773850949 5.942626868655137 4.169161030649457 1.385560551638433 1.0412975516517355 -0.8535286022314462
P 3.1206804392082454 6.209719211613707 11.895735156387493 0.37130637725773474 0.14290294214553453 -0.0757207878720825
Ni 7.787040396695964 4.137695254838953 0.28958580698200415 -0.3170391312737379 -0.13034413164391745 -0.711562055857252
Ni 3.3535769536144278 6.984612591647356 4.002075815067682 -0.16146707830096707 0.9124991672283833 -1.6132651609113957
Ni 4.567963916752982 0.5942346191539796 9.829852414896402 -0.18520041736216492 -1.8825419371991898 -0.03908333915470688
Ni 9.071166267092933 2.645587641974247 4.356923729318409 0.018868554769728794 1.4689306285256571 -0.259126832337986
Ni 8.249381096989634 5.292316704217548 3.9866572855316122 0.412421916351122 0.07383822613738895 0.016535792871494103
Ni 8.145989003601825 4.037830337200598 8.270869736940147 -0.3879308731882932 -0.43932902515461114 0.27092485341417855
Ni 1.763784348707181 7.407602360370206 10.579068516828265 -0.7391798175745206 1.5156362601123123 0.11004141553082339
Ni 7.590828381264862 2.064080794410601 6.804138142073427 -0.7094861471648297 0.17441721070373187 0.40453608584514206
Ni 6.580044597594726 3.548806599141837 3.9597356722184807 0.8777666488432044 -2.3552261407754793 0.6502672136025123
Ni 1.2785310398978353 7.726694816897633 5.7438644338359675 -1.155709585446429 -0.7474322873913 -0.6900226391235794
Ni 4.340521894288261 7.093730498188123 10.165763044175069 -1.3686282946594688 0.6058364940929631 -1.8877821025522066
Ni 5.220435294978698 5.229753775208021 3.564683567966297 -1.805514514700542 2.6559750195296257 -0.7005405079357677
Ni 7.832482021669685 7.9507125785551915 9.563641398080005 0.7262795645730847 -0.4124268014471284 -1.0235638818173984
Ni 1.734846538115516 5.483598158322493 1.750745025518819 -3.8257721934173725 1.2155293858175389 -0.644022261134065
Ni 7.447739187863979 7.77837682973577 13.143182141351687 0.2179475298861988 -1.536412059207083 1.782694174371917
Ni 5.620690217358919 9.402683363926123 12.707159598573169 -0.6370666557518383 -0.9530585767079844 0.058270967826751265
Ni 3.1294375652068873 3.3113631154671292 1.2415920603381807 1.7350130662458698 -0.8096743240506572 2.190073643203125
Ni 2.0809494890425997 0.16523555339167728 6.934840118783923 -1.5137835231742898 1.9532981819771456 1.194229338788182
Ni 5.937584036482841 5.014652189914464 6.066150060345592 0.20096873594001513 1.5950751202659303 -1.7033884973620534
Ni 8.780955485734102 6.438864008578163 11.076286155474218 1.2678683044305712 1.3782226232161232 0.8509963227278957
Ni 8.260262013161023 8.1261638433549 4.28159747628394 -1.283167910902119 -0.6552296998141103 1.189224943595055
Ni 8.748733752892946 6.149439123142288 0.9611160969297632 -0.2289474805411283 0.43978745284826837 0.7434817873839841
Ni 3.8520501545563377 8.33490341403406 6.449097496203499 2.044458701443066 0.17357260331524946 -0.1999636917142685
Ni 1.4952605524603713 6.789354878408412 13.585996134731078 -1.0046611313756246 -0.2557095791263209 -1.6333524185795738
P 6.0455698786584 3.3613329979016857 9.587289380637873 1.3301753899999091 -2.1211786200036244 0.05798094739015821
P 2.0492797545282815 3.458082399559756 8.769853770231977 0.28467999821674195 0.9919917634380722 -0.8706673187942618
P 7.403354780024711 1.363641697173095 4.811172508376795 -0.9009842246102482 -1.0380142529147736 -1.2268396686240355
P 6.909952478966629 5.092596224844681 2.235063679534079 0.8545292755818187 -0.9921781684172655 -1.574639735229714
P 6.023948384873292 8.355739011896212 10.5788495886783 -0.2146680878039787 1.1654206420866058 1.2271289177296802
P 7.1708418576761614 1.250631734632932 13.635730248388748 -0.8304812334936794 0.26354681578255257 0.6314495666753771
P 6.046795502062055 7.064989161577196 4.939998626366428 0.5003952963383124 0.3355675290952285 0.2828743124665709
P 5.586279203018104 0.7132173907086006 7.199791830942824 0.7631162737854599 1.2236756690737571 -0.5916509466212004
Ni 0.8638175037160095 2.8717572615160876 7.066830403453834 -0.6391045121174735 -0.5884031291078641 0.09923301206140973
Ni 3.9544785898481423 2.7182455912322077 9.627370072708581 1.0371200232352784 1.5731243270264519 -0.3249023360718985
Ni 0.961702712100826 5.023671281220756 6.053237977449518 -0.3844007485478476 -0.29742752769039743 0.25753120571609195
Ni 2.7741751844158395 7.996303897990428 1.583371648098627 2.834988848465105 -1.78160479796248 0.47910321972875547
Ni 5.147515380413085 7.537911389119223 0.8314404628710317 -0.6151451730883987 0.07307795093259672 -0.12625093541115032
Ni 2.7301930804418926 4.594216582941217 13.370093684068415 -0.31434204405754895 2.6601790303086448 -3.9798267813043524
Ni 6.5879409804396545 1.2290476644632033 2.7764832858943276 -0.10827043967332967 -0.6241298930855123 0.09433377498757947
Ni 5.398674619124127 3.378603996399007 7.401125268138517 0.31902582268646346 -2.46041562753064 0.9790604000883848
Ni 0.9967125042877033 8.883786224891228 1.0087956541031369 -3.245831593254565 0.34055032702180055 -2.5048306633109054
Ni 5.791145429505556 2.9838690572871593 1.4408512936515032 1.169855537929508 0.4894753069916989 0.4537032915984121
Ni 1.7108860683692324 0.9604770886971701 12.140763471309102 -0.2772281699243871 0.758131676086675 -0.3306299825842951
Ni -0.060951842367468576 0.7668323332810534 7.992128358104537 -0.07559197560370207 -0.5947326708703177 0.03979244940658954
Ni 5.004772355454457 4.250611658340669 11.67097360037428 0.1611037814242774 0.5152331326820933 -0.710354408702396
Ni 3.0852215636368228 6.195245628365951 6.037257158092381 0.5791659267803122 -2.178028539113133 0.6113713078682633
Ni 6.628180722875721 6.184523762559922 7.991183411816222 0.1489398923682338 -0.16173293036784403 1.1963517844478235
Ni 6.335864863151832 7.959123536111579 2.927903911668917 -0.3183334246051292 -0.40008087828726585 -1.0905164365785478
Ni 1.9692212853291609 1.4872051192500824 0.799815636695168 0.40541180358187595 0.1719499801101619 0.17746911015617825
Ni 2.6922174667362446 4.285200434854535 3.362378987951524 1.2738214366902125 0.3390529165406677 1.8564357270304415
Ni 0.5322190105193683 3.617226323958147 2.2519202114910795 -0.13743266305958265 0.007248196921981065 0.4308641822167096
Ni 5.722566654323886 8.356712025896062 8.328094187215886 -0.18978006631304734 -0.684105502308196 0.2593790575581081
Ni 7.648834985102018 8.522685760101087 6.665780229246811 -1.0589229780429827 1.9482336229700448 0.6013846289691965
Ni 2.1597636230303743 2.7292574900574222 4.926059265228205 -0.9560024898276567 -1.6591686083117294 -0.2515752452429732
Ni 7.843306802418007 9.334244927302125 11.659909308487537 -0.4440369721532417 1.6414547359717344 -0.8665759223337076
Ni 0.30876447427326004 0.27685803539167075 10.197189525189422 -0.3991989899029447 -0.7893726363788276 1.0662261965726154
P 7.21524497732312 5.732858148553059 12.268946838704604 0.41257052611384426 -1.6607539505209785 2.172024756121214
P 0.3663285438585618 8.305656858615519 12.1586744136294 0.7908404791736058 0.3561427821434189 0.23373641728933942
P 2.842454570674479 8.885881947352441 8.890382137101744 0.6645196097564684 -0.8651402183284456 0.5844896529860709
P 9.042771098924261 2.4454180792168345 10.243869871832183 0.6584435787657177 -0.15730189117968393 -1.833574763271868
P 4.490590591957291 6.576723251729857 7.689780162687974 0.28700710368802185 -0.35042310605082233 0.10134157376398031
P 4.424032692006077 3.7430632306693976 4.935767886647853 -0.7220920088542984 -1.1656795521749472 0.09927003594693225
P 9.396695585465514 7.822321510094339 7.93586288797288 0.021701139122517466 0.39175513203038986 -1.3229238506438183
P 3.6113227486321398 5.826594949173135 2.0002782081416512 4.306513205859867 1.1043253174371819 -0.2967204743210438
