# total energy = -340858.50241964374 ev
CRYSTAL
PRIMVEC
9.40318463929593 0.00000000000000 0.00000000000000

0.00000000000000 9.40318463929593 0.00000000000000

0.00000000000000 0.00000000000000 13.76251120808258

PRIMCOORD
 96 1
Ni 8.429127665968673 9.085893106223358 10.29145473856761 1.1416837034809824 0.74287372148634 -0.08089898963891229
Ni 2.6627656535901028 5.2869218305149355 11.352956759281344 -0.5358888612592319 1.0805125312883004 -1.1290323332655587
Ni 6.81340663650856 8.230052841204811 11.77184701345607 0.16311232721387395 0.6998259983672463 1.224701025014478
Ni 4.578382454917102 1.0315481756291698 7.933730279550494 -0.1403081848351648 1.828437956265935 -0.013343511186441536
Ni 4.992724388618618 2.018572271372794 0.7558044838438096 -0.7191208420411164 -1.3433165553675575 -1.7250227878023774
Ni 8.340032490273732 3.938157216672697 0.08281384826863776 1.3430095656501 3.3314318450238884 -1.0065208102921825
Ni 1.5251589569410662 8.847954918805438 0.34250442301479983 -0.013507547568131575 0.7242939016016235 1.043329751590416
Ni 2.491646497147197 4.700971774762478 4.713302170951267 -0.3357405643379831 -1.54861888568592 2.4713279035677695
Ni 0.26776791046351867 3.1307715627735213 1.6041861427028592 -0.8379939969309569 -1.4361917435317393 2.025911277458182
Ni 5.931848661144297 4.479470354322371 0.5809842338754655 0.4456863348312066 -0.038940900039571645 -0.3656795179892605
Ni 6.1587098969032565 5.865057839723594 2.5283659336737134 1.491226206699064 -0.27848415381867525 0.9394384148213887
Ni 2.8177771545221444 5.8043226692947165 9.009311688820219 2.718843891139705 0.3009201142246882 -1.468458316874929
Ni 8.883480150866175 7.817177804327401 0.3755622593919115 -1.5831899387925703 -0.8539592620109615 -0.09496858035810096
Ni 0.5239840084371973 8.90929189305959 2.893801903386904 -1.1143019690339195 0.6965442422921809 -0.1875843442133092
Ni 1.5745068706135779 0.943026594205194 11.123880133190593 -1.9191112516827915 -0.3809971221829374 -0.06962161695288009
Ni 0.32131810740970523 6.02405629099808 12.58577540331815 0.8125873839323942 0.12772597729478002 0.4457902073989226
Ni 2.323837261743301 2.3757710512275394 5.9541577170109194 0.16982033536166882 1.1612989066087485 -0.7510014927997969
Ni 7.436743754906197 2.0539470524772128 13.259037790933172 -1.6388054712743456 -3.7707544424205968 -3.5902038651256167
Ni 6.298036885639081 9.254934158832112 0.6398848429557334 1.2212878855678708 0.248697666584862 0.5723270494816078
Ni 6.05932763707003 -0.09063917863416067 9.709644905069348 0.628824213237388 0.9283772719112205 -0.4802121365222181
Ni 7.177027791561157 2.050496083666654 10.404445287399861 -0.7146784899990466 -0.904018640561198 0.5180315213628369
Ni 4.846551881370296 3.0854764217368427 11.455804092702286 1.629977331459754 0.9212763992003811 0.5917314221501487
Ni 2.3445994937152728 2.0140775490527747 1.260274062928003 0.3022758569216343 -0.3917541035891253 0.35129419580186594
Ni 8.187823138403125 -0.13843744745659048 7.205679295555087 1.4038719483531112 0.760275204792239 0.95495296551722
P 1.4712975145789953 1.885921543823609 3.406359161691701 0.3713241178695476 -0.9632817970978893 0.5342325566027315
P 4.625539426538223 8.557631589034326 11.148555970663804 0.430833071868458 -1.1329334680921779 0.08308339888474078
P -0.28667489408038593 1.6310764301893839 9.332634555222869 0.0861044450992517 0.07170755294763134 0.12211505886590583
P 6.746879104261414 3.8258737873351474 12.395577184977089 -0.28328594608269275 0.24847937992646885 -2.4460207922615487
P 4.793339258757349 5.279878845122269 10.745314496583172 0.5443529328661851 -0.13309161248206755 -1.656891896462411
P 7.676026597746214 5.853049972772412 0.7942672708266681 0.27946708655723485 1.5548263000482125 0.4587976754021841
P 6.244617392961197 2.469492593829278 8.509374444795125 -0.265956967885942 -1.0116247071776514 -0.2972092410320043
P 3.0826836758601783 0.7287646857194432 13.528810460389638 0.25112813040322557 -0.30562857544395106 -1.2822849940765335
Ni 7.598845257154755 8.36006127383365 5.198141661509787 0.7707457653062597 0.5777770168525856 -1.6908924217775716
Ni 5.251377792084658 7.9463117407726385 5.171470468228401 -0.8898505765909319 -0.35806750996995756 -1.1554578744469393
Ni 0.8826600286192963 4.8555319228255645 9.239352141349887 -1.3697012160086732 0.6215451630774715 -0.7523063276541495
Ni 4.310278850757297 6.267363696919619 1.358065303898161 -1.8873568420893303 -0.13232876617411404 -0.2586473215984062
Ni 2.6594651357358625 6.474713324281006 6.30328480305917 0.9819102108323542 -1.0278563385451653 0.5889710857961922
Ni 0.7639673885425724 1.0013263397786643 7.036909994986183 0.612232627427294 -0.2924071916576706 2.8159935383095247
Ni 5.775304441094759 0.526551077879384 3.2164637259002298 0.8632949375895907 -0.6377806510997274 -0.04795955859841417
Ni 6.639522943743299 4.881465906420988 4.721504569026064 0.6314953323116479 -1.1262473143212537 -2.1014482314542327
Ni 4.368230678494281 5.486071880756957 12.896986967737153 0.3487351768254381 -2.20367992113265 -0.43377904187065935
Ni 2.931301804249323 2.499338302288987 12.510123020570282 -0.4915329608516761 1.2458671175691318 0.2900512898309843
Ni 4.559745342703131 3.4353407174710546 9.157505880794073 -1.6811551398851499 0.25014545477498207 0.6519782827563481
Ni 9.052060447421205 6.720503170981804 10.435038549048778 -0.6529195636236947 0.04209152985341138 -1.6498293331886746
Ni 0.3772811615678519 2.019437364371626 13.229475118335039 1.3708520417836652 -0.03290394981687236 -1.3050389999435976
Ni 2.593877921965708 6.871960268070818 13.490798085957259 -0.45016468231753437 -0.5429555382980261 0.818913326150422
Ni 1.5130288485878762 4.830801546880688 0.8132786297944815 0.6350521964249708 2.112615303814646 -0.7443207383455117
Ni 1.5818695642884208 3.1187730990071105 10.503493734173755 -0.09273480593157576 -0.1252078388586166 -0.11503141254624703
Ni 5.048569902967141 3.2521008558597293 2.446341012607271 0.2147616759590495 2.2294997104092316 2.9765625302762544
Ni 2.1948631794391527 0.29285560742965083 5.156868262599201 -0.9177542449797355 0.30205782737355724 -0.9610333673833449
Ni 3.86625106273716 9.037184609115199 1.31487741656842 0.7021636453614875 -0.8203929960197419 1.10336578173739
Ni 3.794401327910243 1.0800686090419291 10.598358704043516 0.42207666583206666 0.38259017770167014 -1.1149642852082668
Ni 2.219809828633736 8.197865739737393 11.604205154741077 1.2340904366491778 0.05846020101942189 1.3895444759868456
Ni 4.1773742372193245 8.10595901179625 8.997241760849557 0.35173411155276196 -1.6037510507733734 0.48384356262721834
Ni 3.167011436876772 3.868442004788551 7.386312594348191 -0.045099977662432005 1.6777517706305558 -0.6401352673748331
Ni 5.706774030491622 4.373703332030371 6.704104957061549 -1.464422970463291 -0.5974726955093 1.1702203774680942
P 1.4517859061814224 6.931040477980191 2.2190256030239253 0.7170089379044361 0.7162586900019728 -1.0039805603688323
P 2.3103530947832436 2.315393201819918 8.52399075520148 0.5198318077963692 -0.3811495886004016 -0.01413206852600792
P 4.622953550726497 4.074503395836459 4.433937312711013 -0.5483587115914685 0.5335406727420295 0.4819178063594151
P 1.6400470684598825 7.208142929964804 9.97475171424298 -0.18755426230632216 -0.6355736161460797 -1.545853150015325
P 4.9788734974525335 7.788479284409623 2.761337358896163 0.6257244912661417 0.3834468692750106 0.8972388986352031
P 7.752615537697167 7.409088988497879 8.204948218506093 0.17940309395409748 0.13992123380939128 1.0855398092995627
P 7.999317493320647 0.4795990956862465 3.5168305973240885 -0.059184223669640004 0.7176098047132287 0.11246853691507727
P 8.553503590920332 3.351426696584337 3.5378326105076927 -0.42929220974389937 0.014395863710355854 0.3272934620118944
Ni 5.043764875549714 0.6442291143194341 12.65699606508396 0.2542612767155686 0.276768199568833 -1.1318134955551216
Ni 2.5919690754574156 8.31490718056852 3.4706026603582347 2.380822758297661 -1.0340210725949803 -1.355888221384981
Ni 2.114465949656383 3.8766980010165355 2.7452353452961615 1.9025960276365879 -0.29546629019896853 0.5776615743206439
Ni 5.019495255658565 7.546958483594366 13.195041596026089 -0.07082900699741995 1.6334449782933804 -0.4620274951933914
Ni 0.33852781617560296 4.289479006046246 5.5684080472392825 -0.6727509965273253 -0.1565786398604142 -0.36095742992324287
Ni 8.401059159430478 3.982389797830375 10.521522460333111 0.6885326848416141 0.6975662557987923 0.6638184699243858
Ni 3.711973010217172 6.227907933625058 3.8672656663738345 1.7105112244497638 1.0629709228601114 -0.6209808059335693
Ni 6.371654419202742 6.818362114882304 9.885281351475722 -0.38988234048770914 0.6059377955575178 0.33256756592664016
Ni 7.279701166063854 2.444771621069173 1.5098985283779716 -1.62931347262351 1.157247105136878 4.851614843966618
Ni 7.862642202689939 2.60472919719019 7.2119277118346945 1.5370064982579723 0.6829510769887787 -0.058446317062350955
Ni 6.045091215328379 8.7211341658136 7.2416135661533145 -1.0836163670246046 -1.8531634840370728 1.0521910586357879
Ni 7.2774349985343045 8.113180657699543 2.5029331398265255 0.6775021380590656 -0.893195324693449 0.17056826927128688
Ni 3.397812607054325 8.641056644313009 6.883058847054748 0.512339356074066 -0.7614293730013403 -0.014202002531994898
Ni 0.21287305809523432 6.434420677541922 6.831298076170276 -1.4042488720765558 -0.8818385049197329 2.433450926016338
Ni 7.526186848437624 5.9776891868976305 11.947648955914392 -1.861320823036885 -1.0897109099581168 1.437772714865614
Ni 9.395145046936307 1.8484028365916498 5.190874880319597 -1.2890896757031929 0.43547494151584354 -2.55339057449748
Ni 0.9060109573584252 7.121041229441085 4.845931271175481 -0.2753944591497579 -0.44895266428730424 -3.7329723385758156
Ni 8.695435261837424 0.8373442005761239 1.1937399484515185 0.881668555000772 -2.445883752463052 0.388714288321537
Ni 2.3910700328481904 9.549498324934456 8.772045829113349 -1.1769152729897665 -0.04539694007756053 0.8879147930207998
Ni 6.431797188991116 1.3058108658132683 6.024855561703522 -0.5204355028186393 -0.39659651928309114 -0.9676159056968691
Ni 3.789135544439091 1.5030990854708464 3.407102013288524 -1.9517030695758837 0.31200311151172716 0.9389025969225766
Ni 7.149645717511166 6.294520094535133 6.376845917514212 -0.05272869785228339 0.5320252645387676 1.3472896810826926
Ni 0.10686437395464829 5.421613049159192 2.8428253581122425 -0.5359217713796963 -0.8526659971208347 0.30583092126274425
Ni 6.585097310295033 4.734484725282454 9.057453173886751 0.8186819268659062 -1.0263391305696905 -0.6312639330271321
P 4.3639428262391995 0.5989377345566634 5.57339079484886 0.47548644891177466 1.116056232720865 -1.0451097263089744
P 3.6674395271468563 3.9215323859994884 0.7596851781983534 -0.17494968616843418 0.2706849694892306 0.20049513873770633
P 4.790189191859428 6.63403148383767 7.012646017005895 -0.17118122026493743 -0.1258614132822155 0.2080382411922869
P 8.907589916616237 4.476451932011227 7.606567152487808 -0.31574406661139814 0.30118108119555875 0.488763625636655
P 8.251454489741137 6.381377312254834 4.353150791078768 -0.8171454356167218 0.42368231975628967 0.2936204952394814
P 1.3990434428069716 4.179000988184519 12.572247041389675 -1.4560046644926086 -1.9588345384143424 -0.1191166383592142
P 1.2787485000454544 8.26103633502168 6.520113780987107 -0.05285982411350897 1.8482668180664041 1.5304141897524355
P 9.636947943294663 9.003775093627693 12.36267168019325 -1.2849314305604451 0.4879645267741274 -0.4070462538615055
