# total energy = -381173.0032678721 ev
CRYSTAL
PRIMVEC
9.26664539298680 0.00000000000000 0.00000000000000
0.00000000000000 9.26664539298680 0.00000000000000
0.00000000000000 0.00000000000000 13.56267221950370
PRIMCOORD
 96 1
Ni 3.513893405521674 6.027925038137417 7.713037632357958 0.2227009854107842 0.7042513811284516 1.2348283432564668
Ni 5.414825244636067 7.283926156773084 7.127875848097973 0.23380506574374574 2.2732501160223046 0.797726921880794
Ni 8.733887430449059 5.899804398722804 1.1287737838384098 -0.18638235348540808 -0.1092338320278635 0.042750760703965086
Ni 5.147204525245496 8.097305957483176 12.267830149976046 -2.2354500144553953 1.1969094567235063 1.333046026679485
Ni 5.446776638003751 3.0462892115754263 2.3997386814793367 0.8718081172669243 -0.7331384964764471 0.21988408478727936
Ni 3.2533709365138304 2.6050393571702726 10.257475908551827 1.0323020330213446 1.1802098845806384 0.7403252440328734
Ni 7.204121806517143 0.07061091134640637 12.917414579778798 -0.3779637346732523 0.8218256147012104 0.3950672271227583
Ni 2.5427767666721683 1.3310238798609466 8.31077147444333 0.997082033476786 0.5635832418507067 -0.360427782672018
Ni 5.584210256053666 8.389427687333189 4.8221676709053405 0.078147137925388 -1.4402967668390487 0.7197044824587283
Ni 2.2278498224724252 4.534855330022214 9.270859878592464 -1.0568951489796765 1.0485154095564135 0.04315236701775794
Ni 0.23103507665421713 0.8266357369666076 8.359732722122416 -0.7752554802511552 -0.49181809619226263 -0.07211404435743064
Ni 8.057746648235309 0.20475301694730788 4.446413539581233 0.41470377040676326 -0.1076340916409114 -0.1821405474899186
Ni 7.393040906455355 1.0038927636585242 2.298507067045873 0.5712692976410548 0.0075263902840322 -1.2671926185197853
Ni 6.80421045727824 2.4031840202421275 -0.0023231480038509796 -0.7279335552367399 0.4407012229117894 1.2610168287263765
Ni 5.49174766817004 8.820187699136191 2.240065114449595 2.228761032470994 2.1020966636715084 1.3771535585216605
Ni 1.0121030114902432 4.086924224277705 11.267122332344341 0.6166598099607121 -0.5495439901488213 0.37605957567200393
Ni 7.625698572720559 2.5992384371447015 7.611886637739547 -0.6714677589395275 0.2161611274097374 1.2790037522221003
Ni 5.807341810839177 2.9459221751585543 9.11033192685608 -0.4578949610822566 -1.079864099071024 0.24938158002576408
Ni 0.5739964032075714 7.773344034010378 4.073101169322202 -0.2937053416438039 -0.3941020349960116 1.200903665484564
Ni 1.0370488209292812 6.129811804401244 12.739757234005248 -0.2650815072595241 -2.314376196638653 0.3890793849704396
Ni 6.078882321237444 3.5333904274606547 11.572458298546533 -0.9022075554943882 0.08083034118450595 -0.3992606963788156
Ni 1.6723514968288242 4.1098035717907 0.09131445051754263 -0.7941685151055743 -1.4269828233389619 -1.0761028322563788
Ni 0.8640878110486344 3.7577729793762815 5.000828594376609 -0.004658067597301655 -0.2575659156087693 0.43854226758725756
Ni 3.9097922972987997 8.356799828850702 0.8402104458251689 -2.111952730529982 -1.0911980360266047 -0.8755899529068598
P 1.434300642936013 8.723573654109664 9.642435679501988 0.36608112430305345 -0.40155540595026323 -0.23529347736381412
Ni 6.893114653325094 0.5866602008225005 6.7476468537062155 -0.8481693948020618 -1.117306045967566 -0.13598796019325612
P 6.7746683917167045 4.754836225368917 -0.022124115912222627 1.3689134300000554 0.6474636827154462 0.48672859748449726
Ni 5.574665611283158 5.917577824615847 11.752638951864755 0.7099162927237129 -0.4670326617174666 -0.24473919615774628
P 1.1335145996292761 0.6576640179342171 4.700795002677022 0.6163139965855192 0.47879623001129806 -1.4407287121701444
P 4.562896199027612 1.3000825508427638 1.3238338896886768 -0.4030597584099317 0.14954410161113602 0.6200302690948418
P 4.257754832378993 5.058003796545577 2.443383654687704 -0.3690062683696484 -3.3868494025622446 -0.5062885218942957
Ni 3.0858855874049245 7.384293193189957 5.752851155844982 -0.29641014216947664 -0.131394941505935 0.5841289272125424
Ni 8.115320316156835 4.721902567587958 11.842572672216468 0.34048887765624586 0.7416498763815679 1.276301522799589
Ni 6.101557802551458 7.013534710405444 0.6929903235595889 0.7712353033481686 -0.339297428451306 -0.11475373340482815
Ni 4.389878662609974 0.6358262413651098 6.433413054583011 -0.744151559757499 -0.43072894219042596 -0.9834806406432675
Ni 4.40535396044177 2.2272474905208886 12.953775969696276 -0.7633535866072466 -0.42386203986726356 -0.9888637593320517
Ni 6.3847464862279075 4.456033244179548 4.568097567095268 1.2950710900976083 -0.16079293505207792 0.5286247234976508
Ni 3.380666844487109 8.9020863112544 4.066685870706063 -0.45751983713102495 0.13045211797669146 -0.29377347587757796
Ni 8.865047529557582 3.022177400223132 9.599184538723472 -1.1927486404775973 -0.8766222508261161 0.923615588856519
Ni 4.475317133274139 4.89606916803622 9.555011366726832 1.2039211121546491 0.6151675416859018 1.2321811354416068
Ni 3.2495623452510354 3.2572443942944833 1.473883118797399 0.08685263611918591 0.3762832616470358 0.7103911754776024
Ni 2.8032714357437873 4.56381359692303 6.335124526731211 -0.9087772382921059 -0.5621418814184899 -0.7949822692561211
Ni 8.811384385998343 9.029252486191963 11.013405287724323 0.3028389285139559 -0.08668217197959265 -0.13874366856152232
Ni 4.542277912994232 6.943923670098588 2.875422463557047 -0.7235948186520699 1.0073597612537102 1.5515795109761408
Ni 1.5561014301821927 7.935612261754432 11.688880724797757 -1.4417712945020458 1.476846026717992 -1.7489667002124845
Ni 3.486325135432098 7.204019873417653 10.456169466066674 1.0420675970485407 -0.715613085998174 -0.28846671895268383
Ni 0.8934816102836376 6.0507858523595965 6.286393091858249 0.04580703103178563 0.038103748850256955 -0.5982116305578536
Ni 5.068734571928343 0.4872856221288526 8.579081632252276 0.8867775940925631 0.08993358903735481 0.01118249897938074
Ni 9.007448069546324 2.4583205604212797 0.8613485906659526 -0.2892290510400051 0.5785599177651971 -0.3327195181234721
Ni 5.9311905267205836 1.2724679475261464 4.29483716730923 -1.4985106561756194 1.3351335053361328 -0.7887725409009835
Ni 9.157827191231581 1.557778693001088 6.170880650186116 0.29759902027125523 1.0979890908065089 -0.663441031980309
Ni 4.043667523511943 0.4323881614012341 10.591117769818094 0.5491027888463446 -0.19827601959920046 0.5144453466734753
Ni 2.1482586050608736 1.1602025384050672 1.0032144452146394 0.9332099174131735 0.6899272511962957 1.1300540896618538
Ni 8.351573440840443 2.3044108468354763 11.748488421386396 -0.2293999946975146 -0.900981910617403 0.12377316329461908
Ni 9.122947537914888 5.274556033091224 3.556878593576973 -1.324948337273015 1.2286834067009935 0.4270890314449935
Ni 6.6916855820857295 5.1348706202071 2.303063476593115 -0.20849461200341513 -0.2617511573347105 -0.6038906832205019
P 3.114130322609304 6.952782583108886 12.694538784406557 1.4706748649102734 0.37855585973129646 1.005937684095203
Ni 1.2238829256506352 1.3852244888538638 10.475509881698255 -0.311778911316063 0.52615954978661 0.2562893628891909
P 8.034756100977415 8.274623217370246 1.2556860526917861 -0.5883946444674318 -0.2101920543104961 0.011716517105979821
Ni 1.197611985918216 6.925529378963191 8.58481861242453 -0.5493997512614731 -1.0536858980137596 -1.0490553412202834
P 6.186329074746228 1.477372010793609 11.033640861302342 -0.3683946029275785 -1.1323770813680756 -0.15230520929604094
P 3.634693395063762 3.3396526719101467 8.127757080959261 -0.2867181116926933 -0.5883416797423093 0.14625437511627068
P 2.060725872534442 7.871718741664474 2.6516107369985686 1.1549027732744173 0.021555357573272555 -1.2926295705356512
Ni 4.105448248448818 3.800742414134387 4.35829700839408 -0.47300841968492735 -0.08829013989666085 -0.6184197300746124
Ni 8.19126047527753 7.206827666976355 12.674968555968851 -0.11917088863591734 -0.14659324651292818 0.1121198953264069
Ni 2.6136573373999554 2.3626887798080283 5.871266837523524 -0.28092593049094844 -1.8115270394432093 0.06667153318562066
Ni 8.233053046068786 2.9974725235647086 3.693902625899844 -0.49692276440867966 -0.45176262293227354 -0.43445627044334206
Ni 0.9368022509027161 7.958306276359264 0.6448046941011737 0.3102347067573948 0.6897146209648574 1.1652051836416901
Ni 7.274418578584209 7.254115358494709 3.3899492431925635 0.37600712516751367 0.12061790549508905 -0.2682637616422477
Ni 7.789356797275853 7.445295519912539 8.647248002539984 -0.361725418437519 -0.19297003400525475 -0.2988439484219499
Ni 7.069681314934095 4.927761095332472 9.769586101142357 0.21306114832817502 0.7680119113148645 -0.4397583993825458
Ni 0.6678665945287123 1.3783115713793013 2.6813270154937796 -0.47436030572713145 -0.4597075888109632 1.6193316788204501
Ni 4.706946201899026 5.744189622381881 5.5388731933937505 0.25878307584532206 0.3222489576094515 -0.588349135941477
Ni 7.391289510473194 0.5770543961922974 9.349943283835643 -1.1657404873198698 1.1775788747156946 -0.32591097984207096
Ni 9.083592094866002 6.492119106573425 10.513553167757328 -0.04408824856846601 0.04680796149247422 0.48608762146638873
Ni 2.785952075475748 0.24149804598468438 12.64902287549026 1.215683909117532 -0.2862398865046941 -0.700745167747406
Ni 3.1379919345355756 8.213074158568578 8.3163453616564 0.8232790593182854 1.238853662365776 -0.5669303039460688
Ni 8.77873799422504 8.283509930316768 6.458476550418734 -0.895945119524444 -1.0470599080568097 0.058075049765861274
Ni 0.7160420306771785 3.51338374002422 7.734602042887521 1.6100394548852464 -1.2626996157454382 -2.7664368104273196
Ni 2.2523878995135003 5.297083248078706 3.7851114366597325 0.7209578952498552 0.7548897721106096 1.4411904822979116
Ni 0.42540018409886465 0.7127134516465312 13.06890940557121 -0.3640862053602117 -0.002009574230861055 -0.9262882505926756
Ni 2.1742793453672697 5.995297179654931 1.6163994918537457 0.3927547769394978 -0.24232441606866653 -1.3003305387243347
Ni 8.196848262458712 4.587591809040626 6.570206347435216 0.2251551033782316 1.3500613302905586 -1.1059093740948502
Ni 3.27665801642479 4.979997175498838 11.9671460397688 -0.41018865614522904 -0.64364405185904 -1.232137169577549
Ni 1.0140953402530193 3.791253369236328 2.3082722579770985 0.313538317209331 -0.3502367010716291 0.5199259101720723
Ni 4.714183451962877 4.56162666860668 0.14815327345819182 -0.022865848854579974 0.3963887741476593 0.9684821103519062
Ni 5.011679836149682 3.2825145363228105 6.521204326516333 0.5120596200501182 -1.1542234878192057 -0.6001821240206631
Ni 6.123278819388421 5.005517516953188 7.590309253906412 -0.15051083639977952 0.6352514569199705 -0.007446428975716208
P 6.830555530173926 6.678248946243751 5.614119280773369 0.9659917398298848 -0.8662496493425403 -0.4110630883303824
Ni 6.7765402540891735 8.02178279740585 10.878876763009897 0.18872231447249435 -0.8324640682516632 -1.847471061637986
P -0.07586417262834941 4.99341527805 8.923112329685743 -0.347425199764763 1.9589278694590972 0.027455010887159167
Ni 3.2271370633630436 1.8478246942796506 3.443629993378077 -0.48990108167520785 -0.31873965890461237 -0.5080787810254992
P 2.097885120621568 2.194962497918508 12.193968499420421 0.1345111185374135 1.9297129384580378 1.4732058588622434
P 5.592995035900698 6.91652219962636 9.302921545040505 -0.030625181085024676 -0.5614019179286718 0.3610692729107588
P 7.140636018825147 2.438369472857294 5.52213670512189 0.4308371856335161 1.0714383369011742 0.1148079836815313
Ni 1.6344601837544461 9.145484019547778 6.554866342626381 1.3917098590692807 -0.5451453468604934 0.5243672337728775
