# total energy = -381165.1839832472 ev
CRYSTAL
PRIMVEC
9.29683680572264 0.00000000000000 0.00000000000000

0.00000000000000 9.29683680572264 0.00000000000000

0.00000000000000 0.00000000000000 13.60686040384585

PRIMCOORD
 96 1
Ni 5.46845504298148 3.90322104681951 3.0762116541858737 -0.14781991983117768 0.3719820631685206 -0.952920251357907
Ni 3.938446760528409 9.065466184171532 8.356966356162191 -1.9243401041818986 -0.29461268394942164 0.5365941148563727
Ni 7.505968336164322 7.90188341771808 7.8241758093686915 -1.6226422312509217 -2.7926561491351647 -2.350422805849565
Ni 9.171338558865896 6.917255458122006 2.959083599473731 -0.46968346907675246 0.33646947208420763 0.9166949504772858
Ni 8.96948564357225 0.5025014532955859 0.3184622065259897 -0.9394520416681434 1.5860397495365395 -2.9497160995073717
Ni 1.179982386137405 5.558671544916334 11.625402192021149 0.7667605554062666 1.2579608155088722 -1.0347731202696566
Ni -0.0005373571529095752 -0.11236528534474549 7.49806044699019 -0.016083535825423913 2.228759489809097 0.34686752748908
Ni 7.181108976404474 1.1334889065232046 1.874073047169332 0.1528022035371175 -0.4727703355321923 0.7125354755141148
Ni 2.374161041695103 0.9758517458876551 2.4752371784104694 0.4160656837512964 1.470553508841061 0.48945139573229896
Ni 1.1988828548547952 3.448140897426366 0.9078305115454718 0.9928805938009287 0.44725342220801034 -0.30440678722170805
Ni 4.306796721695023 6.855189777277294 9.086987431113926 0.16201575171558552 0.12317589603025238 -1.6505196743874802
Ni 0.2952229041881339 3.165758783888729 11.09723775109768 -2.7489805626240855 2.080942398191397 0.8283806422109088
Ni 0.14914264107476258 0.40997561716033926 11.236694947848893 2.5162201360947694 -0.8737593274560242 0.14069822118473188
Ni 8.321105668516548 6.912346728420686 9.679988010175654 1.8282523226176899 -1.708979618296586 -0.2524913292993393
Ni 5.972445849493262 8.454134102789613 2.774533956377236 0.8000193174593964 1.3762726985786038 2.4920404535247727
Ni 4.538055531013806 4.707862250700543 0.7469459659010761 0.8623433723095987 0.5210782786089606 -0.5130047575722068
Ni 5.183321065823407 2.0842949747302644 12.17956802542312 -0.98763657179317 0.37570064967068845 -0.6867956475458494
Ni 7.572282671314912 3.1945975708839796 5.346964912557483 0.4315918044113535 -0.8198805751596976 0.5589128329582309
Ni 9.372698741822099 8.720060815623963 5.222993456456815 -0.17263877864707045 -1.8028174274843534 -0.4229505837965877
Ni 3.490004552435913 4.857801630668115 3.7425670627216916 -1.8165576598885813 -0.4207769731840366 0.008402365131082303
Ni 3.0910958895112755 1.9826619575052218 0.016980671968673686 0.6425533898980224 -0.02491707495665386 0.6910981315759454
Ni 5.635110135075893 6.2517414132944635 12.226158192137499 0.1936997130824277 0.12966510329902184 0.3814771471431495
Ni 3.092406743465605 1.0087625472942277 11.340610338448318 0.09996397669016333 1.9648609471140805 -0.7744692369044339
Ni 2.8411783292255457 8.437334719133773 1.3123842136266266 1.1603751092428982 -1.7132638474942368 -0.2003447292027711
P 3.862063951388183 2.549443598113046 6.537987292104579 -0.28088376439910334 -0.3946270542615462 1.1344866715119106
Ni 6.095889245277576 0.5835931101511874 10.623719185763955 0.5379089770130542 -0.3583634439438215 0.7030005394404861
P 7.921592711215801 1.9872638916002086 7.4846981038089275 -0.7213039657353643 -0.31472410998731604 -0.298888171396324
Ni 8.675575452705758 5.020068615908317 1.7480190996802256 0.6612378536814032 -0.5258505031866234 0.0010011875710047274
P 6.424569604861747 6.069030684468652 6.325040461749221 1.0748759018278133 -0.2422359701199183 1.8347803535441949
P 3.251698741008039 -0.11369659233949723 4.1948181847509876 -0.03459085060099204 1.9212216131575752 -1.662486359831053
P 0.19817229770131134 4.614103654038034 9.167472004542452 -0.44065725704773134 -0.3533685618323914 0.05689619896641168
Ni 3.959587766855682 4.3330509881278365 8.33867854897381 0.67854317772907 -1.1529073401109435 0.9236739528982801
Ni 7.132839801008168 3.12192419952941 9.763833390019002 -0.35927207180101994 -0.6562725392563278 0.5321967571196253
Ni 0.7407830929484158 4.747457477590541 6.583121574214362 -1.7440384096729318 -0.3426172368531583 0.17229836458851616
Ni 0.30278309167509004 6.877474294500897 7.21390821577238 -0.11205896018148444 -0.251830812897205 -0.47124515713691745
Ni 8.118276585384573 5.548891272859917 4.811630751282391 0.9160668299749837 -0.39447407362344966 0.9265461322397527
Ni 3.530390010433131 6.053309733853253 6.908787899387231 0.1833278829298004 0.1865849564145174 0.12752388858630295
Ni 6.628765322967386 3.9158368540253625 12.287376001488346 0.3353297020528096 0.4723188498170704 -0.018833330656419175
Ni 0.9547851142528264 1.2996233757705073 4.376972962750778 1.1911373301264194 -0.28546109935714065 0.45012662999074743
Ni 4.669624361947652 0.5119544767052477 5.599236431859073 -0.2327043764803992 0.446678780651463 1.0234224711435278
Ni 8.246814647601315 3.009153572110843 0.49558460689827233 -0.8126424055400455 -0.2043116842703191 -0.43903617650454063
Ni 8.057698398388746 9.190545823189618 9.519386088362545 -0.43592437034843634 1.262345060619497 1.2165876518787242
Ni 7.769924119648901 7.670382890648853 0.9061580106491322 -0.5518016758347464 -0.3859138427582644 1.0156597964789733
Ni 4.191302121165686 6.520726785355584 2.462732933243283 -0.9250988582702647 0.5808294305256643 -0.5416162506613124
Ni 2.0573713360654526 0.7642232069558711 6.6717975903319635 2.6407540888148135 -0.46087204143270954 -0.42660823515383306
Ni 5.1458269239949574 6.162640531746273 4.743664368275885 -1.3722779755969141 0.46984262036243596 -0.1439277838656231
Ni 2.6448849221921065 4.032530746470362 12.351205292227641 1.2902122193434102 -0.8799248328367878 1.5838021184552722
Ni 7.173783069198717 7.621444343020548 4.909096926363246 -0.5175769503239215 1.006571203914144 -0.06602104408581533
Ni 3.2678101587587705 2.396241028514484 4.395654955809113 0.2324963742346512 -0.8352346890182648 -0.7078925774254647
Ni 6.245066284647594 7.58384793598999 10.255558880063074 -0.08021610463927475 -0.06928660221096454 -0.1617421863392247
Ni 5.115658689372267 7.87840890541537 6.920313187665119 1.0022797756276416 -2.1431749217690577 -1.7886169676142551
Ni 5.781721247556584 1.798937873494858 3.900066630176219 0.6535237728665971 -0.7437741218134223 -0.14655776528930242
Ni 3.3563532301136285 3.2112296114818215 2.0167683320928353 -0.04690874873639663 -0.524228137091852 0.3625368585952208
Ni -0.13235069488816614 2.031823629210859 9.216184639042456 0.931263335209764 -0.4627857135156547 -1.1371652467853384
Ni 0.5230920868987715 9.026995874504754 2.0290550312846225 0.5581345600313098 -1.4927084476715453 1.7930768031578217
Ni 4.665617425392219 0.8631536337942217 1.9111925264845926 -0.4474781366243068 0.06298328570075605 -0.15765593208499298
P 4.690095996042928 3.9705766276643173 11.026169013732595 0.5871857117609952 -0.5587351697297861 -0.37020517377375595
Ni 3.097501409898035 6.383068526477866 13.192558773982801 -0.19398433420238204 0.6864174382708244 0.5969859856808687
P 1.822245042739569 8.151494182397478 7.8992180146776105 1.797174113155647 0.21591481572688623 0.2975216300661005
Ni 1.6864182606632907 8.154515654278025 10.101991874471535 0.25910266396826986 -0.4059342517442493 0.12542638262732592
P 1.1074019831483901 2.1194835010929416 12.66980974035293 0.18909666709277753 -0.7355442777044623 1.4171043878829852
P 1.758756945901862 5.958760906083523 1.8894621007196992 1.2440930563878447 -0.4955852765441787 0.32658075221558597
P 7.557203202421843 4.0696158274903675 3.343273510763655 0.646597478060409 -0.7086790778825022 -0.20323207805289514
Ni 5.792579952653443 2.551340152770374 0.8099255257791961 -0.6966486290805292 1.6838157174364485 -0.3950057777572036
Ni 2.005513581758712 9.226264269235962 12.968534762871531 0.09461428234247576 0.5834779238921047 1.0459471346086051
Ni 1.8225518383459016 3.2843957151738343 7.918593551742989 1.1174505419652303 -0.5667912072650432 0.9321233692172141
Ni 7.631866096799297 8.312561875722018 12.282178140170148 1.0851312610072346 -0.5444310944022882 -1.7748911333877304
Ni 6.13357862067369 5.227983068636167 9.344742224615967 -0.4931740959995249 0.31726821656540843 0.6568816335952363
Ni 2.1943323322015056 3.328239596369709 10.230317968814813 2.96292565621911 0.29437151447289306 -1.7716703124575874
Ni 4.62045339340546 1.7603560017894126 9.419757469098874 -0.8391767043851484 1.3184987249929292 0.8297548968506162
Ni 7.0495866296534055 0.544508279588088 5.798413717592037 1.1202342753579544 0.574838503049552 -0.013226783102919156
Ni 6.523264821735243 6.257626310834113 2.8931318409488083 1.4440431212553582 -1.458747003124436 -1.1264956828866342
Ni 5.457085011874069 7.5662769149000395 0.8755593324939196 0.16099116710581304 -1.5318046423420588 -0.7607367178096898
Ni 8.30767173969381 5.856244689385705 11.717166617242496 -1.8788706589951902 -0.21547001487998374 1.3643463794546633
Ni 2.001106881231391 5.80589302260096 9.01855899533061 -0.31775389795257536 0.0965274402047886 -0.5874978436847753
Ni 5.3346642681108625 3.7581625060435915 5.453629377726378 -0.8263353296461059 0.6959001809502788 0.3275731980358423
Ni 2.7758308650767325 7.795481123340051 5.6540310568337055 -0.21091067764407545 0.07614219168021726 2.9906053815225655
Ni 4.100174529248392 8.35162718292835 10.940065432289906 0.20055813076515783 -0.6999201007429494 0.15189846077592548
Ni 5.843424351775631 2.5528276466192583 7.615106689540644 -0.10605543429988187 0.9719772679893582 -0.8892399395901267
Ni 0.5285530486914892 3.5979222311724937 4.367651954420205 0.3153458027317149 1.0783615463835687 -0.07999216155392676
Ni 6.338824881310104 0.45037316104507935 13.414540270102824 -1.1164418981950577 -0.4460372904127221 0.05094872313372516
Ni 2.715048147676684 4.198711699900443 5.761429972090488 0.47275696579575355 -0.023777047814939698 0.2768337626994458
Ni 2.074059157682627 7.480978439503061 3.5975317640371616 -0.14905970577554972 -0.6674766355022634 -2.16724199002059
Ni 9.319241931627808 2.160157161023381 2.561165049642257 -0.7143874411211891 0.6975050635435537 -1.412489000598161
Ni 6.072963246331641 0.23362020580388776 8.07236508773875 0.8116964966870086 1.886472639712164 0.8903696823191957
Ni 2.253441619021559 1.0564088346413136 9.155035626282121 -1.2540853917138661 0.5821016123698686 -0.05269964438656085
Ni 7.777482447768547 4.4407734332967514 7.650239434883988 -0.1400112224200363 0.30044188903668906 -0.14248179544771591
Ni 0.48328117340068527 2.236800281587162 6.428275323912782 -2.23270150517598 0.9600267804957014 -0.4243680329694046
P 7.252081026669382 5.396330184983686 0.22038987770171448 -0.764020016546652 0.6824900781919601 -1.2103838370608573
Ni 0.5584842139820148 6.88262474195266 0.4081367028896556 0.40625821074257135 -0.210197967847767 0.12999523294493096
P 0.9121117047792928 7.757020110509828 12.159661638990421 -1.8253066097258048 -1.7281027122792818 -2.4144823553336354
Ni 3.5942034965502816 5.7647359271696335 10.862355964573208 -0.3768460761290413 -0.40237070276270703 0.7164934317205983
P 1.0318558892981617 6.187379413820537 5.0495191347489214 -0.1849818735934556 0.49809750144307124 -0.09499583405161059
P 4.3571669821528785 8.429543970100239 13.067497728637827 -1.3450919021004255 0.8827617880649506 -1.165430926499251
P 8.333860928270735 0.35419366814350983 3.464279276003109 -0.5130595220695422 -0.7421913507073348 1.6248186700769502
Ni 7.979019270619304 1.7564141430898685 11.993929722765973 -2.687718373379494 0.7776797734219317 0.6048975272184615
