# total energy = -340895.47426213516 ev
CRYSTAL
PRIMVEC
9.01187044579312 0.00000000000000 0.00000000000000
0.00000000000000 9.01187044579312 0.00000000000000
0.00000000000000 0.00000000000000 13.18978333124888
PRIMCOORD
 96 1
Ni 6.318582809039824 1.9536112880584064 11.194749073452883 -0.0069736031043557325 0.07484609857661303 0.9994271366701949
Ni 4.770938258553979 0.1949997528029846 6.019685202448123 -0.8100563899804243 0.48674685231694237 -0.3798537526071135
Ni 2.6387026873880925 1.4455310470354206 4.794182575864868 0.7285213094194098 -0.025213523151150125 0.6082453606447719
Ni 3.3171343144955694 4.470320285903794 4.9079583407939955 -0.2539134064578466 -0.9749584621048691 0.4330087393635382
Ni 4.96093552210047 4.698131357629438 2.6027399173881585 -0.14354906036996568 0.4279264397446243 -0.12913494182716467
Ni 7.189913521961113 6.299775035524597 2.457481183232655 0.2918073532901426 -0.2944288500733897 -0.7390450917688691
Ni 5.005868707892 4.675682788474464 11.417986620952853 -0.12443265125548893 -0.14146415281647895 0.3401800881665754
Ni 5.6123946211144755 8.029315178071455 12.255260574462838 0.08300755134148285 -0.3568917444943015 0.3729300289040868
Ni 1.6484242971177474 6.2134052696549595 0.7201097253121821 1.1733039014894244 1.1580068661210379 -0.9335783564961858
Ni 2.853131131576548 1.6260568347963327 0.4183562569921755 -0.19716684569542173 -1.0540337682714815 0.14790322357360333
Ni 0.561240363298487 8.998109269319137 4.678772057646013 0.1879520119653731 -0.703538414221827 0.4364825568447515
Ni 8.54478515281868 2.2189297643697583 1.326061582390471 0.5148670075919262 0.5892369378630691 0.6499183149035259
Ni 7.049914115368374 0.577550947527145 4.78380270354343 -1.3236481304043528 0.7371571307175369 -1.0165897644924105
Ni 0.7992150224560773 7.519306396783851 2.657952042552695 -0.4318836246201594 -0.3228966184957794 -0.037810900200186494
Ni 7.516891215517881 4.118559948759642 3.540375466743699 0.8654240681174514 -0.6671758164323929 0.6606534419328428
Ni 7.516521728831669 3.9391245973165745 12.685748611381317 0.026738958656741047 -0.5379593706350154 -1.1604571274337432
Ni 8.038101751706984 8.89166105620852 6.790127125105727 -0.3382376197282239 -0.011346278250754653 0.7733256102182939
Ni 6.976539466608922 0.7689585687905179 0.30922160531668536 -1.8259362728900037 -0.08984591441955495 -0.3030309899201039
Ni 1.7692013841570715 6.374970082103923 9.276348064216393 1.1904914690123045 0.15273972573029823 -0.956188637696534
Ni -0.03992438822575837 4.558618592038051 1.363085049535946 0.07902774075812842 0.8344957539697113 0.9437972060107165
Ni 6.165912712671133 2.0414680125432874 6.918727416835308 1.3175916397976275 0.2340470065512227 -0.26479225815387947
Ni 3.44548137266704 4.2819541708988735 0.46466825895420255 -0.3874241087552037 1.0196270086568375 -0.0621384212019575
Ni 5.8976834022220626 5.608879991660265 4.691236375589908 0.6839928879897317 0.863769563233164 0.31249547776711345
Ni 5.4083658753623265 2.9949959953411387 9.11760937432343 -1.1551547413842234 -0.7937954480368716 -0.46992798098739075
P 0.12120695325718532 5.564136055147039 12.500590722237163 -0.0809342137522219 -1.2057211414778655 0.0011865641089334402
P 3.9465413666519993 6.276686623571549 12.60468413361346 0.20054733213188042 -0.9654230118106083 0.3208153104867184
P 2.3973377625877483 8.396512849202951 1.410304546846791 -0.12164043322233244 0.19908823108785068 -0.6522667605310444
P 6.470865394981511 7.757706416224106 5.750837677689927 -0.6100536174981042 -1.1046263936173686 0.19991021276851376
P 4.625162243037779 1.0058328785728283 12.581470456661917 0.9427219706686667 -0.17926708259686547 -0.6806849066624213
P 3.9576079434975666 6.0842291194071105 8.22111301332295 -0.5884699777900575 0.20920192248308486 0.055741516536678186
P 4.70144772593495 1.1652618777380785 3.8930568170422633 0.3533575060887979 -0.06223252357766056 0.3634184898692257
P 0.37256063520380556 5.475612452252898 3.4476640476768092 -0.5539570316148523 0.2980461351110028 0.18030555116370883
Ni 1.666357919204619 1.1046390255881358 2.5366459587211603 -0.5298835356054165 0.22937376944526952 0.007063591715000738
Ni 1.8110975696253464 6.320547396786024 4.963856269295624 -0.19868148256773524 1.0734461113598224 -0.47422018060484133
Ni 5.897800556537203 5.466095917115341 8.987175166968383 0.054480133325751336 1.1812483531474818 1.2646518543758027
Ni 8.567296805066421 2.3175376502363667 10.196322149971003 0.02107121884800242 0.746618790351069 -0.1450140749512664
Ni 2.3942557029125173 5.093112625189991 7.036920800632268 -0.6771264998872016 0.2912640791921629 0.4391395348516243
Ni 0.2506678786095294 -0.03056826438124067 9.186090577458176 1.1742027591546103 0.4714045655329171 0.5359132867392642
Ni 1.4645370816993464 1.0832989164917977 11.4006027229601 0.3186674109057802 0.25421499685866544 -0.44773601827138376
Ni 4.074140439580651 6.891566540650573 1.7582375426340122 -0.41979172645263185 0.1812350049565137 -1.1207176427522765
Ni 5.827093421414793 7.663162883905828 7.871266797450783 -0.6137845452954461 0.2258629280785336 0.06587192010246075
Ni 5.215809240623539 3.245796348445481 4.623889766937947 0.9087764669611574 -1.7011521518323671 0.3726328093786421
Ni 0.7878979156135177 7.493352210045062 7.183023947043821 0.8568772069887048 -1.1949114524568711 -0.38847209040374386
Ni 5.168001268175873 4.754816022416585 6.84336114471847 -0.49944038862421086 -1.040242370914344 -0.018557708397529328
Ni 8.334916715050303 6.9099417443868205 9.128754354441437 -1.3279105052251323 -0.06035844648339928 -0.20883734005481452
Ni 4.552436448946797 0.3022770579899801 10.44595186111098 -0.12077782811172104 0.28945453678724986 -0.9072664580745342
Ni 8.096237327627792 7.039144930245856 4.474489177148713 0.3627150360442979 0.10544248330623131 0.8960695609174502
Ni 7.36758254680668 5.90493795789037 6.8122990298395605 -0.541893415582099 0.9857375549982442 -0.10507867220890936
Ni 2.4492100885837456 5.038888201020792 2.7160533733660013 -0.6597810666302185 0.5558447355558686 -0.5381475753864216
Ni 2.2750016219700178 5.245908887744218 11.524744842405074 0.09439008214681163 -0.23693024163628873 0.11406827730202936
Ni 1.1410650057263947 3.273552909263352 3.807653123679014 -0.5857250680550686 -0.08858993052526679 0.1977142335584595
Ni 3.6313241639612457 2.781135298987594 2.685492318481077 0.49160623729177266 -0.9627125548579807 0.3365059817490979
Ni 1.3104611335489715 3.29575815791765 8.244274421426201 -1.7326566501985514 0.28338699043693133 -0.021245796752653732
Ni 3.7437923064959993 2.7641118758106593 7.054872446459931 -0.04461146806178769 -0.13831840809864565 -0.004175728644244422
Ni 4.11787504660959 6.842010265346197 6.0397600449409445 -0.25810636149327165 0.23163016957961396 0.2385109558598473
Ni 0.7591644680447831 7.189886486349927 11.292749559254839 -0.5798364704847756 0.8965670693791591 0.39327362555744527
P 0.13376769821431186 5.310244630497071 7.891196548830239 1.952517337947063 0.8940507307152086 0.18169420398111932
P 8.445654578469137 1.6515604280153513 8.088595261532483 -0.15461714525866918 0.6787200696265666 -1.0660706448313575
P 1.6574812268651373 3.1636982091432686 10.386730354807524 0.9619227119668338 0.3195696110050754 0.8268721759861825
P 3.943324128920837 6.269792542719058 3.886857551397259 -0.19538275721180542 -0.3833265416470624 -0.31015577389034327
P 6.77243862589361 3.995403727935928 10.357884258858848 1.6061120948063823 0.10303953029169352 1.2366383998820123
P 6.391362674353178 7.647986894159954 10.061812774823148 -0.3459311317177397 0.689192172802484 -0.025226378666956557
P 2.3873886576712122 8.353859666621462 5.83625488885877 -0.16277448425848096 0.5522693594997844 1.1503850879097222
P 6.640793223157418 4.069454266975036 1.5513295042905288 1.2354749757015302 -0.4821895719635631 -0.7227741225229874
Ni 5.263752391127135 2.866540794724923 0.25807653726159835 0.7402555671372025 -0.20473797317446027 0.5612808189697753
Ni 1.313786513724879 1.0023272609890126 7.127851474109024 0.8335529304404676 0.03237970188228617 -0.37181905522809516
Ni 6.83825231539131 0.6078263261205347 9.041412207756135 -1.1618334389559797 0.047190027422241314 0.7417838308562709
Ni 2.82949299552938 1.6457027122583328 9.158049241535808 -0.5559645489631844 -0.6801981968339897 0.7806887354515845
Ni 6.433871667008342 1.9903076243085278 2.6242521532090484 -0.290920322699499 0.7584234962954809 0.14939343496588464
Ni 4.1456496311682525 6.907130040823452 10.38671683700193 -0.09291555448381418 -0.4728389839865985 -0.6488597917320245
Ni 8.176325819831828 7.262558209218538 0.2486591326983918 -0.7450321625902394 -0.21851188703010108 0.3416736419929664
Ni 7.534779778252776 3.881358508081978 8.256303466029998 0.87131960766628 -1.312685203634946 -0.643740211117272
Ni 3.050058523457112 8.237967013336451 12.251805423353236 -0.5387235024945496 0.31570112918860466 1.2523758652219268
Ni 0.10595976973518619 4.876557379588219 10.216370858039678 -0.36456031678315276 -1.3313341861947008 0.3382988119834625
Ni 8.606300180137769 2.149150851898076 5.7117432827275865 0.247745844194554 0.9667828682726124 0.26840440098517004
Ni 3.6045859444980555 2.720584541800815 11.519627001207517 -0.306808197574349 -0.11536411329531744 -0.6268717174967074
Ni 1.1624501741747095 3.2146603362293287 12.599039097997775 -0.7167050335107721 0.7761291411053601 0.23722231895541082
Ni 3.1936536663376214 8.31068379555704 8.126423488704267 0.08723367360768848 -0.20881908522236942 -0.009446233014564376
Ni 5.57048041190541 7.828918216088659 3.604082180942952 -0.12415342945217328 0.6565656450167144 0.7957343169307972
Ni 2.9706909808847097 8.26685005795375 3.7084657745459806 0.7838573629875533 -0.021677999194065895 -0.38163089911219433
Ni 3.3879856395443055 4.24893467777008 9.47737405475279 0.10653314526724877 0.48108039805978436 -0.520362997709491
Ni 7.211614105873268 6.106173023819941 11.261291823265571 -0.036681671691749726 -0.6106812237797741 0.6878600842546218
Ni 0.4159960481356168 0.17596037421859567 0.2952613168871511 1.8167124402988906 -0.7821627488939497 0.9723097116281125
Ni 4.780617007358652 0.3400755459894606 1.8251227435217272 -2.159633581545713 1.6853038719462008 -0.6054721687750089
Ni 6.010007354830489 5.838412330631432 0.306224257223171 -0.7478094682250604 0.09644413646236294 0.15346374838051635
Ni 7.938394417652136 8.812383632340072 11.374935113699888 -0.28979932172117834 -0.2583696424569873 -0.6943451777583332
Ni 0.054583096610937056 4.707098168672873 5.663020605434786 0.5944778745470343 -0.6120973874010104 -0.19071414809154252
Ni 7.729994914758211 8.930772573724612 2.443538918543912 1.1705474217902099 -0.9452105414184753 0.2885533651292192
P 8.687560215493207 1.5404981372622821 3.504209028472828 -0.5936718337059711 1.0597678425417811 0.21206536007380897
P 1.8168651666784106 3.1915539005354905 1.594539620462455 -0.40695935057465393 -0.16786346874561411 -0.24692746205831667
P 4.66600403966979 1.0602735876315177 8.261380753810775 1.0783214371742527 -0.43503913953000567 -0.8902658097514797
P 8.529311771349755 1.6794161194075725 12.300712843989142 -0.9078202736954752 0.7293587177190406 -0.03836420160049522
P 6.16933722342139 7.950650561389896 1.3662896706485548 1.283465644648196 -2.6897333469269933 -1.1152766742423632
P 1.818334101552863 2.9803697296893836 6.132682341775087 -0.3653074793618225 0.7867827641644642 -1.3844236098205125
P 7.000556101212697 3.8562964965123343 5.815639334142223 -0.37323804706280883 0.058175579899467554 -0.0470244483786545
P 2.1779888371633978 8.44920525540493 10.206913801246733 1.0884924641699836 -0.12771877820592842 -1.133119615961055
