# total energy = -340861.9441469042 ev
CRYSTAL
PRIMVEC
9.32535719591226 0.00000000000000 0.00000000000000
0.00000000000000 9.32535719591226 0.00000000000000
0.00000000000000 0.00000000000000 13.64860287777021
PRIMCOORD
 96 1
Ni 4.541915170855164 6.945815046962783 6.2235307039582 0.5976763268796739 1.3407832474227426 -0.559594689516604
Ni 8.96889531557176 5.78942414097388 6.726127352092599 1.1733802632533148 -0.19423861630503322 -0.2701712630776057
Ni 6.353477689940815 4.262713979570074 9.222279255752216 1.1928273162343328 -0.7136683035669774 -2.987676895021861
Ni 3.4132485514958746 6.3155794387256305 4.096982800824657 0.050111314834094346 1.0810707177846157 -0.24492971490199755
Ni 2.272813331488562 1.9335941419699758 1.4248595437987086 -0.21267496863334986 0.45472581932565553 2.4059511779341727
Ni 6.965006631854724 6.512820066543632 7.673053019653759 -2.232460849920084 -0.1617326732575279 0.05730449014842389
Ni 0.1437158757265172 1.8282082814919258 0.015204994735816334 0.47929219581111 1.2015832080500919 -0.5476735125989859
Ni 6.248893810172536 2.3255668765486743 11.300183298695364 0.4679335762651812 0.1647210664618905 -0.3975665965058443
Ni 4.529232685212288 4.887354373553015 7.113269551698496 0.6480162127848065 0.5403787787097855 -1.4560195768909439
Ni 2.548265729223332 4.191505552828158 4.415472654067104 -0.19233162909030746 -0.783704896570089 0.13921957975667637
Ni 0.8733178264398974 7.416176733242967 11.660669897594206 -0.3160052906925848 0.7199744482906634 -0.2572578974500473
Ni 7.362761087829439 1.8155351212061397 8.745027995653682 -0.6901367961039404 1.3057252273773448 -0.738952532055063
Ni 0.9004051911802382 0.03662720504376928 4.644606003134103 -0.8558377099805969 -1.3621671124151573 -0.9385138461245901
Ni 1.5050939836683748 3.9640880694657823 9.518794837546961 1.678723904735838 0.7272131321309476 -0.7576025430560823
Ni 7.33642627940629 6.951941806571143 10.30044999900297 -1.84362417708807 -0.7967768992626988 -0.6730212194695764
Ni 4.682336397921661 5.503154329014303 2.189932355276655 -0.396398287229356 -0.43007716753903996 -0.4536955782889283
Ni 5.7755200335521675 8.196196227065325 11.775127465449748 -1.3054341784994872 -0.0965670351934724 0.02740564570646248
Ni 8.814821765724991 4.8952716017227225 2.8853009201113586 -0.07680142253077096 0.21203862060093157 0.5615991215411424
Ni 8.876229242164948 5.417426321282712 11.094580623174446 1.3038254392514708 -1.4515725968631839 0.11624754434153527
Ni 8.953321969230876 3.1323408198632494 10.177449471516955 -5.963145935123621 -2.117207036950386 -4.439853701127948
Ni 2.6341709187396405 1.4031305292424832 5.424855833276594 0.9816950094977543 0.4546777396965395 -0.8848531233763405
Ni 4.700520844247844 5.984044343449494 9.565910271710248 2.500273382957526 2.557841668290298 0.9852343901095808
Ni 8.067347768147954 2.4861122242161464 1.9270188326855695 0.3113305109247348 0.50833640556226 0.41038585975769964
Ni 7.61772567603671 9.156605428443424 9.675167087916503 -1.0637633368544195 -0.08250310090123855 -2.1902122256635184
P 1.9259286984417077 0.383387810841322 13.492435802816098 0.8695429753818315 -0.8201399994686714 1.1601311115528923
P 6.3043517087888485 5.250707587221428 5.761348288381962 -0.25935643185028884 0.3504750423346803 0.303621058095619
P 2.4075274400157642 6.079797110053211 7.605792949103897 0.9359080330706269 0.01691554480841603 -0.19668964894868704
P 1.583669442511667 8.672917806881129 9.726103120879705 -2.026863356958806 -0.2055820663423105 -1.368682802046488
P -0.0356694908705903 4.151555723053097 5.210750297160695 0.31165858368811483 0.41307471944377244 -0.16961027623339175
P 8.175671116109465 1.257421824705758 11.126600169279873 -0.058390781234067185 0.8937691949190479 0.7012925556104438
P 0.6293552945278222 3.3944206555304572 11.709027469321926 4.043504779079288 0.9966225773418642 5.835448497073931
P 1.7331455913128937 5.385375068963178 2.7124004068348806 0.05470356219046708 -2.816114637268421 0.14239232105770316
Ni 0.5552243008737908 0.549587122512674 2.068923724065141 -0.1063577960316491 -0.17457893309257677 1.8620013940436773
Ni 7.89584512589932 0.8751110926083717 3.848196261689744 1.4395771150642047 -0.5013075237399366 0.8592531634200491
Ni 0.7972145197612568 6.64792584006863 4.4805086269509165 -0.3984181458728622 -0.15248004431100837 0.014030509951137126
Ni 6.164974921716472 8.498253868578866 3.9101334184124332 -2.0892012957660793 -0.10305135736623543 -0.9663416669701358
Ni 4.089420868760092 0.5529619692436718 7.139706939049639 2.2209646763550266 -0.018399842663426376 0.4889999100171772
Ni 2.195720604422635 0.6977875624639407 8.147888079730183 -0.37339308458343434 0.4788569080459043 1.442133562937471
Ni 3.5359516000907054 2.8294438962115778 7.18750405681623 -0.26992803671854804 -1.0996199415417125 -0.11142903990696938
Ni 5.143596535681663 1.4640437617566522 4.302681527523607 -0.0727467928454231 -0.3003984373932633 -0.5441932673598693
Ni 0.6028628875698459 2.8367083493849607 3.5488690847322584 0.41385942012859694 -0.8154690763555633 -0.6493531864286751
Ni 0.6262415577953543 4.137586338131752 0.8818365401419325 0.16376513030652443 0.168992954364367 -0.04956855495674689
Ni 4.572800753538405 0.8593158027687362 12.30710924631155 -0.3711112305277931 0.8912384580773941 0.8527508435251571
Ni 9.142281679952646 8.93775794824708 0.18159640876322955 -0.08392337828753288 -1.3300440066283674 -1.2393424290767365
Ni 6.93911011521482 1.5730105593573966 13.774579144263196 -1.5733775806878387 -1.4122177492146455 -1.2545548751511169
Ni 3.7841459790503813 7.812112744585064 8.570872289312844 -1.5488631404862423 1.1790451748485757 -1.1974028514201571
Ni 5.186922144723431 4.129501253534419 4.162154923921989 -1.148189365809984 -0.2158569659057573 -0.2197825262124086
Ni 6.14654801610594 4.7931496162262945 11.198978928336627 -0.26510876095303376 1.112723054582574 3.855183556699954
Ni 7.909087132967618 3.5634800542214196 13.29087287198672 0.3855960544075295 0.9263782392033206 -1.5109162289288236
Ni 2.792217070706899 5.196322104670504 0.48804629346632455 1.417805784825384 -0.544598730328404 1.3451654356508382
Ni 3.057290346000109 8.726809045506263 11.080740860716658 2.0330247485745114 -0.5982674234964535 1.6087739579092615
Ni 9.041763655875759 7.727680961489032 8.645283976215293 1.4211255932272364 -1.3025748546738212 0.06626581310676975
Ni 7.3079186627810895 0.025474077963710203 1.9143801762210177 0.37026456625678167 -0.5196585154432986 -0.9444878043198379
Ni 1.62472898978048 7.300458377108809 2.2212963287786303 0.5307052601757635 2.4624339435122495 -0.6451185795220374
Ni 8.120110638565157 3.693736642059434 7.315241865704142 0.17388293546681666 -0.6840941894542863 0.02353150746303689
Ni 2.6123309324340394 2.908839986478821 13.183567853019477 -0.6070536543295159 0.537682719934861 -3.1043111332788538
P 6.358578660269236 8.49041124326588 0.2131310362999585 0.224056213887098 1.0312589364688112 -2.428336230497592
P 5.88230469759377 1.8887018729370288 2.1479757086557503 2.16723401960079 0.8807812672998121 0.20640996156024452
P 4.34086047198721 7.663140165066716 2.443400223670924 -0.5126890261040008 0.03581263882323509 -0.329538035071697
P 4.145727374871628 6.766852119041867 11.459694464261517 -0.31812876479349084 0.4022010099540622 0.6031437777521483
P 7.331586419076398 1.4720076167118112 5.798485590458574 0.5958436445463093 -0.6729996222030216 1.4403489602332227
P -0.006603285355677122 7.824636699157405 6.31045888514732 -0.2376241823795198 -0.7327901119980927 -0.5810068366437929
P 8.351276915477854 7.80828002282093 3.658521296079144 -0.14479501696192482 0.34540534112125676 -1.1556946730480935
P 4.185789108931774 8.928572471513085 5.322968846778844 -0.245590488414448 -0.47401397813130625 -1.6236308204164358
Ni 5.2568343468297885 6.073110829019431 13.322824342985388 -0.3486361893537286 -0.5746287010315911 -0.07397783703904678
Ni 6.420797442776054 9.212520269557166 7.176557952663576 0.7819660595021113 0.5984031777433694 0.16701500470238978
Ni 7.228196185015683 7.633140491307059 5.627046360638155 0.9471797493297043 -1.3489765818668122 0.04921245716890879
Ni 3.202598060181949 1.7444012973209468 10.173737046859287 -0.4625424871565969 1.3641674306746379 0.2719764346071445
Ni 3.799336985750562 4.251047957850045 9.033996565955206 -2.4260860010108347 -3.266353624467316 1.8360322236734252
Ni 4.605980374065872 3.4757657454295834 0.7807869707108955 0.7618014116287783 -0.6021230497971178 0.5326312735538827
Ni 3.3778774720521754 7.64594420659211 13.87394082406088 -0.5272599819396403 1.1253679970400943 0.05218413820272303
Ni 0.4081363760234029 1.9921946859257376 5.784782910750014 -1.0029482624495758 2.170841791556706 0.7374047279519688
Ni 4.239074199346035 0.8234775229348106 1.502861493180945 0.7224830736451299 -1.2131914817129816 -1.189362240503868
Ni 2.1947414419281484 6.496603270563512 9.744829370452837 -0.31704350214911203 -0.43960104786907517 0.4577036710070569
Ni 4.945954917508777 0.43604716979482167 9.599444255807148 1.1129907064216638 0.8692395852087996 -0.022365255069077612
Ni 6.6724049024308 5.847371909933318 3.61814902762789 0.6660311613049884 0.22132467388854787 1.233356900917263
Ni 6.366784974508745 7.090497962219569 1.7299740373664656 0.3676237861998249 -0.4876454528718117 -0.005915851263802715
Ni 7.80054930179303 6.649585753630711 12.758467719913018 -0.8641331172201699 -1.2331782092475536 0.9088389447679767
Ni 1.289510378453654 1.0373340720163984 11.597804867841026 -0.9292604458471221 0.31287677236593214 -1.102601906988172
Ni 2.1807440809355327 8.092852619790063 6.466722028838904 0.8471067578655024 -0.14948008114241998 -0.4131739640257981
Ni 8.013885495948976 8.550363963999743 11.699227451555675 1.8391802823841037 1.8773573076744572 2.2367736183628253
Ni 1.7537639558396587 4.2010360677744965 6.704793732677004 -1.1225747505656731 0.14060411880902882 0.48054509438160464
Ni 7.428458228530959 3.060022675627582 4.266238964550226 0.2380854382866545 1.8645920375889888 -0.03550102112008724
Ni 0.2089523437877725 0.28257230787325277 7.2329810257387415 -1.7722251565197928 0.7409711051469885 0.7444832320653049
Ni 3.017545674081036 9.191659445746051 3.2580578238696813 -0.15147834251937137 0.0926954680532081 1.200579706486242
Ni 5.8351370414307775 2.9342422591929354 6.14345479515907 -0.23596993460554844 0.3443283060069941 1.7064015731567646
Ni 8.833910771688938 6.8725363909468085 1.1899584613713274 0.213257066389065 -0.9238598436568412 0.9290964094654321
Ni 2.9036830640078573 5.025854577058899 11.674605711230024 -0.3723738992903006 -0.7716093988581356 -0.25088233294100665
P 4.549412757955807 3.5093463563119354 12.21574499275455 0.12372019856949659 -0.46411548807067166 -0.11427679376840963
P 3.672241693966176 2.7398365399304003 3.1792921277417454 -0.9700183444907745 -0.04570213002280516 -0.36054862452059844
P 1.2293991266492554 6.183914721966973 13.309517058417457 -1.63676761490871 0.7062673831172159 0.626644946197882
P 5.861779586637908 7.981330674346562 8.885185315114521 0.47248417175034113 -0.4906107061477228 0.3041273083080762
P 5.243116746549883 2.6123309324340394 8.543684210715925 -0.5861909519478936 -1.8142058718269531 -0.10217821073266274
P 8.201856718819169 5.485594681613174 9.031280089434787 1.8728974721308904 -1.6109290565790515 -0.6507251270755373
P 0.6640372300825446 2.268337160085194 8.245243875217733 -0.36571474210257016 1.1724132713543551 -0.6362379892029559
P 7.069926224478256 5.123341860081422 0.7064871880935286 -0.17396829609177136 1.126496968438215 1.0561006781028393
