# total energy = -340867.90379195 ev
CRYSTAL
PRIMVEC
9.27980740265108 0.00000000000000 0.00000000000000
0.00000000000000 9.27980740265108 0.00000000000000
0.00000000000000 0.00000000000000 13.58193615108756
PRIMCOORD
 96 1
Ni 4.73586603715374 8.540494151635354 6.381106238101889 0.8901691362726153 0.8995773169603926 -0.9108973699589022
Ni 6.287069312815664 6.304932941490454 10.079018426851373 -0.6125331893868483 -0.1664781583623133 -0.12390094712173501
Ni 6.400876867136508 9.186043932810295 7.820736536993562 0.4738733387883839 0.7523086416469946 0.8605238026023567
Ni 8.74310945993944 2.0487679729527732 3.628102055869117 0.7180165532333441 -0.9346672186849903 -0.2699290651598126
Ni 3.426318218281532 6.588468167739561 5.691429118187021 1.1569205750353946 -1.3068637118571622 0.3557126365845357
Ni 5.855641800753505 8.985089709977787 1.3697654151493917 0.44849192260080184 -1.8144172165068106 -0.6058619480142597
Ni 1.90952446736045 6.369473999897292 8.366336299795742 0.08081979966154468 -0.4308459273842644 -0.21908678569696463
Ni 0.6982126864889308 8.44172916462975 12.272814009164263 -0.012302985737069136 0.4972017291016792 -0.7245422701670038
Ni 1.7137669365060642 0.22382987532405177 10.33559488548327 1.4006156461993426 -0.7725483657326373 0.30019480602288945
Ni 1.8942684644818242 4.434021751488862 3.714754110662149 0.5896634838775264 -0.2225109808871652 -2.779219049793652
Ni 5.063461787531627 0.544643014689781 3.226144427226454 0.01780874604664675 0.7274288476861793 0.840557643893075
Ni 7.8027494868842915 6.983667312868535 2.420695217826871 -1.5716081474922416 1.0787564678291421 0.3716822725399147
Ni 4.338820210411111 3.874365864866574 0.29008955400651143 1.3001001678810835 -1.1976555908609114 -0.7847521068876808
Ni 1.3601970060446773 2.8481027174516704 5.252935960996038 -2.411832319305298 -1.6898125584498316 0.9021527909970528
Ni 8.373225628589594 2.7878118106983663 5.967019901574576 -0.09954848641929953 0.941350801352753 -0.7168590425901331
Ni 8.921207517875319 8.250490899834908 0.7787688359954845 -0.5265624416519835 1.533287140424856 -0.6062535270257237
Ni 5.127520295969068 4.947408519891667 2.3233528252502773 0.7572328184214894 -0.29656903634484405 0.004247205312128169
Ni 3.1279631400876773 0.6370012228709312 1.8178065658694609 -0.17684150387450837 -2.160596459679615 0.021726593043814194
Ni 3.7807326111893635 7.521524932604027 1.0650249016874216 -0.3659790515075504 0.3271155416731334 1.5613191068614078
Ni 2.1772469023047036 2.959237687326623 1.0179605039991453 3.0525242305145492 -1.7119279022916325 1.7407509971709119
Ni 8.989089306839519 6.284582324511848 7.499211636422972 -1.1921634573980886 0.2712680956862102 1.1215383388813587
Ni 6.701171425015053 4.6409985691317255 11.8034487897004 -0.11962674522641331 0.21821183929117902 -0.9803073851216084
Ni 6.529699149351278 1.3910802040860801 4.828758762224068 -0.7956517845193201 0.13486490233240642 0.3665356953419687
Ni 8.68182561382603 5.565155998983661 10.000488059235579 -0.10397618317334996 -0.6474040331221044 -0.8822740497952547
P 4.527441569602685 2.5702003341145625 2.43568953014517 0.8389967271638583 0.8677648004354861 -1.8588728757170245
P 2.514976202039926 7.112285439327024 2.81992179923889 0.13859145925437422 -0.23304324787705671 -0.05321772167355996
P 4.548237617322271 5.3616405493905095 4.391718822825538 1.7915390263570565 -2.0090561535740563 0.018017776733659296
P 8.745958360720302 4.046302130885539 11.689510390099393 -1.382439232400632 0.16448941006705864 -0.8162684323284071
P 7.75907871465387 1.8381163516968093 7.776351219616148 1.063847926148426 -1.1734504543696178 1.7838686542959923
P 1.0195631266859693 0.5062338930872069 4.8974154150814355 -1.4789242494032595 1.4402224619576873 -0.5832555234686535
P 2.7010734536992698 4.447941462144542 12.47279385225087 0.30922400610469325 1.7821439582954017 0.11311876890456647
P 7.861564904308093 0.14552407904016632 12.021059338303493 -0.15985679639105374 -1.5992570195577618 -0.3673648761114835
Ni 5.765172961298686 2.2516338360486596 7.246261726407236 -1.9979780413830235 0.34547193269313403 -1.883437709540582
Ni 2.8587280965855064 6.056605303393115 10.536444246495503 0.04945594063828257 0.8154189398439183 1.0313255280406883
Ni 2.866885047029735 2.610734531543904 7.541804095067934 0.7254084748220411 1.1460152409768005 0.2981687767317962
Ni 2.394969736573753 2.3851980996934654 12.089742902601461 0.029610623777581262 -0.779736141730328 0.23687470580800493
Ni 6.431778624792117 1.7358992764485959 11.744327138642172 -0.24496519612562329 0.42186994913789927 0.08003818430051378
Ni 4.824311878659933 4.827819645745165 7.154311829738654 -0.040873855396226386 -2.468342852797517 1.163729627537428
Ni 7.7063415708830485 5.090345388711298 3.7156913711796307 0.5217801897719917 -0.2548629148553095 0.8272097618312593
Ni 8.35693956712245 7.177773038058447 5.38212757953354 -0.4574601875376831 0.6466453005792089 -1.3789134786355606
Ni 0.7358951991952785 4.006556717060019 8.079078942917308 0.057365682403662493 0.2954341514094525 -0.708150973293174
Ni 2.901331690998992 1.954160339529665 3.5503994470469777 -0.8860024064894354 0.9323881928428264 1.9489370767949725
Ni 1.6216648510009783 7.8365187049349725 5.531936145513525 -2.6041467220044248 1.1148254456375575 1.080751900992616
Ni 0.6503409455826249 5.88359257975011 2.523740979849453 -0.8360913805916051 0.8034154876251389 -0.3232025797719724
Ni 5.646075916928684 8.526212528502628 12.325891721855792 -0.3918029545491898 -0.4853638559264866 1.1657798251982374
Ni 1.0836309149305143 3.610086238357825 10.448419708231823 1.1518665575512548 0.15475907015317217 -0.6337954411997343
Ni 1.4850104115906118 6.864728025219298 0.39487620784176336 0.1603476199845432 0.46277851442680296 1.6940170834494828
Ni 3.740504647394447 0.6408068717641942 8.43874199472304 0.6826613136625018 -1.2021982159262714 0.8391931594453805
Ni 6.707760088058741 8.630962991090174 10.295772449258788 -0.22902281386375398 0.8802089397361099 -1.4266537221343172
Ni 8.113734382546399 0.36893914698667885 6.110702866885352 1.6272622465214361 -1.1500277045703031 0.037741480414831774
Ni 0.9268058867993564 5.984278486826199 12.055923573592422 -0.49951443639525583 -1.6401840967894268 -0.8533511961133173
Ni 7.33397075122939 4.059943447328105 7.850100630612074 0.09290655562274967 1.1055759020148315 -0.5765577997335039
Ni 4.494247699592439 3.322115264313108 11.155563281077436 0.4507547504930495 1.1989966782698385 0.05439862935553857
Ni 6.27382702807856 3.808878266135149 5.113463244168252 -0.9093989310365047 0.7245317286440425 0.6590506162220973
Ni 0.06826597297829838 1.5880812290923736 12.484868737254317 0.556921513559815 -0.01733823416813143 -0.3998235108608211
Ni 4.563707055764284 6.8609140244996425 8.33623910141603 0.07743802767350534 0.7091416193412174 1.097352999884407
P 4.333233766534631 1.7593957480353846 5.508452665656681 1.114822360313764 -0.04087719783033605 -0.561674197753452
P 0.8332348078297412 7.192360894825601 10.21417232145306 0.13300676607774511 1.1242086866246703 -0.3790898778578955
P 0.5950871181252567 3.6323670552140177 2.1951392983815152 -1.5714196856305194 -0.42558185077184774 0.5028756395580048
P 8.491162697071623 6.232763881644303 0.3976740696835552 0.44703436421866877 -1.140137956260417 -0.3826061185412701
P 6.377361835935511 3.2897844163635144 -0.2117206550343202 -0.46259210944760976 -0.8501545435528907 0.91012912433431
P 7.876811627379615 0.30078360371291557 2.185414988517457 0.5106974495952689 0.0696082472164414 1.0738672580576407
P 2.726249570371844 4.696055664678494 7.021697818341275 -1.909760406595511 0.9402948492844128 0.9786585366642758
P 2.909368003950872 7.980151559287387 7.372084774966063 -0.9352061219075958 1.3755494472593341 0.4821083251036664
Ni 2.937244544490648 5.256398257026461 1.3160037806743123 -1.2528741450145844 0.6992469859353247 0.8693887091921543
Ni 4.531088533794473 5.8809663943397394 12.334557205729308 0.17147149781184662 0.7670788579776338 0.34026519168121394
Ni 3.9848976472797806 0.9991197116363265 11.13194431603688 1.2662482523286451 -2.01068366187515 -0.49213691298426215
Ni 5.019763175879894 7.193140398622319 3.4954063821692256 -0.6273705115099969 0.49191682655365604 -1.2745583148562372
Ni 3.0100353514127525 8.27132406678291 12.722824334951754 0.802929806237972 0.29870947972661455 -2.1660705954203086
Ni 1.2364322187014705 5.6059314713977 5.473533679505842 -0.9532061580294422 -1.0567928190738574 1.312237831684882
Ni 5.963640195827376 6.340363245012712 6.1080952410891864 1.703099762477041 1.743792097990081 -1.3729950562685966
Ni 0.7567107345097829 1.5774372903443297 7.462418129237167 -1.5688529533446076 0.2774647114152254 0.7152353909437811
Ni 0.723605022667023 0.9887727267156042 1.5682242978516903 -1.0022304104469448 2.4154604029761884 -0.8682479107194918
Ni 0.9846988913970416 8.640530472214179 3.013478159848258 -0.46711185169483427 -1.0836796161623725 0.8477703595914302
Ni 0.5581887491191789 8.570625685301351 8.11767830056551 0.9946135173316355 -1.2874472550037632 -0.6720588555563072
Ni 2.598577984237943 0.8274330724284538 6.302303044157241 0.07272313869633927 -2.1209950432379086 -0.3867396810936694
Ni 8.9287612808578 0.5763149963350059 9.731416340338432 -2.3906597989927407 0.9085383828084225 0.26336169635494
Ni 6.756432676318105 3.003149734541743 2.870243409220596 -1.9110421015214119 -1.8474160400303345 1.0003259943353806
Ni 8.076596594517044 2.8409943852101693 9.819005655648947 0.8682090870617564 0.5315498675642459 0.8909371247868914
Ni 7.7401943071976635 4.170011239386122 1.3930855704012086 1.8828293865326218 1.6908749382760748 -1.9145395731517092
Ni 6.019142722115126 1.997376401212001 9.48827240248927 -1.2341719406193907 -0.4758785421438707 -0.06341728791438112
Ni 3.3123529072399243 3.7460354124283035 5.2176773339052005 3.9758158603727463 0.20633899911299305 1.0524129448386068
Ni 3.271280480998563 8.894305357081441 4.3669454497812685 0.0036429960692259842 -0.8408906017524616 -1.3260942779520002
Ni 7.276584424099571 1.2759085181209802 0.377601846918064 0.6792101218891077 0.7337661027581169 -0.3442689135239684
Ni 8.010208854496552 7.100026814142921 11.722554855215268 -0.494541922881329 0.19614611774039123 1.204072550130849
Ni 3.2054959284398175 4.248871040154104 9.200335763730838 0.49884029314636674 -0.23415936375937094 -0.6068497658488259
Ni 4.53620170750866 1.2850491281182101 0.15362906256461384 0.5379007494829382 0.9864538643389784 -1.0976599896018646
Ni 0.7050760318228915 3.6831368798788358 13.278882440359904 -1.6828834354301663 1.9057155471021758 0.10712578454592518
P 2.6205804068810217 2.0796047719586572 9.766810452612987 0.5321214237969997 0.8307337158241178 -0.54715389265009
P 2.1190532319568556 0.7491337720095409 13.536164164331687 -0.5374531204225583 -0.1200095824871288 -1.076702670623907
P 6.3808881626349505 8.381447537683549 4.528489259824702 1.4841037367216698 0.3819093495845616 1.5308633614747118
P 7.047271110757891 7.207988089988377 8.189390793902154 -0.0277278049325716 -0.4885422536544683 0.2998451359929546
P 8.45885968854334 5.02193465074218 5.877528225807786 -1.2619023166551235 -0.9972604680361791 -0.5863403330415644
P 5.633511058110155 4.324566426699694 9.247872503600696 -0.7886748389808547 -0.2628042811895732 0.7025657658959127
P 4.182789533768037 7.825921165222447 10.680562434759445 0.9280062617250469 0.36329816224127753 0.16483290944940646
P 5.64827523121228 6.927589438540352 0.4708137973527624 1.367242984276168 -0.6836558163652872 -0.23944272364549726
