# total energy = -381179.68939809053 ev
CRYSTAL
PRIMVEC
9.15808377695115 0.00000000000000 0.00000000000000
0.00000000000000 9.15808377695115 0.00000000000000
0.00000000000000 0.00000000000000 13.40378132086422
PRIMCOORD
 96 1
Ni 0.3916976481814046 1.2285843953098727 7.2742988088112455 -0.32347897336181064 0.1725181939088061 -0.07018340299362105
Ni 7.8540824314811495 1.1728666144099653 12.092984785414135 0.5149251145233712 1.7022021903634363 -0.7324440415125837
Ni 5.68715162775816 7.532716118272956 12.812312876017334 -1.281752261501515 -0.9797533123903515 -0.8100049679171986
Ni 0.6140394345463174 1.5340705914765735 3.3750450504681893 -1.4378909856110331 -0.3768082809125704 -0.32982754128765773
Ni 4.619273284261497 0.2605932701359077 8.22682559394123 0.1295720293645833 -1.4886959840780425 0.8951843300990197
Ni 3.27073630936139 7.992076435853241 11.822751716432855 0.5148374399055714 0.15829305144835965 -0.30572242070933797
Ni 3.0581313975284923 2.0374171848067357 2.1171410503668873 -1.1338102142701765 0.30995857027787266 -0.11056643479635796
Ni 6.547782538354607 1.1234587531418854 6.974054699723293 1.3249501370452277 0.3867571645951662 0.7043848213825225
Ni 3.05285634134862 7.667120153855967 9.401238092870575 1.4251784231403715 0.3622859189266793 -0.6655902171128278
Ni 0.634304442037329 1.8934337937304135 0.7222156343766586 0.27891507070850674 -0.7441183925267185 -0.4562425130804981
Ni 5.464729250257165 4.884921816569783 12.836264927984068 1.929021568817968 -1.1780270179967065 -0.34008058647423367
Ni 6.878957159147252 5.042019583426622 6.069165518292693 -0.5563324738255645 0.7215021977890993 0.18780237376138625
Ni 5.479089125413486 4.582009041907499 3.3282124423212553 1.106578375137417 0.877248057335573 0.5459148780366663
Ni 2.836643144559351 1.072420752984886 4.924200837325816 -1.1776886608206814 0.15874453716348144 -2.6247194039494537
Ni 8.411040446472727 1.2202047487741372 9.496069133212528 0.3016492790812289 -0.7858098587282337 -0.6068664780193742
Ni 0.6583966126838423 3.218205541570156 8.854859496106407 1.0567352263630445 0.012330496540894893 1.1354518636386575
Ni 3.3916321715671223 5.723463429413014 13.043568225194521 -2.0694050869757583 0.5287303958375797 0.541731436082938
Ni 4.48214929783574 8.367795975498145 5.586575721545312 -1.0939768843233224 1.1930085790072034 1.52302149683279
Ni 6.618849267444562 2.7731593087279642 5.216926159740719 -2.045584844627709 0.7027259456228607 0.7497761050331282
Ni 6.477402665538075 8.344278016696212 2.0711793759746513 0.43105984316728335 0.3719743498590368 -1.0870693585702116
Ni 4.036672635062203 2.971404345404541 4.223598280352803 0.20427106084037078 -0.9473581838890974 -0.8593971451970812
Ni 5.664851694081093 0.6716740023532515 12.95869476920044 -1.0311488932535078 0.7328675022032476 -0.5169948525682064
Ni 0.10904255454321604 7.078328640112239 1.6646419690538958 0.05486297058646681 0.6942027386431979 0.717426485057829
Ni 0.7685271475641572 7.796917673365234 8.259597796267053 0.7710609825538334 0.7249731870568352 -0.9452845891895205
P 4.569874581077063 6.265741036320675 11.333017698633533 0.8933447057871194 0.20669021180482466 -1.0845265375436999
Ni 5.748364258845434 3.5038919608950425 7.691665649642938 -0.5247115044861738 -0.9685389317317709 0.381318252967782
P 8.56660881336075 0.16456160502801356 1.3922109599976693 0.5270267828829116 -0.1476044613862619 1.3870610474433593
Ni 2.5350216596910986 7.796963463783463 4.327075467464581 -0.2685707513597052 -0.5735403530634188 -0.47982852793055425
P 1.439137896406153 5.863444737936203 8.981860136870305 1.867242073617326 -0.8487412081451319 1.4137526978019328
P 0.5612952834061405 2.3043112164908246 11.136491634257238 0.4178729121633642 0.47600863996383175 -0.5297629508671522
P 1.8869956609275482 3.6781886088383424 1.148232285211632 0.003067583181730201 0.1260521891367829 0.37117910765125106
Ni 4.4817829744899145 1.5186117462827795 6.340176108575486 0.05207306654615548 2.109066153010806 -0.5218138712234045
Ni 0.37199311540950447 4.726413704831519 11.062569414686582 0.9187271504159662 0.41027915897650635 -0.3879103043630029
Ni 2.7759799984908127 5.232919837019418 10.680869646421092 0.013147336015235423 0.5138143979576958 -0.36772868720880536
Ni 6.726878022128208 7.968796587226093 5.094375431820225 0.42020233162748927 -0.26742841022514585 0.5083436046511116
Ni 5.738867326104934 0.7465587365150615 4.061894913230585 -0.6220892085063995 0.2090612831401625 0.5982687090480342
Ni 7.973888481733053 8.362722397158475 10.814143574482236 -0.476108912987122 -1.2615382484474853 -1.1019187648782185
Ni 3.2095603106086976 5.2791315270951795 3.6890693280176947 -0.06868470696090752 1.0962556530551701 2.152197951203274
Ni 4.914703904585315 3.9117746903033384 10.216737051453078 1.4305152619722525 -0.24679067937013627 1.2001097088283588
Ni 1.7386896543704968 4.9046116964078506 5.810043036390271 0.20463744304085404 -0.16241478692621705 -0.07787717209345298
Ni 1.1804311915012415 7.309927417426136 10.599026600305345 -1.0767070414992812 -0.7559688641074013 1.1183486282994675
Ni 2.7746429182785537 1.0915519897205708 12.856210318355847 0.12317821002309753 -0.19196653244140488 -0.3566737149462244
Ni 9.275581858785852 5.297768227314001 7.553862133410675 -0.5678499875468608 0.029279979911039897 -0.7915282492692497
Ni 2.430170760032479 2.683693989593974 7.086525124975063 -0.5754049170759832 -0.2043080847258933 -0.6982308859659847
Ni 4.998115730429555 7.288250233436972 3.5911007282187537 -1.069016357723243 -0.6640508976501661 -1.6552710730295364
Ni 5.236326644135586 6.021577368244996 9.16630943634313 -0.053109478230469825 -0.4596517958723632 0.9493690436715392
Ni 8.264556898561153 3.291103887389233 7.144040637694603 -1.2768411973531428 -1.112253314035007 -0.8502758996221034
Ni 3.4369646856129052 4.444289780044777 8.38553976256152 -0.8552134461330368 0.5317668686710584 -0.2856565031973984
Ni 8.665873281995545 6.604562656957405 5.592151162868761 -0.166949441571777 -0.018078968988897895 -0.572745110855633
Ni 7.598874114528861 6.026238832820614 0.4917167429085985 -0.792568517608306 -0.7844780272906877 0.4938713791768656
Ni 7.103733164145169 2.8067236852891346 2.9350925437496866 -0.1084092792440391 -0.30281013215854946 1.4685755591790837
Ni 1.597783379399101 8.08772346144802 -0.02975736118968916 -0.7701896356924736 -0.9628580792969094 0.5940978654997962
Ni 1.580474601308893 3.514753448098739 3.4908133016407428 0.9307488574671907 1.1306546993603304 0.44718014576791376
Ni 0.8021895156203355 0.1340148170280726 11.601602312558603 0.6313480081005062 1.9410311916843344 0.3378784366165923
Ni 7.7026718345682355 8.216733385763764 13.198971746576921 1.6802889352301125 0.9835582879587385 0.1759858407424324
Ni 5.601367858249706 8.15478810798484 10.529715475850255 -0.6067325235446712 0.09526451433196496 -0.7227576674627552
P 8.89451399829191 6.66629729881248 12.142337698180343 1.275165866533249 0.48372503477148304 0.1659287136167465
Ni 7.263266981251741 5.777624336093167 11.241228057870288 -1.5594805109907723 -0.01602285779081757 -1.3337988456851095
P 3.97443429860662 2.2566067587808285 8.766581980421254 1.5810929470542254 -0.4377953621189041 -1.4668603762601897
Ni 3.9994083927082054 0.7890531604390688 10.60028675261498 -0.8175159315822631 -0.05729960505241744 0.2853513132521537
P 0.6009571120585597 2.446426358503442 5.416762871354905 0.41703061876772696 0.02332093411412758 0.2593839426541146
P 1.4331118773673397 7.1890681875549864 6.146598947133077 1.0824863671852194 0.1731648263538695 0.3598338578417609
P 7.148168185993681 4.739757032703178 8.684684901611998 0.17440821184266736 0.10647375278422307 -0.21805757310150187
Ni 2.5446559636862833 6.849376548971923 2.0117470763480836 0.521904888275314 -0.726638233464084 -0.5236239278489497
Ni 7.266866108124466 1.9754352746932293 0.8876582470513801 1.0172070863614353 -0.06022706311185757 -0.9944829052910421
Ni 4.328073698581952 2.9151462375695423 13.553903352154649 0.43551916449021766 -0.8995924864690442 -0.7803187537066755
Ni 2.836093659540614 2.888935802175799 10.295927000736691 -2.4857021700115705 -0.415387169627033 0.6177270748829619
Ni 2.4841027146214922 0.1842450742075288 6.9505037718202365 0.1153743977079626 -1.7398343988939136 1.1383914058829556
Ni 8.006115778081965 8.517411588016518 7.030645245994627 1.0831245149898507 -0.5442194926121144 -0.7528935676161873
Ni 7.849869713004168 6.728993539450345 8.808938117282212 -0.4727022012984181 0.20188944798207165 0.8996163977284443
Ni 1.6945843235332265 9.043873184468207 2.22335192544688 0.2934243200682753 -0.1759516450703873 -0.2950088909465758
Ni 7.725438830511228 3.3848460315857234 10.225771500969474 -0.23403826480047435 0.45451164643232045 0.7276445632414114
Ni 2.1576261907390473 3.38479108308385 12.394423108609477 -0.8495035402324531 0.6621891618510789 0.5501376578687622
Ni 8.37333661610374 8.351723538700094 3.5331025844910884 1.1267162835378723 0.2695516272157357 -1.6144226715546066
Ni 8.01672999702723 3.919531587151172 12.745306841215843 -0.27996253813641464 -1.0064611606988407 0.33577193179655074
Ni 6.130805831886218 1.7158860260929214 10.082069263061074 -0.7846050397868551 -0.994636400149771 -0.05667791230801851
Ni 8.450108831304911 4.046874740243416 4.5432117363512265 0.9941183228627717 0.25771478248180774 0.011128762923309866
Ni 5.813002013216168 7.143992099851281 7.340942183500369 0.8179843865782493 0.8564002673522864 -0.3783828244885419
Ni 1.6958664552436122 0.7267378960808621 9.388155770382816 0.585205705216489 0.05653058809687683 -0.08921573703472377
Ni 5.305607546914645 1.4204737219363943 1.89116625221976 0.21828588706222404 1.0185569155211105 -0.8711640559250222
Ni 0.6262086960946075 9.089773499700017 5.16709061596639 2.5818087206288567 -1.6083880353247526 1.2968101842759021
Ni 0.8210258620626316 5.784978277260594 3.66592043998668 0.034956718580843024 0.8222321061110097 -0.4750545035806786
Ni 7.951670970808798 0.9576882810726508 4.904041147796729 -1.411923100792362 1.7289763731334868 0.8520792713794293
Ni 0.8743753625317835 5.3669392330893135 0.16121798868900036 0.5356695461595742 0.746442926894837 -0.42062116433246266
Ni 7.451941820518653 6.253624891657529 3.45349777401833 -0.4077908453370138 -1.0279350143019006 -0.6240447895708737
Ni 3.7628734083093227 4.57424298697602 1.7018778213485923 -0.3681632036430627 -0.9533961625530614 -0.5726322394268525
Ni 4.233021948424138 4.329712995554517 5.991999505494761 0.06909891168019068 0.8749518051022286 0.27360754245266433
Ni 3.909366114304542 8.638765354404532 0.7769397632010169 0.24638907305634342 -0.636572232613923 0.43861631535830264
P 5.135450352779163 6.306384611539904 5.503431311743525 -0.3841824618894545 -1.3445126325581878 -0.5973428547996551
Ni 3.4503171715682086 6.55529216694401 7.213767539147204 -0.8688050687745423 0.18967490819375074 -0.9144516629690639
P 6.193456282105854 2.7432764817923303 12.224998561165643 -0.5225319803363517 -0.08757974409319755 -1.131020053119549
Ni 8.930248840677091 3.93684036524138 1.7967766315095242 -0.399225472265506 0.5490662791814545 0.6045671404622363
P 6.671059502308199 4.3159392377515156 1.4442444438469466 -0.391605493826403 0.13093111449563904 0.21361573528006433
P 3.9592501959221944 9.337215761720826 2.825195540002335 -1.171489473988505 -1.6676943863945535 1.7697196164891198
P 6.759755542415958 8.639827692107422 8.69014037203969 -0.30985598326173736 1.4987469405561415 1.5180890925281791
Ni 5.147026170507217 6.379044847184194 1.247701894920089 0.38529934910271707 0.059578888004897385 2.1393241805643997
