# total energy = -340891.9979478452 ev
CRYSTAL
PRIMVEC
9.05253494794133 0.00000000000000 0.00000000000000

0.00000000000000 9.05253494794133 0.00000000000000

0.00000000000000 0.00000000000000 13.24929994056852

PRIMCOORD
 96 1
Ni 6.504753352386004 1.6621812173280246 11.461015369481403 -1.5192561162530869 0.90787375264123 -0.37253690723072613
Ni 4.660380815285936 0.31230793185310673 5.8662472789481885 -0.23684385257006954 -0.39011939619917974 0.06668156048794967
Ni 2.6268102963098996 1.5852799323502094 4.798896369356688 0.650220676635293 0.45010091895913446 -0.0801050329827072
Ni 3.5486027795866515 4.048673866515374 4.481814130535095 -0.9875591815880153 0.6179880418538325 0.30178297644561575
Ni 5.026664487183801 4.542444389071576 2.407649328777891 0.600557762192527 0.42977814824138244 0.4060406954151265
Ni 7.3519438945795095 6.363533806105378 2.7837043069741734 -0.08138415680544693 -1.2875578124396987 -1.2942696772422355
Ni 5.133067983785241 4.41995453774317 12.147475436670012 0.1931027029283771 0.1467616537699924 -1.0434426230191967
Ni 5.583295812904918 7.942268755637581 12.608153512214454 -0.9299523297078243 0.5583237932239804 -0.5417232085528219
Ni 1.9353595665658747 6.589457922549326 0.3261610261911351 0.9904102778835652 0.6043743077251398 0.47230625141158017
Ni 2.7522150639140994 1.8851994700311983 0.18430146568473704 -0.42265593537430435 -0.44727270548172005 -0.23752262380464903
Ni 0.4732203628118659 0.10930573932820829 4.739831294124817 0.24438412681117266 0.1860511953982344 0.01290179566333262
Ni 8.599663848643932 2.1385165574395804 1.5195884014851695 0.44912287131658135 1.8458486955432147 -0.6977261784154242
Ni 7.120687835009965 0.6887458322806501 4.844407989159627 -1.2660867870501162 -0.6164147838294416 -0.6663633478334265
Ni 0.8702174755187638 7.280990125108513 2.359289781458293 -0.13373593093428582 1.2584768359133423 0.2082462434380349
Ni 7.50732160562827 3.927985469655547 3.9039727152668293 0.99904558496106 -0.00422509382494111 -0.4447144578362405
Ni 7.582792590073244 3.6885006557546514 12.477117162575562 -0.8785986578261966 0.5299236448147325 0.6721282753416618
Ni 7.918786479800917 8.636344720536822 7.0444147959624 -0.8511251349962761 0.7520448464626467 -0.25526786360321196
Ni 7.0311311060770025 0.6971746476358994 0.3392301709966056 -0.3960540165160598 -0.6171169521027888 0.47833240300100205
Ni 1.84477084864086 6.5267781700847705 9.381736790692537 -0.336934070425452 -0.6388417453743901 0.1283939498960821
Ni 0.20160086010411374 4.983148951352328 1.2988423350715113 -0.8924872428828305 -0.31430707705455546 0.32820748918573156
Ni 6.347203032932926 1.7391911327260559 6.974378953542226 -0.10391653358000812 0.44199757312570975 0.7918367816486039
Ni 3.3519636139258977 4.338083411040478 0.548952965518859 0.2328445016026893 -0.5343497989068862 0.2041651313901258
Ni 5.84647111094789 5.374173201454357 4.692305485280374 -0.6130690072856603 1.5752197761029 0.04175831488370873
Ni 5.102280312189062 2.860076018653437 8.968609871090589 2.3644679710887213 -0.428951538575029 0.039002349405126376
P 0.37281326540634063 5.710918451588524 12.40777112332376 -0.4673957014838402 -0.7880171507921977 0.09872856162116544
P 3.9932270895301922 6.263032562335665 12.840281330906228 0.4601523896578656 -0.12851376330339803 -0.2890367325235409
P 2.4644440282272515 8.6161032522366 1.4813378200201595 -0.5055968951439098 -0.7423589866334506 0.3296498780592129
P 6.2075586277454295 7.750418381001343 5.794249752189617 0.7822100571921173 -0.4154167373133878 0.27562688687553816
P 4.562894065677213 1.0261048442890375 12.640587839930406 1.591903150295852 0.6205406330723572 -1.2401345859607287
P 3.940794806706001 5.9629319739543165 8.377996234165442 0.035157007517107194 1.4530545807253492 -0.2316229704907624
P 4.901902449565878 1.1586249044173762 3.8041522221304698 -1.05597777937173 -0.6763867935076996 -0.034365879074379525
P 0.21369323638114324 5.696144714439167 3.576184948532962 0.41449268283722157 -0.9014128275072346 1.37985193128943
Ni 1.5229079660762659 1.1682386966064804 2.760200305053467 -0.035246481907119945 8.716039716759184e-05 -0.8121636661314142
Ni 1.9588961576126456 6.689560854778247 4.787052032539152 -1.304400080808018 -0.22182526767405025 -0.3855441181236715
Ni 5.975677943259645 5.638905535520424 9.083402351893199 -0.33813246160892735 -0.47663418936297275 0.7923134641747065
Ni 8.460318177112029 2.2729285973866795 10.05089293719426 0.008413163764359704 -0.03007419367756111 0.8621384553876443
Ni 2.3487616832323717 5.533389187350745 6.967886475427324 -0.9737389878754713 -0.915395772049888 0.36213242406795054
Ni 0.491796164668779 8.92916707076371 9.063316587195285 0.08468468193358963 0.5330382791843142 -0.35633484354956696
Ni 1.3805749579884272 1.3493527647113837 11.171518015366626 0.30368584989528347 -0.6176694821721491 0.9972028753253666
Ni 4.363086512760163 7.004951174804979 1.7471057640922836 -0.8664162568273918 0.11438040922580947 -0.012412257621423785
Ni 5.6961718720442205 7.758013457881435 7.923558071008899 -1.2876773687366982 0.8520404477216938 0.6431028346435891
Ni 5.431973637544216 2.8404772803394907 4.996880741721115 0.9109896725623925 0.09770526256297367 0.1303518449534013
Ni 0.6034329317641194 7.259245935995303 6.908913736052637 0.879373331208692 -0.44200117267013556 0.21639818312120795
Ni 4.638283577307025 4.6900097623998125 6.788915142361179 1.4089794447830057 -0.6181528495664709 0.10130763520225133
Ni 8.22449963989342 7.020458167290793 9.464531275967065 -0.6718253993892623 -0.09485699448090115 -0.5032121969618172
Ni 4.6221519599049685 0.2693925790933269 10.313109571778828 -0.19513310309484458 -0.8697805453139342 0.6358906331658661
Ni 8.14329840078206 7.293998617929363 4.826349087052241 -0.1459368438758519 -0.6334185174762897 0.25964799494877866
Ni 7.2909207560232465 6.155044872106076 6.988886546162055 0.5839954869584717 0.08283965830505088 0.6666556822628648
Ni 2.3036076385626436 5.276469191005202 2.521394431278921 0.5036251161295197 -0.021473853603059794 0.7949902396759211
Ni 2.5277665106780836 5.048336256016866 11.626950146868143 -0.7963228424444156 -0.4030669574987832 -0.5366133981300822
Ni 1.0234886616688386 3.535186922689992 3.807226463022579 0.06822293683314057 -0.060738712640953464 0.326964875027882
Ni 3.6613611557707206 2.58607388872895 2.4441120345768486 0.07361068350761517 0.37142799043726354 0.8487106120175124
Ni 1.0056642202184185 3.071289765693153 8.27475750380629 -1.116274262268942 2.5177435147178313 0.5494401175811054
Ni 3.8150369902360994 2.403194576295539 6.826595414120056 -0.09904789263379715 0.6718570239581462 0.3892822450098651
Ni 4.076990196051643 6.933762039423514 5.90243026141509 0.9611647507548866 0.4877056166857858 0.17506538581069206
Ni 0.9115088034963165 7.6651435011318885 11.513019467399243 -1.1694935266043986 -1.0697259821957577 0.4721401581473611
P 0.22704844129318222 5.490271963060064 8.247464110727053 0.34887864438183785 0.1872693840760517 -0.6745767368821544
P 8.37380309994511 1.4915771423790065 7.961252826823806 1.0802574778547007 1.2787682391725268 -0.4477249625277902
P 1.856865035424893 3.272464251397919 10.372426307484199 -0.23800084899264815 -0.45763939342802473 0.7169225488382169
P 3.930592599740727 6.150581972342208 3.8466430109979055 -0.18421697040297305 -0.07505950013899976 -0.950226506575828
P 6.564916500115558 3.896111493857208 10.509755074214095 -0.12580253501982205 -0.5852183036219792 -0.2066714427517473
P 6.1108956588233445 7.369188973788778 10.500799401320798 0.7666551401766539 1.7141912444045124 -1.1396499608804052
P 2.138688555604922 8.69001720065848 6.002025346429502 1.4911274763376705 -1.271470419959533 -1.3357719102510803
P 7.0839888580470385 4.178586796558532 1.580416005285044 -0.4441662986422544 -0.24277410201157545 -0.01851811340884553
Ni 5.526409682851876 2.6686239555579907 0.5684973886226969 -1.024688482340145 0.7596118601766272 -1.2833226913124287
Ni 1.5162724579080802 1.406700574050343 6.948781100271859 -1.0801944858272494 -1.1983325623232781 -0.47350489970537163
Ni 6.892120378340765 0.6142805844761755 9.155345563441662 -1.207280001324553 -0.9351408158872991 0.7076089847467748
Ni 2.748286263716292 1.5320419739094169 8.99656590973314 -0.15595643289538302 -0.8060349275258569 0.9293095539175028
Ni 6.396530296245947 2.092792203063719 2.5681118487462564 0.7153981417738906 -0.39906015033223535 1.168302591620091
Ni 4.044437280126956 6.590154967745711 10.544640828412918 0.4863311049357624 0.8376466408938671 0.21129454334605544
Ni 8.208766334032155 7.288413203823263 0.19466842878733787 0.14269442567915425 0.2546636543603098 0.5476002361588891
Ni 7.6931158343374735 4.024232021966804 8.605433934464397 -0.3613988883360356 -0.18139004247713922 -1.5263019673562745
Ni 2.935356899863032 8.596097149846845 12.301869137162317 1.0414721295563871 0.04512877401783841 0.9403169607716
Ni 0.21082539328744437 4.6960659083268474 10.504403215511461 -0.09285770466268524 -0.04507606640303204 -0.7124089772385795
Ni 8.340643664174216 2.438825354126343 5.84678342340601 0.9749335224042049 1.1861313922713959 0.6265906959211789
Ni 3.9316970090129217 2.733856522897618 11.000311041585409 -0.38727344210995235 -0.6224391356466507 1.280602464167788
Ni 0.8141840942644164 3.3926094961566675 12.792014119443815 1.8457039424352342 0.3774600555639564 -0.46201412545695275
Ni 2.9917632455601204 7.9901385608127065 7.88945445583563 0.3578494804218805 1.1117781741708013 0.5302257494361835
Ni 5.7455806081724035 7.970512664893706 3.655283283759643 -0.1708958278140347 0.18156667726431958 0.0091577552398681
Ni 3.379845421781303 8.430571547042918 3.8404818556646627 -0.7835218340250054 0.48174348556508007 -0.767711092244994
Ni 3.2354665407793988 4.047922506108881 8.987609331586343 -0.7009526557725219 1.0810362650022542 -0.5859556960086361
Ni 7.3699946494053785 5.970970625050291 11.527394893007811 -0.28018956654555616 -0.3442635142073297 -0.13592342550390785
Ni 0.6112769533572069 0.15247275256148818 0.5369067571704211 0.5389428175942074 0.0636995950414903 -1.2031214990714891
Ni 4.352712307629548 0.5076652585553135 1.6088228601714931 1.329938591398755 -0.7751796327078972 -0.12785993176948304
Ni 6.140814287057798 5.87113926887191 0.46489655686282516 0.4624753813640874 -0.497869187482349 0.7768145972081589
Ni 7.903750219136039 8.743771153595297 11.298552239274063 -0.40761472477046573 0.035854290694447934 0.06454163132681143
Ni 0.22025722952268695 4.8918812933009646 5.803299571447101 -0.37173498015472106 0.007493737273883869 0.16853864043576783
Ni 8.151798731163952 8.905911108302496 2.418076943865113 -0.5380156777942476 0.3975485987837154 1.2174019202499033
P 8.55326055414172 1.8867293484492382 3.6875981180133577 -0.1219206834669126 -0.9171155829544722 0.12859835259740432
P 1.7038228784107734 3.161154280816728 1.667252447445102 -0.15501386647645563 0.6546769126344337 -0.3586724905438081
P 4.6084464218877335 0.830601771773041 8.175586982684223 1.327139945607695 -0.6392207259803636 -0.6852768969084779
P 8.612165399503775 1.7023292101328051 12.368963810955146 -0.6849028013985107 -1.4537829742509414 0.04197942975557931
P 6.428413324579303 7.913327801185071 1.481788636264055 0.043328744694622154 0.004987168801946249 -0.21988845566265358
P 1.9839264169373847 3.4599060414803966 6.05176359483234 -0.21310974217792328 -0.17454448031021552 -0.3820972972256516
P 6.913457203378165 4.272977579191102 6.214041148071812 -0.09307830531392355 -2.260688991527842 -0.2427810439901109
P 2.269914103225689 8.553921389198035 10.233070678163777 1.7531172320457487 0.5199385085775625 -1.55009058513544
