# total energy = -340852.6917090326 ev
CRYSTAL
PRIMVEC
9.40650505489761 0.00000000000000 0.00000000000000

0.00000000000000 9.40650505489761 0.00000000000000

0.00000000000000 0.00000000000000 13.76737097194085

PRIMCOORD
 96 1
Ni 5.882583550130439 8.726649691296346 6.758870023618746 1.812907978951136 -0.6868216156877784 -2.773133248610889
Ni 7.040195066753776 4.568033906961425 11.012822615683572 -2.0071357966228915 -1.0091363935381588 -2.0265393979604838
Ni 3.052288532032313 5.11775004909337 10.312352183279694 0.2340313228219389 0.06473420695359174 0.09862854570819143
Ni 4.517022431280701 1.592229665683302 9.025324091935623 -0.9585190856019234 0.05407904123259074 0.089546123790949
Ni 1.1503873209156479 0.7792950615592052 2.2499465929947116 -0.017204279693428436 -1.334825744287727 0.7556557037423567
Ni 3.380641396053528 7.317207227425296 8.874970518769349 0.2722937087372472 1.0868292175349477 0.7086834487578763
Ni 7.972191565084253 3.273021574319586 8.84194239901826 0.5377948200326932 1.1189063005751503 1.0143580469484144
Ni 5.18387777803224 8.006647592268191 3.100081101760992 0.29902649674640114 2.390479821771451 -0.10709775952146718
Ni 9.023660081231599 0.878611761481719 9.763296377786654 -0.2604280676479128 0.21627245617662108 0.5056148928660389
Ni 9.31564739758885 8.23031546406171 4.38792285577266 3.819546010002003 -0.864543465284711 -0.5327588002706825
Ni 0.49418201893005265 0.3856666979365116 7.686611959815645 1.5959009586013353 -0.9736438570585039 2.5307041886435577
Ni 7.521676422865442 1.44995628016404 7.6088126396865405 0.3072128892119354 -0.9212815414067037 0.13392413568569195
Ni 7.185516159837219 4.822169447891931 5.795609125192376 -2.1467423274053417 1.1461674502839485 -0.75367903963196
Ni 9.51816004002483 5.73724364403734 2.575888569828582 -1.1954884080062635 0.45239897096469184 1.2643556632916226
Ni 7.882895614754709 7.586186232973943 10.306818336489545 0.49943036132188184 -0.1128752854351927 1.1356243846607796
Ni 2.9210207571614832 9.432748976189133 7.404835404448884 0.8290936091175335 -2.8418524083541574 2.0431713500902102
Ni 5.514554048745902 6.648075506505448 5.240108923241866 0.4292816682209381 0.745303156863439 0.26454157559565405
Ni 3.905148105247184 0.3333044481625266 13.122672488376157 -0.2972604059849139 0.0454704736279733 0.5844816825662709
Ni 2.4291546197200153 3.847467417643606 12.992859899802177 -0.8579244173062968 0.5635143362859844 -0.7854465618515442
Ni 2.0668348667659044 9.65408403478538 9.956961261781682 1.0641731706983286 -2.1898317023956477 -1.0868418159404378
Ni 3.3273911722238063 1.7429406860330285 6.045486341387373 0.25014596899561437 1.4919006070582694 0.9710562988369857
Ni 0.19145529601099484 7.236546448527599 6.657046490159645 0.4912935911473603 -0.3727220266583387 -0.12134244236593941
Ni 3.071618899453277 3.64704301927938 2.701804984102922 1.6037075991299479 -0.6031525195028968 -0.2772474531980967
Ni 4.481456436527092 5.833622692502157 7.370004057722322 0.8473738954839599 -0.7020075793995975 -0.35104017080953087
P 4.9107410973497405 3.914347666968694 10.802167702668719 -0.49936736929443026 0.286307506517836 0.9286019863275169
P 1.2472743206411616 5.7955827869788585 13.258831645757402 -0.808880367394452 0.29470652921480855 0.0460901094898432
P 6.701843088100695 0.46626915650427697 2.8770086617230652 0.5444133537904753 -1.808471283336021 -0.11320001576446312
P 7.252565726249205 2.057343703394735 10.743340362126643 0.2433122339032326 0.34777949778038814 -0.6890147666843554
P 3.646459815980062 4.8369940995004175 0.9977987622023083 0.14782711892002928 -1.0475533027534605 0.5351360422536074
P 6.664367572867059 5.697830388809194 7.966475232100448 0.2118509300701577 -0.7263818944789039 0.7439379010847962
P 7.719382341334455 7.1787246633516055 5.4804319524833485 -0.764222105255129 0.25875993591687046 0.15717719267636157
P 1.6911672834612588 6.471750573509841 4.406577836146995 -0.13060586994573636 -0.5526367701415321 2.173516510175392
Ni 5.80452837307002 6.59456190054055 10.085631900669577 -0.8338010418955317 -0.3627206924712527 -0.20920706468940742
Ni 7.980365817779542 8.45713451497252 7.9553369897339445 -0.44790082598402214 -0.99716610855016 1.04947597369747
Ni 1.3348959131113716 2.9309822457740387 1.6886369336626021 -0.8164707781472003 1.2470415974932072 -0.4551659921868677
Ni 0.5691311680963584 7.439661107272552 11.86790024273682 -0.16020080999403377 -0.09193570706904812 -0.2165560488553109
Ni 9.209203388958372 2.613089415121248 11.541434323584046 -2.1640473943426923 -2.52207839464776 3.5009629312799126
Ni 8.501806006399361 5.084187639868066 12.450356665572127 2.3324623647164024 0.9364497645067098 -0.7125701854067922
Ni 6.074353964053163 6.099977283203871 2.9087565561671025 0.7050571648591987 -2.5312094104147502 0.9028439035268063
Ni 2.7632642646957946 7.273570451529503 6.335702412885564 -1.0118170256941155 -1.7347875804986252 -0.20769679869246807
Ni 5.5643897113231615 4.025231545877855 1.699499565437653 -0.41965648642634823 0.19571442951961132 -1.3370320079104265
Ni 9.060768742776954 5.926784716315894 8.917758827929681 -0.3269152527368693 0.6695921391833694 0.5472081429267931
Ni 9.085648948046273 4.805661031919283 6.865429732258604 0.4670043795826925 0.6431910234820213 0.9717461258151587
Ni 0.4649005100518438 2.6424941492127 6.865925455063024 -0.08788262004559703 -0.7669685576520145 -0.4336291465563564
Ni 8.704487965922239 9.535091748714725 5.994864295006517 -4.386165724686188 0.1340472915271175 -0.37143853196022486
Ni 3.972649183890901 2.080709461386791 11.449248694971425 -0.5748541867788357 0.5935054833314359 0.4974830077875239
Ni 4.461288890176461 9.21701078796538 10.939442471522531 0.13674515007425483 -0.6962398236778848 -1.2779480572640767
Ni 3.2408419213039563 3.6423021408462097 7.691623745587854 1.081467181892086 -0.18738045573261922 0.8366076581063915
Ni 8.565102377385086 1.2448662554052652 4.000618485345643 0.26826119053908637 0.28529063521754733 -0.14299190231491501
Ni 2.997213446266014 8.31971488594436 3.387461112053625 -1.4060632995774751 1.8887755768137278 0.1541206652382249
Ni 6.586876786096303 8.816246649780378 0.9993404883435716 -3.65022138332983 -0.7573143223917022 0.3904256145856889
Ni 3.556232621672573 6.170187435237972 13.18137660370499 -1.9520447691860185 1.325782660248852 -2.253799206386544
Ni 8.944880603299445 4.412676073226805 0.7390944818769791 0.8499329144603878 -0.25146597335861853 1.3374667814549996
Ni 1.0746461440428479 3.9745398913612724 8.870784624121015 -0.28067833325651664 0.261288358765679 -1.3721329653786174
Ni 2.2691593791053295 6.449447750563317 2.4595131734009983 1.3915941594270227 -1.365281746784739 -2.8459677160741115
Ni 5.861522385821174 1.6839995267825363 0.8166821556474603 2.5349130845185828 1.20896973032215 -0.9902593541279977
P 2.871100436040775 1.1300222379636344 4.0823149204248725 0.3762310682528617 -1.137796195501118 -2.5341643792780166
P 0.3357397922624233 8.078532102161626 1.870434571166977 -0.016101019326920655 -0.4758772565922901 1.967633624763211
P 7.4827899319076465 4.5086882680033415 2.7661812218428703 2.211260561693385 1.9377561204774887 0.2344216162818221
P 7.388517940524239 3.253625361364828 13.391424797158455 -0.6950553164514803 -0.2019645241943812 0.05730449014842389
P 2.028531579107429 5.723670057570941 8.266012209232425 0.4918916297426754 0.7118489909700514 -1.659277623085768
P 0.32998959586123816 4.329334440453208 10.804246540235646 0.9259586351673988 3.2016371581255374 -1.4578568872099988
P 3.8261616842088206 7.148294620233932 11.053105972608282 -0.21726130245245165 -0.4989637060981085 0.4772337706201845
P 2.18401169740481 1.7481236701931022 8.114804525427795 -0.7882146115149845 2.4779976022784616 1.6939211813015664
Ni 1.58604959201149 2.3504033613023454 10.274285939542878 1.8461209753679946 0.39055288419217254 0.7523688054609687
Ni 1.6606431752953081 8.257302726412439 0.2339501222207018 1.4166192207164507 -1.0170440784210097 0.04195731826839225
Ni 5.368574500324518 4.524632293686326 13.06749299040627 0.6619757602886922 -0.8248710863957536 -1.033774246691497
Ni 5.838664579089815 0.8055815393002682 4.733181090270253 0.10854014839494856 -0.13044466177752373 -0.9234363829661772
Ni 9.236416407424965 3.938240189231102 4.638131180937593 -0.5475112759895087 -0.14134356807821463 -1.1827462778492468
Ni 6.369125605839417 0.9394201119405138 12.511868622592033 -0.9007340562726551 0.4219943905309054 -1.3734509128590928
Ni 1.8807271687494682 4.4959048279424705 6.063755655063771 -0.1329311756448033 3.8972432048741648 0.6637032845027602
Ni 7.065733727361034 2.5147350006426104 2.7200197400513186 -0.7076868891725618 -0.8624804121080953 0.5249837843109539
Ni 5.566318044812844 3.7162560818017427 8.837867501126892 0.5103511219994437 1.0052314020567978 -1.038074673839064
Ni 1.4126406755124756 0.34904811529268115 12.216173262031695 0.0647858861271336 0.5518451274781723 -0.7613787222690629
Ni 3.7787528998771127 2.4727819891109797 0.5015717691227094 -1.023808907948669 0.1313787435560189 -0.06828232931616628
Ni 5.550101230489855 3.4733895336548453 3.900805121968226 -0.8248489749085666 0.7174084873357 2.4168282298579924
Ni 2.0287479287184667 2.9836962988285802 4.667386351602285 -1.1220168211796742 -0.9947631555356224 -2.5724504193424083
Ni 1.3547906708219988 0.6019579886441351 5.549571644268054 0.8446243577632808 -0.34296459289024805 -1.4788838830836273
Ni 5.481330273694396 1.9258313593983845 6.598507929315779 1.723761918812083 -0.1732980094976241 2.4368152145028805
Ni 6.677263890985863 0.2037138531024793 9.895435195004533 -0.8674254148181965 -0.38787533736000945 -0.4124198594685929
Ni 3.8591691096492897 8.999306640232632 5.452608451853435 1.558155878642078 -0.6589400587861619 -1.6328273993140396
Ni 7.393098908375339 6.248515400938394 0.30864059250424525 3.2457686012271134 0.4250658303673776 2.5225440214302686
Ni 3.9418522870849464 5.209256528057428 3.9852266214960452 -0.4083271774564581 1.5553664888223986 1.5716300018691127
Ni 8.376323231997578 -0.0838279490731905 11.952115739808912 0.49599228217461033 0.11152879870962729 0.5379102625646349
Ni 4.466330776764119 1.049737719259046 2.313606995717271 -1.7546920327320361 -0.7309461168108186 2.3697603298359122
Ni 5.348171791353194 6.481458086492047 0.7877496280983598 -2.490295702919524 1.561999163647568 0.703102355125673
Ni 7.720370024341366 7.728149203833891 3.1074059470703372 -1.8927507594113917 0.07474762532553578 -1.6333835289278256
Ni 8.591826257600639 2.1588963295147976 1.3357490830992458 1.2449476910786559 -1.726777308599639 -2.254014407721144
P 3.870522760976347 8.630073106230148 1.167898470302931 -0.11016020049687479 -1.3761868237330168 0.7336678866173558
P 8.396631875920626 8.785167557829592 0.3388608705642607 2.530434737032255 0.07458281761289735 -2.4243240240144055
P 4.985014859469416 8.990991289964928 8.452958967479494 -1.2771242758112005 -0.03553058880644204 2.87912363400079
P 4.543586400914182 3.5105640407339935 5.774008027506 -1.4329475255628288 3.0937436421756526 -0.2351186423488467
P 0.47959629254419034 8.166482922300805 9.541696055754267 -0.6834066764689585 -0.3738371140993884 0.14359354045465594
P 6.402659795550239 6.833026204428075 12.466202863604902 -0.9858056892320184 -0.3643458867795016 -2.689672154671755
P 1.4319898559430952 1.8559316220235988 13.64912258146722 0.7647923759363022 0.3981360958560692 0.30028119508910867
P 7.753781929489428 2.7723509483593722 5.893701098186321 0.511337654282429 -1.2247863856394325 -0.09265818705736946
