# total energy = -340865.11970723793 ev
CRYSTAL
PRIMVEC
9.31501088356528 0.00000000000000 0.00000000000000
0.00000000000000 9.31501088356528 0.00000000000000
0.00000000000000 0.00000000000000 13.63346000382698
PRIMCOORD
 96 1
Ni 5.970726190641116 8.019115655466583 9.971744016640217 1.410360127180616 1.261423834356808 0.9971473394970827
Ni 3.5232816709588364 2.6634596159037907 13.112825212953677 1.1036640297040992 1.3827953301884701 -0.492656532933158
Ni 1.0352050749627042 0.7553961285267474 9.762429207555929 -0.5663281515856956 0.6566332650298562 0.9490080607876945
Ni 0.9437316706981406 0.8271552443202803 3.1400313946168583 -0.4133382575178043 -1.0602558379217935 -0.2098475264868838
Ni 5.4705101204774635 2.9877523955439655 2.7848798478027885 -0.2693719071047619 1.0697208399894351 0.7620749770051392
Ni 1.5148722317039915 8.878294974789016 5.254335737574393 -0.4412072160139305 -0.013953376856298551 0.7228689962296388
Ni 6.236315773369348 5.090541522376057 6.329483578065249 0.183944947688509 -0.21990285384035677 -0.8364582770127207
Ni 7.040815980366631 1.0709747157341833 2.571079861106137 1.0209261870842352 0.1307742772028006 0.06681782895549783
Ni 8.060874848065161 7.203605105919332 10.533933783943644 1.2563435916204235 1.3246153794136284 -0.26273820383832813
Ni 2.1044658287432543 4.146558346391242 0.7471830836652336 0.7468165081841719 0.08638006735814156 0.378509065653761
Ni 4.324279433963911 3.8137702770678406 10.6175471822491 -0.5041761035369834 0.8768135409013157 -0.6180232659671422
Ni 0.9196067246996891 2.2749491530660695 5.142363720944799 -0.9479837332882384 -0.2185851634701977 0.785108461785835
Ni 8.05152257740512 -0.048698875508669956 6.48697712008186 1.0825688995966969 -0.567090997893649 1.4366519709976096
Ni 4.016306552925723 8.840326991511791 4.882278377990491 -1.2010273355466219 1.278800892182675 -2.6785927569291417
Ni 3.811031663946274 4.318569332455339 6.113760973177131 1.2730935573852526 -2.4391523472764898 -1.611881650300308
Ni 6.460630544051116 9.401640216316103 5.047665460004431 -1.93806619551874 0.10003879579215674 -1.5828312699015707
Ni 6.400455575461597 5.626881203714657 0.19020599630340176 -2.2078466509158297 -1.5873810940557822 0.2578813899666591
Ni 6.832215632596708 3.2587726294622428 0.7739302051525317 0.2516189539967151 -0.00784880662045745 -0.6680862440618043
Ni 8.235969102643676 2.3380583500001246 8.560381114419755 -1.2024802659430645 -1.8211023418364702 -1.2999124773503097
Ni 3.1187214448270373 4.420466233600966 2.9441460363399226 1.739757780019707 1.1000966240678152 0.680962328693524
Ni 0.03558892956549817 7.849973692672699 -0.04666075118554505 0.8905100645518018 -0.4012365891582638 1.1780154480324807
Ni 2.072077536825954 7.851501354413982 3.1061927555464024 -0.9909504666577514 0.25087179141804533 0.9362355916133747
Ni 7.230590691678438 7.497437800840043 12.674318293628257 0.8701515555001078 1.531913400005781 -0.5856584764831912
Ni 2.951274813965551 5.895358439734336 7.221111736873997 -1.6471749262849633 1.7531347155472452 3.7635666664229053
P 1.0800102760332289 8.118888734191405 10.797481516344503 -0.7526585687872457 -0.47966526287981265 0.6548949421825108
P 2.982880644990975 2.4302955851353287 3.938965882770141 -0.6870401594564877 -0.43734953283073713 0.7092102677956237
P 8.505936740362166 0.7812341049777706 4.521945822270927 0.4804016268252049 -0.05114978340093771 -0.8269210269462469
P 1.5984744519967065 9.039863833950815 1.1439047283623451 0.35759725520175834 -0.27978873156271167 0.17992502789583853
P 5.001871936307383 0.5408397629679489 10.102229616872238 -0.053930431469868416 2.099521446745165 -0.6790077760703145
P 7.745636258745267 4.373378854929137 10.475472777307758 -1.6959448965998145 0.12886497599522967 -0.6122886774762101
P 5.444642335992464 4.396712956526156 4.310654367933587 -0.408780977164425 0.6085425801702165 1.9427252915573059
P 4.9572250904173565 0.8896384725408343 3.461126331112021 0.3997566621786277 -0.02700095406887608 -0.772921689911656
Ni 1.168940682399195 3.1930552295552674 2.934370864197842 -2.043153352368081 1.493155819621609 0.0054648797693131685
Ni 3.440173146228853 6.395239169515757 10.458185980603666 -0.9025646817234907 0.9479449096305029 -0.29478571919217617
Ni 3.1750493140314995 9.123661669466498 11.086443392213287 -0.09297751807000117 -0.4463000571558055 -0.43379009761425297
Ni 3.403099403970914 0.37854899048328894 13.45497021044243 -0.5812184384339667 -0.6428158995307897 -0.1453902273437625
Ni 8.248330121733195 4.85831830767997 12.537656841356787 0.8631488989300297 0.3203959635611127 -0.41476573399295025
Ni 3.811627824625799 6.3583424124595505 1.2021496267519036 3.3946185049847024 -2.5285205507286777 -0.4116863237366781
Ni 4.494958373509695 7.456777779494338 8.568097669215353 -1.5896328662044366 -0.2914597401427368 -0.08337984707923705
Ni 7.746400089615908 0.3954575977563069 10.575964974852255 0.4437960597870292 0.40728099558013087 0.5097685100230962
Ni 5.529120167283231 1.2580667039881306 12.352432512731664 -0.0637114221160322 -0.40555938490333376 -0.6459644724621004
Ni 1.0004041952954528 2.9056964670137684 7.6542737031070525 -0.18113473193322352 -0.1204682672911022 -0.763890175837007
Ni 0.7362565762108207 2.815732094469251 12.82807651638722 -0.5952468915025748 2.38745080513714 0.6621408251116467
Ni 6.019555476298433 8.142669956298066 2.772705128925621 0.8660861271814827 -0.40722263153836963 1.3817918286246205
Ni 1.9927415913960875 7.907559088310533 8.7713046258377 -0.1524435346461181 -0.40873958240352826 1.002846703874705
Ni 6.156346407217487 6.097708415379868 11.303814753980717 -0.695156617916035 -2.4535345841400904 0.2791711525833708
Ni 6.20733677533808 5.745079373441037 9.019569220318308 1.2829645366420614 -0.13251902780804917 -0.9275581184440348
Ni 0.030199264422170618 7.409718345854361 7.473753454843803 -1.2040221565088878 -1.0413345755372583 0.012371377081159339
Ni 8.751554940326322 7.528941166748673 2.79363223177906 0.3870451281492302 0.14732086870757208 -0.08909978028214977
Ni 3.117706108669722 1.0101942714545216 8.67970081142449 0.5008274987797245 -0.8854277649328881 -0.019065244161567164
Ni 6.575158599594173 5.825449285049453 3.0922593626646373 0.14899799929967888 -0.4649266711180574 -0.42702218276280013
Ni 6.286831075948445 2.448795196221828 10.11451332137363 -0.29653021268710866 -0.1947268687953614 0.14602014761827756
Ni -0.03886036129438969 2.89375462340204 10.451437255411234 2.0031459587372082 0.1372359736677443 0.27330466650026475
Ni 5.126879378795208 2.296802167974895 5.515320910554359 -0.3158901052709592 0.007707653056902854 -0.5949129052019239
Ni 8.089714120937167 4.741172734153377 8.073694165677065 -0.4187889962197303 -0.6610542769156874 -1.547101420600129
Ni 1.8150111888128009 4.450637552991284 11.2523353478027 0.3078710916212246 0.10736258314707961 0.7916832867898752
P 8.265507001311999 3.1791292886819966 2.26897543675702 0.38080403233552484 -0.3182017841232713 2.6653842286586675
P 7.454020536351537 0.5750193314270083 13.341730420867783 0.41528921059658797 -0.060633811631973 -0.23950725833484557
P 4.935437280582854 7.7245284446858475 12.085012530417078 -1.3855973184136394 -0.14085685824978322 0.8747111498463322
P 0.5871893927988672 7.009806310020731 4.684811330910691 -0.1338750276153114 -1.5398979608731544 0.013136794492274149
P 7.685852520601685 -0.3436214266716385 8.599113860068684 0.39489084944589414 0.3072332009269096 0.03248460289126663
P 4.137215390741816 6.850147028035535 3.3633746096912134 0.6346392772572683 -0.08688348935712133 -0.3946913318405783
P 7.484927741580643 6.9879253500800536 1.1508248497501399 0.8845489618723605 1.5064651351360054 1.4205694636134503
P 3.112825043106114 8.17765713617767 7.011837913836423 -3.1184514293349777 2.2237952038252864 -0.7877045046477853
Ni 4.896677521403134 7.637973366027363 6.369198125833271 3.3841785405983007 -1.4781488046898157 -1.2618560367982203
Ni 6.047938313650176 3.2675007944109082 7.84911019118845 0.8580365174041288 0.48318818843140654 -0.13049171296537526
Ni -0.28738018706591995 1.6876656786599649 0.9129464921081246 -0.6237390854049968 -1.1555401497481004 0.44058398060763476
Ni 3.0373082520294528 6.461301224815582 5.146167039779955 -0.9784322795860825 0.7429621674350882 -2.2039748266652492
Ni 8.918936366113487 4.956396054472393 1.3648595747143544 0.04920731496258622 1.032886701880221 -0.4342253853794586
Ni 8.961757469922468 4.993805137112565 4.023643055288123 -0.23019035180929387 0.001085262644378776 -0.33493092395249413
Ni 5.076103255918819 1.580636206664055 1.126137277110387 -0.8257979690853972 -1.2173615539302711 -0.6698888444881818
Ni 7.696033827206692 2.398047018377292 12.03691354159218 -0.00013241181280622356 -0.05083688014620922 1.4245351331294176
Ni 5.810535953050719 0.8429199682894603 7.526446606905288 -0.3710595513542513 -0.6249346483749947 0.7914423744236627
Ni 7.611379010714192 7.054462470921375 4.957671279425938 0.2999562076495221 0.0720273981808953 0.08754117754577825
Ni 5.7974576781436475 8.55524109156098 0.5034819128861737 -0.19604275939330754 0.6506258824935117 -1.0352726856138945
Ni 2.1583065901128244 1.9417512232754948 1.3992971689675204 0.8818606164069198 -2.040755798670182 -0.6816824946890001
Ni 5.652460222870511 3.802051993710934 12.380885212663038 0.8790360024739313 -0.3268859421608306 0.4888734117416419
Ni 2.704762372982108 3.493687882226808 9.066973309351136 -0.8730623013889997 0.8871722584278205 -0.12843045956097238
Ni 2.9485082558121323 1.3353254020502785 6.163686635584135 -0.053384329158411285 0.4892799031514412 0.41728644353227484
Ni 1.3736100956885022 4.6635414356665255 5.7588143565966465 -0.6021708723159177 0.3619529610672928 -0.19853750079070323
Ni 2.6282023007162776 7.334359909958199 12.929782459815188 -0.9774218360436974 1.0922465318957768 -0.8380209935141503
Ni 0.8485844262460063 0.37999468013113624 7.452976323661307 0.8211892666687921 0.5888888104950311 0.07739380469913124
Ni 3.924712053523131 8.456082803536917 1.8545599293918293 -0.80309795638472 2.684178735657351 0.1933479861699638
Ni 1.736252774041224 6.382058429491891 1.401819673842759 -3.1890999448904753 0.35393497585882266 0.2817785082992309
Ni 0.02875264327326158 5.638143051551302 9.748836744062766 2.408737739540374 -0.3623278279082083 0.7391350803795141
Ni 7.249910023699284 2.6691697174123625 4.535811215575184 1.0432970985802676 0.5005508480795702 -0.25116721117127716
Ni 3.9617578507492173 5.561415309094356 12.409529801813136 0.8507484683831478 -1.6498519588964942 2.087256256224567
Ni 0.4421453624726429 0.5447893274697997 12.337735288979257 -0.589448539653243 -1.210243454828251 -0.541205902596771
P 4.100653974067844 2.643432343076009 7.728330832019941 -0.24165747190862893 -0.9733078138753236 -1.5634654637804493
P 4.639313093050219 4.1561528073273415 0.829209204161455 -0.26419164845540305 -0.19786078643865276 -0.13158854557397984
P 4.2234630740499215 5.291168221057338 8.814222605757106 -0.7926857599124607 -1.495521234529992 0.5941282045170994
P 1.126026428484038 5.506428801418823 13.12823130901408 -0.7663260389720092 0.46881495042887006 -1.1361018385178303
P 0.8259591969569839 5.226223967031621 7.8144536941857705 1.6596460621687805 0.23066754855602853 -0.5282280022798644
P 2.146932962148768 1.768557230862966 11.817496603493131 0.745712990707348 -0.6581964957519181 -1.9085622725223514
P 8.363957348529123 3.2378697456364094 6.346580348552742 0.35317032977865626 0.39145714117399677 0.678709270993289
P 6.786916735963453 7.090818957361761 6.945975199763815 1.8656801284468447 -0.38188955209021974 1.1613071341388645
