# total energy = -340859.3374823197 ev
CRYSTAL
PRIMVEC
9.39369215715374 0.00000000000000 0.00000000000000

0.00000000000000 9.39369215715374 0.00000000000000

0.00000000000000 0.00000000000000 13.74861800095097

PRIMCOORD
 96 1
Ni 1.7120097351721089 1.3160750169660678 11.220301817730164 -2.1648148686363364 0.7367706939123956 -0.04488837587225818
Ni 1.3754431495211028 7.070829130531437 1.4049712805137449 -1.896319964819889 -0.6066957567694647 -0.04991565388352048
Ni 5.998604960558432 0.9665921050075975 10.94455938687249 -0.04538357034112184 2.573469347525226 1.0735042182912673
Ni 2.1351297976209147 4.637722033420289 5.699530477858954 0.29479446094292455 -2.82469055186289 1.6257391250086908
Ni 6.455204140796186 1.3955456501014472 6.47166658578079 -0.747490394322745 -0.821724827457288 -0.16716207180321532
Ni 8.084586962367963 2.15832282282319 7.837440808270422 1.3561826126969483 -0.07880893987910298 0.7827209353902649
Ni 3.4429571531339254 3.9220542253763155 7.880446068974568 -1.7308311669540384 -0.010759295399033083 -0.6030841281588065
Ni 2.2340171918308602 7.065455938787531 11.686737132714494 1.7233909086259094 1.6985262841737456 -2.6359121873414795
Ni 5.3731259880620685 3.733428892828039 2.814465623658067 -2.9282077931219503 0.3011764532098684 0.7274527589455794
Ni 1.1295350840107055 4.316429590733601 1.1161114983428027 -0.34544056523456634 0.1279800022871151 -0.8362538743113985
Ni 0.28959061139764836 0.7461963672197032 6.739641372839452 1.4001127384209953 0.8197206525430656 -0.4904883216372456
Ni 2.695688965672999 3.850990946455613 3.5930091687975905 2.0421508792454954 -0.2252882865219862 -1.4474495758337458
Ni 1.3005284569378106 9.301455199600847 4.117339685453314 2.1489856149135638 -1.2639062344590297 0.9451015266444369
Ni 6.498114525212546 3.303028719187753 4.9908853938494975 0.28368266730047914 0.39341040824562573 0.25818015215400053
Ni 3.5176839718800177 7.072886349048772 0.7434139556907788 -0.02893622341837597 -0.6788411685854632 -0.4970482342429504
Ni 2.347577532726085 9.155646314550332 9.74367263760098 0.6424685434937 -2.0327113310991507 -0.6003420466372951
Ni 5.395520549456247 8.240033775266813 10.222344175602114 -1.0288297582020283 -1.8240177157110522 -0.0027963317982145387
Ni 5.183861884467314 6.5222469196008195 3.3932278877964093 -0.8080414164329246 -1.4697934907465848 -0.961987246656182
Ni 1.3663030873413482 3.9829441360126663 11.706879086800651 -0.6776913712517361 -0.6538083939865513 0.19409643430021412
Ni 7.855662691740399 5.6442373288327765 4.215106412224364 -0.6832521531689653 1.253045637595442 -0.9364173686068776
Ni 4.5273367603737364 6.805729752551113 12.306786551315795 0.6314225700921835 -0.12105267903966248 -1.2582356664368137
Ni 2.7675225273262196 4.992146027297106 13.485633820745432 0.811135739087532 -0.010669563898704207 -0.45341198561023843
Ni 4.208129717279961 6.135518019417552 7.229187987906878 -0.20424869224286757 0.06470566770850146 0.5162510324236463
Ni 5.405909972653378 7.994858417721493 1.4402229879566693 1.195583024602599 1.0241832605689523 0.6285707024656851
P 7.0332167883241015 2.6360672034377446 9.622533466113127 -0.5364334209087923 -0.26668767540437943 0.1666509364947517
P 7.097084499280064 8.281976609421596 6.700347559789181 0.10836017117365854 1.0855230971290144 0.5794531190034279
P 1.07021391991497 6.227331963656939 12.998768165334845 -0.9293949145424575 -2.0973676336269556 3.6558441288332455
P 6.30208696347861 2.082102407071362 12.871538124044985 0.0769466898593836 1.2669223955775342 -0.7506122277811782
P 0.15515185097444542 7.251103471016197 3.2547517186117894 -0.7412176739401557 0.7319761007372296 -0.6442629163899614
P 0.6335049428215259 0.7994773874494753 13.108605786145962 -0.6611278104661 -0.3694996630662991 -0.5255085464661724
P 4.501504107758808 4.686832254464233 12.28087029484331 0.620046724155074 -2.1605758908543238 -1.8281492213809225
P 7.191528677240242 0.7085436321373696 1.5585017802731589 2.023729439315515 -1.725101720669429 -0.6139768638119103
Ni 8.65886092053561 8.112232597511866 0.6749593049995908 -0.6913161611240223 1.8438267800171795 1.173652800188411
Ni 8.404019454066377 5.987492223088084 1.288208630063455 0.02314789887137304 -1.7737079117129064 0.7273182902502442
Ni 6.730664760898061 0.11175111584299387 8.811612683239833 0.6494056369331654 0.08314356269871488 -1.905230122825325
Ni 5.129726038278283 3.6585893497796267 9.230629581084202 1.563596847151991 -0.2373285055159719 0.5252097842788309
Ni 7.149914622300558 7.854779684705562 3.0539944330263564 1.7774892331322099 -1.4251288008493586 -1.7931673059890987
Ni 3.056143709723919 1.702587862236555 1.8877403469041991 -0.5883439937351546 -0.37028976306776223 1.8488016075239515
Ni 0.6703516991422737 4.92564808262035 3.3060478517515492 -0.7267277078540968 1.8047843214027368 0.21794675855525045
Ni 1.9232738651029226 2.2594177346202295 5.133101191763573 -0.7204583299056172 -0.41356759991979103 0.2753512646166484
Ni 6.445312583267633 1.809610193597238 3.117498608107338 0.01714308743818983 -1.7567046922866907 1.0376666397673677
Ni 2.072689927827668 7.750218500612192 7.611633364601996 0.1548400599027527 -0.1769425482287469 -0.6109995263511413
Ni 8.868650240844408 7.829501259910372 5.374183717765502 -0.15128422423069432 -0.5361642264078056 -0.7856419656918018
Ni 7.169594406747203 0.14181656601002643 13.07602188719127 -0.18329394436807142 -0.5453829167925963 0.6258964980676318
Ni 8.798601480644582 0.5802286194376838 3.4171639540248084 -3.157448893644098 0.9526695687996818 0.9482115330283282
Ni 3.424639454006976 7.835842001915855 5.612419015764672 0.38039239871940295 0.745229109092394 -0.5651122769007235
Ni 1.511247752740746 6.519776378641646 4.769587861643045 0.30313177716402634 2.4538557149249356 -0.2469295189408457
Ni 2.2334441766274016 2.290698728513943 13.267127154390579 -0.12736653707283224 0.9985398489692352 1.2274739597739248
Ni 3.139644236667227 5.172457942549305 10.49976431982598 0.6270069575229911 2.4762181417805356 -1.2516050484941734
Ni 0.7281285402962293 3.5992306109164516 7.449674844505814 0.05283102775810256 0.09566612064575783 0.12292032837602054
Ni 3.84109938892706 0.9487722715492269 12.140208213562877 0.7142835685534731 -0.32596188768466444 0.07455067882338129
Ni 5.727230596415646 7.023362805562988 5.543277686198521 0.8242249681713225 0.04269291088283615 0.5677265745951191
Ni 5.194317063507464 0.9722189264317219 0.6580252966836159 -0.2774171460067416 -0.6581286186284601 0.8058837466599734
Ni 0.046588954148726706 7.895529519994128 12.312271527992833 -0.719854120662715 2.3401340223290474 0.5596859636788296
Ni 6.942605236642794 9.158624114869943 4.687151639987473 -1.4330097462593319 1.7770822275017781 1.6923252975693563
Ni 7.809755719620706 4.555142088279259 8.401876752953116 0.0969645277422072 -0.7213304480979255 1.705043516466973
P 3.2627767495677653 7.129530310964414 9.279643047101988 0.7968162371410664 -0.3288286677094982 0.6372983121466702
P 8.328015093227327 1.8066605743532063 5.31781405165217 -0.25383473070111123 0.05873248084420209 -0.4192253124262006
P 2.622183326868703 0.36042750234452575 5.950388079610373 -0.44417581172395115 0.6907507755388554 0.7548622613067838
P 7.241343425173684 6.643641599507263 13.247590154060205 0.4645466620708193 -0.1291313422827389 0.16764261098405966
P 1.5482401112853232 4.048258475515065 9.48079956459147 1.1811046284807658 -2.0793544848789867 0.4189345206586591
P 3.814214642823815 5.034577333428608 1.7812572134562787 -1.0567550238573866 -0.014197374546304584 0.5045586836873827
P 3.705275998323697 5.773748158506237 5.021943757246129 1.2984433490039509 0.7204791558412238 -0.8370133781852425
P 6.795340329353982 5.089568005576896 2.409899042001896 0.9996937600680201 1.0443543362001886 -0.04810585436829134
Ni 4.4468234274419 1.8714582608033066 4.405950534789967 -0.4987919564069345 0.8027259177572821 -0.4687267615904379
Ni 3.4460382840639965 3.0511368719625525 10.947652729601979 1.1188829035363828 -1.9839938112887896 0.06299357011340118
Ni 9.305513274484355 7.91658078345233 10.049537820146032 2.289784109121585 -0.9383811772014677 -1.6738130976977816
Ni 4.130500247749137 1.9349408303930102 6.579469532935036 -0.6785462630528637 0.7355643323091203 1.2417309839135713
Ni 0.5226678331965074 5.716737842608055 8.931885756338195 -0.4586943170551004 1.7717099074462712 -0.9841786951515566
Ni 6.805100375196495 3.076039549083344 1.0091088937350254 0.4640031308625234 -0.5782835241753589 0.9427721071803118
Ni 2.2602068047364674 9.322591006285787 0.5579505398225696 1.8664707426689404 -1.3964499448574275 -1.261327675098576
Ni 7.471517056818625 4.216555858878358 12.919658249966886 -0.7420232005605867 2.0156080957599607 -0.9997156144448911
Ni 7.140145182766185 5.253271873620661 6.485181290259734 0.17840756281004758 0.5475431576687086 -1.8388846055205557
Ni 6.512759290822246 6.7922779858076305 8.147293613010033 -0.016676175104100313 0.6566854584240304 1.228100280504014
Ni 8.013119754697282 0.031386203242544895 10.9467321477997 0.8398233368302117 0.7353182777365852 -0.47982210017265103
Ni 6.890996293564097 4.611523026822822 10.689687860589304 0.26416979407853214 0.6248719134578593 -0.1616614536999603
Ni 8.644779776437508 2.5315717751873943 10.995511710890174 0.43784241330675566 0.08024001589867472 0.5315550097705685
Ni 8.399820473804969 3.251842492242756 3.072871056818974 -2.970670333161536 0.016396953300784667 -0.0463994132001459
Ni 5.4986351050031805 5.345527321377465 0.33621714031381494 1.0699733223198735 0.626638775550295 0.6295132688846126
Ni 2.970219610280737 7.8890948410700465 2.916136368766123 0.9365994027106967 0.7412338718900718 0.9471699791376912
Ni 0.5238335903563303 0.7921878825661356 1.5875527117193144 -0.01786711008840794 1.5180204440737728 -0.7075169392536008
Ni 8.941066211392947 3.949991064967878 5.2459504301849975 1.1936721807331314 -0.6058218388049438 1.874969781278887
Ni 4.340468048203274 3.0846723519026593 0.6481854044602932 -0.21464031988983678 1.9973100687817213 -1.5001224807474294
Ni 2.052869238003123 1.917647043678798 8.769266859704256 0.4322659476602426 0.7982498842637994 -0.19106176123894839
Ni 9.168346585945017 8.116938837133713 7.672704573491245 -1.2429833682634335 -1.0668818278787433 1.3174242609818279
Ni 4.290991473176792 9.265655839922486 7.818206284817939 -0.18221845191570554 -0.5725980437548074 0.3710356400948513
Ni 9.24261311378997 5.715507268974399 11.37271916500417 -1.8902156516943638 -0.5287051990265991 -1.019684344257334
Ni 9.071103087810567 2.9123638621151575 13.547695124756723 1.2636303550898238 -1.789470830974118 0.10044168765753024
P 0.27978453646502155 0.6726700622933152 9.25583097760614 -0.5379166903225382 -0.3948422555961458 -0.17873486424247925
P 4.489329883108281 0.17549201195884698 3.235861004281382 -0.2308495826598476 -1.0102357972499247 -1.4761574852914
P 7.483456439172652 6.873683719466165 10.282618799421638 -1.4413856290278533 -0.20174238088124613 -0.6568896040150364
P 4.254731822597292 0.964638217100723 9.782334255189074 -1.481290949863223 0.30478371094515255 -0.679634611021036
P 0.9048417321968729 2.913181113306975 2.6619665512648787 3.047758690805106 -2.8683142020901116 -0.5681556917127376
P 0.5792573116993625 5.746769475484392 6.641049879923096 -1.5218354469444888 0.8271560257751883 0.6751115263397018
P 4.613937205630836 8.667005251378209 13.215432728715955 -0.6106300588268645 0.12981679838553772 0.4245757781048365
P 5.614994766072677 3.883286459070203 6.997249281561448 -1.2611559254074023 -0.4655709895702756 0.5834990069380274
