# total energy = -340889.1716580046 ev
CRYSTAL
PRIMVEC
9.09211831291111 0.00000000000000 0.00000000000000

0.00000000000000 9.09211831291111 0.00000000000000

0.00000000000000 0.00000000000000 13.30723419635181

PRIMCOORD
 96 1
Ni 6.225491756078215 2.2068935626836947 11.441427402042262 0.7936892614763106 0.09312947026683316 0.8168952672791286
Ni 4.784481890016323 0.5563485513679121 5.771866869091361 -0.3807017024297056 -0.027904439719751938 -0.5917669033737744
Ni 2.414821221381212 1.6757501823088852 4.455062615864968 0.8607634294169886 0.3845143913075765 1.3178217535305625
Ni 3.4778899043245426 4.407440826632383 4.647072702649338 -0.12885494869290065 -0.5587986759778699 -0.0510076013961186
Ni 3.4282105686682733 2.618357386828 2.443341378790909 0.6555469739442129 0.015953180895146718 -0.43108246887510276
Ni 5.036488139354688 4.419642449701694 2.5020528249963987 0.9408399231546056 0.7816063621698474 0.3595602924654001
Ni 4.976380143742755 4.582573213786678 11.329806190466249 0.37277447716282897 0.6100842136257235 0.012123779846727509
Ni 5.592943977721272 7.756513595602235 12.19359200101184 1.7553749177316735 0.6953836463251766 1.1201915950454773
Ni 1.862356823049968 6.465869185814755 0.4505335666861347 0.6009539691896811 1.2589692021687284 -1.6873412140912039
Ni 2.510997651207716 1.5749004035571752 0.08913458402383594 -0.3309634546643139 -0.3764483264699904 1.5011403804889822
Ni 8.469735741689428 9.368882619627838 6.678102871848804 -0.11792776025743562 -1.167734377821447 0.8818966118511781
Ni 8.804571190850014 2.279785076950956 1.1026412196399542 0.45037911232118566 -0.0512009483538473 0.6991891361141959
Ni 7.122429249213464 0.9456257878715824 4.861345750870009 -0.7169348901333911 -0.4006660613667745 -1.3285406826099635
Ni 0.9213043707997447 7.526737576073456 2.635977003330248 0.5285357633282703 -0.8506566800002898 -1.0787811504194906
Ni 7.76951532510232 4.234772403600132 3.685757555039751 0.3931473843922262 -1.2496438110027446 -0.4382273074500001
Ni 8.100568452953791 3.7727291240649365 12.711269953841457 -0.9453234128472557 0.4772677091819136 -1.6015249896563322
Ni 8.309014362407604 7.694405333913367 8.719046177883195 -0.5594345097896558 -0.4346138790671289 0.6265914672521274
Ni 6.906673276460302 0.898970490838899 0.39468704702992946 -0.11024941777657142 -0.9788842795218369 -0.3911280399693522
Ni 1.9809907856493472 6.845210555187172 8.784371231108517 0.33167642157093846 -0.3027178295550593 0.378442988302516
Ni 0.21694431264523306 5.089922519964479 1.2931001910028457 -0.5387926651695882 -1.5206311422237424 0.15719390484690995
Ni 6.862321922263507 2.1054346119903724 7.00132223037351 -0.34274939155564843 0.14740314400873322 0.09455180453565652
Ni 3.5490266397152186 4.522992561049574 0.4970142950430127 0.10092736904469714 -0.6535646534068615 -1.2594276298623857
Ni 6.095365355654985 5.605336535279744 4.8048300512898825 -0.4345385457445033 0.771367972271291 -0.8519723134879198
Ni 5.158549830640453 3.052724257553225 9.255367519761709 0.09681051866284618 -0.4133683394247913 -0.49848496668947695
P 0.34471585436879776 5.769894788581872 12.252728958364605 -0.3590139330436269 -1.0245005346990548 0.12576936778904146
P 4.131449568607847 6.345980510858025 12.594618982293804 -1.221108165456897 -1.5074447254404553 0.3578921607343578
P 2.240434387946502 8.483019326863989 1.2013116175796568 1.0658384742158935 -0.06289252575916265 -0.2725302502280855
P 6.750588877629558 8.001046123507685 5.642493296082541 -0.6522577616699798 0.18942139742204797 -0.13700997369986725
P 4.658628785302911 1.0798618258710635 12.868388126549236 0.6577318974106736 0.9355089978599953 -0.6982123740232233
P 4.290343432064833 6.182540588135276 8.003941963259976 0.36473206647432665 2.5676308864665778 -1.8445032372589136
P 4.698197685152121 1.3474792427280622 3.6324895601990876 0.16561298214854062 -0.6122413691780424 0.5933347620815266
P 0.4212178489049286 5.540255150831066 3.451737334580455 0.4270702623919161 0.9642302770540878 0.33338414829066454
Ni 0.6134816057963286 0.07283059707309972 4.7625262421863885 0.8395703402791411 -0.17153757516309165 -0.7288918053849511
Ni 2.085695622658425 6.653566880779622 4.542158746914035 0.5868596958801441 -0.01260637591010087 1.2487696359279075
Ni 6.156664418794548 5.73656308204529 9.064275736949023 0.19802790814413637 0.5993609136709485 1.2168861569557492
Ni 8.617582681130607 2.7646677582373504 10.273956649636952 0.5344421015103764 -0.4571298007814579 0.2253811033461086
Ni 2.47686583824036 5.291658445942025 6.873279743517705 -0.18282034716576256 0.5285496472853413 -0.517931762560179
Ni 1.056231409807622 0.04918472440815452 8.925720942647066 -0.5096381550928191 0.8199595080267491 -1.206438222149548
Ni 1.5212296278655646 1.2748968604908735 11.254034293048202 -0.333628917311619 -0.1539985378380638 0.04516682634462544
Ni 4.129367473464128 6.927348754000997 1.4762645556678924 0.6029409177127228 0.6484856962220573 0.2931070459381726
Ni 5.961274791552008 7.94080174611778 7.896925909720184 -0.8318876269229029 1.085214821859976 0.0474057429774732
Ni 5.577896521551593 2.954183876908523 4.972527813120948 -0.30623227046622103 0.20221649230418726 -0.7837074676732503
Ni 0.6599941565680668 7.312063565425547 6.573800815690673 0.5589981935831858 0.24524596059083573 -0.1739227875658166
Ni 5.627384922718701 4.58478259858984 7.091890641489768 -1.8630853711364752 -0.60723800242618 -0.09318732008796209
Ni 1.0886720887281143 7.356742235889476 11.055837019603125 -0.22625142176620391 1.7636276446587689 -0.2278161951501625
Ni 4.798529213147534 0.3983229852306876 10.795480568605406 -1.2513201702639032 0.07830706054201998 -1.5485852042345072
Ni 8.380078360850028 7.280377532343171 4.275973338725753 -0.6714993835084112 -1.7673014939659304 2.781080271372107
Ni 7.305226292289837 6.319167853308549 6.883912066928474 1.2819036994777149 -0.7693607120332749 -0.5472932464414316
Ni 2.5029511263073134 5.342537941244457 2.4333609602788506 -0.02981296959637446 -0.09461968165911447 1.2310431651824219
Ni 2.4925588348257772 5.484775043551682 11.394545711258143 0.33625452785992416 -0.3409547615490709 0.07419972324186577
Ni 1.2387284129724545 3.488627696310277 3.3357373587196597 -1.1281944107452957 -0.46580033197226234 0.6977706585001144
Ni 1.2886714200661384 0.8057171771202808 2.396992486152738 -0.2938819764309842 1.8073983619868161 0.19926897964008908
Ni 0.9234501107731853 3.4876639317459355 8.16329679712651 1.1714020564810212 -0.49630364276744204 -0.043162651430403084
Ni 3.87312429689007 2.9827876818087105 6.636118196105767 0.283240437556738 0.5915067077338523 0.6061553108849626
Ni 4.509845357652984 7.213341342410214 5.788647283053149 -0.6701765509319297 -0.2284468867556259 0.1870032748988586
Ni 0.4212551265909078 8.986031692502252 13.149796468794856 0.5701498393246309 -0.059224332878956065 0.5739941527713857
P 0.15544885974538947 5.768621891987459 8.018859402134654 0.1389997504363864 0.5498743769050466 -1.5491464760546159
P 8.637085275380734 1.5774007361533455 8.271923064858235 0.2735867165170579 1.248660878264185 0.9966511165869546
P 1.8540193503565572 3.54730822931276 10.364206836604605 1.2251013457766902 -1.022872769287645 -2.5624843092686316
P 4.250028978496037 6.22902859018698 3.6994511947600857 -0.3768782149185574 0.47954005015585793 -0.42091169898968805
P 6.83222700992415 4.01574326817562 10.420988935257705 0.514438918915572 0.8728473571647161 -0.6664427949211102
P 6.43447410052539 7.99608182678947 10.110024843301646 0.8000650830956673 -0.8348544228607105 0.19692721888078987
P 2.477302259929873 8.597416362227678 5.875956169675854 0.05249215636144508 -0.15199333448257696 -0.5973009458181262
P 7.294306657933472 4.0701868739424105 1.4044322732095544 -1.7130121364947464 0.33471957927263646 0.6637385086160698
Ni 5.5527931822860435 2.9578116322026027 0.4443445616017235 -0.8181162841704233 0.5640542679498544 -0.6671249085897994
Ni 2.1465309877528798 1.4783057362782204 6.948159704107812 -1.3075779643153675 -1.409508063592966 0.4670624865141375
Ni 6.7944037968329924 0.9940958717631588 9.45227462158716 -0.38937146228956165 0.09185651709168052 -1.6301948467871987
Ni 2.780351662704237 1.9000982070743415 9.366204081508451 1.4741096016234354 -0.42996532455152403 -1.265976229614181
Ni 6.4104618154836235 2.22275021740268 2.5055523814191836 1.2066809342879734 -0.29279157158028285 1.0676590723644
Ni 4.233499507005719 6.686498534100817 10.382942965262528 0.18035877299914743 2.0833908597318893 -1.1815507148792488
Ni 8.177415038782266 6.9748368890911685 0.1931093239148321 -0.06603467093257015 0.5647448662589758 0.22204689676655306
Ni 7.774325055805499 4.1166657838755825 8.197815025131456 -0.49377110615357533 -0.16721169409422815 0.3373963547738512
Ni 3.1836143959331036 8.590015377743013 12.50070921761721 -0.33008516582441866 -1.5199752538072984 -0.545206539115732
Ni 0.4274232198026965 5.204774161254742 9.98355347452809 -0.48480566943017156 -0.4878999920847791 1.3626265685500791
Ni 9.00237022950341 2.3864356273257807 5.358104557382286 0.5735053860604251 1.5020302392931035 2.1086838299707233
Ni 3.7533083588815925 2.781097216423822 11.738112321844556 -0.7709712510535045 -0.5287635630683604 -0.5150140746927518
Ni 1.3931853225860542 3.6258550413066315 12.291027689254962 -1.1348821071781166 -0.18895448508795848 3.033360513101905
Ni 3.5324244312766484 8.519378708871571 7.929462055885257 0.29589000799994847 0.4383859445150514 -0.30559952197822854
Ni 5.881073213985398 8.223948501426628 3.3974037434478963 -0.957106264414797 -0.7281310159595267 1.119179608841195
Ni 3.2551875530132928 8.667616609409606 3.475410483600995 0.3898167773570964 -0.6500805515130029 0.07735575237234418
Ni 3.4004159623173913 4.73240223506773 9.040642593250022 -0.9278717930297117 -2.3638899870980645 1.7999413914881388
Ni 7.301053009883866 5.978313421680092 11.306877685953442 0.45967545002144705 0.4562990773500464 -0.09512258943746199
Ni 8.077101695023917 8.795188124525477 2.7353156719820184 -0.693754852472502 2.252529338535185 -2.1434605713302766
Ni 4.862483174898303 0.32331209813372735 1.5646381293706393 -0.857832886033755 0.32539855898202674 -0.05449967370977711
Ni 6.046913456000471 5.500577145559478 0.0755536865732924 0.19173487604657302 0.18450082019197903 1.0847777343225575
Ni 8.532053122104521 9.159127445105485 10.810570757732183 -0.6243340386765183 -1.6247212252671375 -0.9450063958274693
Ni 0.14245258551642315 4.990772967378164 5.668203079654143 0.41750215908750676 -0.1638576900203307 0.23182685897145233
Ni 7.187310607054449 6.243921480341623 2.4372996660267088 -0.2947435531003311 -0.6122495967081585 -0.6718084301083979
P 8.591742880264004 1.8290978534616384 3.4506062750351334 -0.4793225348284132 -0.8805195289979932 -2.2454199811839137
P 1.7616252418391682 3.2289658831683656 1.250392691836552 0.03566634305335793 0.7971039435848143 -0.38171780239904585
P 4.879385423248414 1.3725462135194855 7.7500800125293265 -0.10718826235274444 0.01575777705488899 1.8830181055046604
P 8.361539531164242 1.5215569441326997 12.20643370922577 0.34853514499949 1.5492171813915512 1.135131247074445
P 6.473679315633339 7.886312679758331 1.1664560719771904 -0.3705306754339747 0.13615739589158488 0.5240656433720587
P 1.7810823754966385 3.424819208456013 6.0409790302349435 0.7602168407504779 -0.2629608613720955 -1.0709603688234912
P 7.253583059030758 4.080570073305416 5.873427651512237 0.6700449104500719 -0.7284624311570164 0.03972945737913803
P 2.7375823371319283 8.666116409851904 10.045578088726469 0.8008544117661821 0.15868540179077187 1.3930375767417686
