# total energy = -340865.63691537164 ev
CRYSTAL
PRIMVEC
9.27763826124843 0.00000000000000 0.00000000000000
0.00000000000000 9.27763826124843 0.00000000000000
0.00000000000000 0.00000000000000 13.57876139338356
PRIMCOORD
 96 1
Ni 2.3179714677114855 8.198388932400263 10.416959786511073 1.7713283557371364 1.0344710156482058 1.6387072551335844
Ni 5.905262979269943 5.846804582191554 12.81889387818057 -1.7172827388456424 1.0493425334433992 1.3314653124559264
Ni 6.930571865910329 6.4383838920322765 4.778189536864849 1.789976309855627 -2.8912492136197305 -0.20289423509750218
Ni 6.559614787862034 4.152754270411136 0.9660322018898312 1.570947116869475 0.10208179436411452 0.9691997052442212
Ni 4.336163896159854 5.3295948186102144 1.1943715729759907 0.08727198304479163 0.07864670326962585 0.4426431771295087
Ni 0.9665164945937659 4.266461001817696 12.489744620280558 -0.7374764617301687 -0.3477183055251496 -0.9776426938052519
Ni 5.177061172146829 7.629280061811066 4.490849026876925 -1.5796364171133568 2.2568793879737648 -0.14998838823740623
Ni 4.965846465292901 2.581623384577642 10.823657109451458 -0.10372935726986653 -0.48511188781668063 0.20257464697455432
Ni 5.788624514253358 2.8622348237195165 7.606088750086443 -0.9602373538446106 1.7312147755457024 1.2403148202923349
Ni 6.019591312422932 9.052042960646052 2.571803932511658 -0.607302022894896 -0.09832566975579195 -0.7604299852025485
Ni 3.2808511282067383 -0.04239323910648947 6.086612041617437 -0.19154384308168948 0.6024238688669883 -1.0495448792621924
Ni 9.193823824660008 2.3868022640810405 5.337606986792551 -0.8090150932001036 1.6375325180991926 -1.2491635289322165
Ni 0.4517411832253078 8.452883820554094 5.612563705569517 0.009040512935713462 1.82513691691716 -0.1907506577564328
Ni 2.4747542723818063 6.22023878958756 9.329885024843014 1.3757304529218888 -1.8756161566136345 -0.21545690225386122
Ni 1.0398840559484555 6.4660776414814105 4.8223473827201575 -0.005634058357325781 -1.1224917039335636 -1.8072494951137779
Ni 0.3815317298480001 9.14198038348019 12.388650837743713 0.5378950930559834 0.3498816317250555 0.5899668740505581
Ni 7.646183918258745 8.743440887638839 0.5828815242097125 -0.2810686267163998 1.4563995859381822 0.7740758581207572
Ni 8.697924795579391 6.950806394402309 7.045286148804386 -2.8185494719621587 -1.9909247340806677 -0.7095630231493522
Ni 5.340366156335657 4.725685527858974 10.916902937998683 0.336604197889859 0.44933807265118103 0.24510454991696495
Ni 5.110633284020934 4.785832455054529 5.76817660008723 -0.42374274068057993 0.8982226027047112 1.2017698701396013
Ni 9.126208398869293 8.88456303935434 8.149279611140933 1.0290282473660795 0.32241736486651573 -1.6334583480298193
Ni 4.992584618027375 8.429652614986043 9.82927151805024 0.7423080787908571 1.0059438547427901 0.2909578608056538
Ni 7.976662661685072 0.48275539931693545 3.6632642336653474 1.4322648976735075 0.3706402044286456 -0.09243810062676339
Ni 8.016083345574307 5.076139025913102 8.852578382327243 0.9181098285469413 0.4138301095525583 0.15016245192142527
P 1.4487588405289467 6.84490215655914 7.441079463795838 1.0810563196069123 -0.486166297223124 -0.27020520163933465
P 6.151519324874082 8.16322668435597 11.979739870374997 -0.49597634133501034 0.9978423086815782 0.30058767058593394
P 1.4143109706111467 4.305844575154906 4.081571592806956 -1.0175500715231507 1.2621542847649296 -0.6818964104720192
P 7.1206242804716355 8.249916933887864 8.373125822140588 -1.8896590078599456 -0.5143702704611658 -0.9435076997947556
P 8.50829915236638 5.3970246916408025 0.414465489243154 0.2874470194389179 -0.303341064961355 1.2537863724162084
P 1.2578899938230756 1.093694356385633 6.043091569493169 2.2450194033113853 -0.8128892314435292 0.7401475808044286
P 9.665536051457913 8.128481930021964 3.1028559319985614 -0.776276979537134 -0.7721904681725863 0.4076301513894335
P 6.668246651279089 3.6280667305966294 9.707660239062218 -0.34937820972607575 -1.4408297565243833 -1.1089234783308255
Ni 2.0808535955436605 6.127972679613814 2.349044132922553 0.14692928969610825 -0.42218465216484063 -0.039023432451048924
Ni 2.556165545888054 2.8614647797649844 5.183012776927941 -1.1437840376534365 -0.927738609885957 0.24532643611978394
Ni 4.97840838715358 2.4752367095581396 1.3597501092592508 -1.024212828255307 0.4256121897891509 -0.5575110675146978
Ni 5.205088916564193 7.656862479604123 0.570737096059322 -0.8175784093890822 1.6001841593577215 -0.5906230195773182
Ni 0.4408891300492101 7.396801008646446 0.6694994081651567 -0.5965491552537662 -1.1685231922713295 0.22979054526771392
Ni 2.2687535980874807 1.9633615878304858 8.134153350135284 -0.5488371938897838 -0.17951545116224568 -1.2336098974683336
Ni 1.0553220455911216 6.9531258039039106 11.759464622244009 -0.4736159713619391 -1.6707853666150516 0.8613555544750326
Ni 0.6279921834882795 5.001936477137836 6.364718518497582 -0.6525063873456762 -2.311119637374568 0.8083257804425628
Ni 7.105436787055143 3.795991978512649 5.100725694393889 1.0344751294132635 -1.4620693826294497 -1.9817086147990388
Ni 4.894288043349461 2.513813128388792 5.388731411026872 -0.2709868170003656 -0.543375142333948 0.469170791106392
Ni 3.2396862483722977 2.6311195833418393 13.110402830924771 0.20914612954448494 0.5631114444206108 1.6522238015627804
Ni 3.853615388170461 3.525381833141685 3.1947295978846375 -0.16036073261066577 1.436302815188307 0.44912621375069106
Ni 0.3269643741494995 7.0088101872183834 9.30929980163439 -0.8534291005391043 -0.8138245987736049 1.9949156004076163
Ni 5.2116760395487445 0.6690503704856466 7.88959945110532 -0.8745124035719649 -0.8988003295850521 -0.49128279251408297
Ni 5.818359344063902 1.1016452921571263 13.337548169999506 2.2469117352380916 -0.31832493996469696 -0.23207651308841323
Ni 4.2883747827888365 0.6548175460200131 11.763918816250886 -1.4903085799808011 -2.105696208097309 -0.08622708672004505
Ni 7.971077523605214 1.393807390616981 11.669152382834412 -0.8338401226635832 -2.1253504919931268 0.7564527457223553
Ni 1.9953230507625679 8.671251586310964 1.7770387837477553 0.3685738088179201 0.40428026108059406 -1.035328478552494
Ni 3.7900728454645596 0.4923995040245986 0.9278584325486569 0.6750714171303858 -0.5207787450906708 -0.757175997041625
Ni 3.9806076972022 7.1674856300420124 11.89026911273258 0.3077908732025925 1.6908793091514494 1.052039363549272
Ni 2.970727522566474 8.421154298572171 8.256036463916892 -0.07463192568327792 0.11027024371217785 -0.7420481402612511
Ni 8.578985476337218 3.119633612569354 10.540960985049544 1.9336765510914762 0.8674292714729384 -1.2243402992409493
Ni 0.26094841315108913 1.4462631559052226 1.349215351302972 1.5666855133796438 -0.7855990282690083 0.1606342979870266
Ni 0.9104526558848314 3.981758124314995 1.1933927821663144 -0.044255627384265715 -0.13744423302380845 1.3746611311171102
P 5.264707018393384 3.645954016672988 12.962393888517111 -0.9261679229647274 -0.43621181968186806 -0.6283033077369115
P 7.439357534181848 1.5632912817180773 1.5426698757212298 -1.2294691358270826 -0.4823759769427563 0.10761300859498886
P 3.2172436420347923 6.9038244355378495 6.047220118406021 0.3489699185440635 2.423563748809613 1.1641037230473952
P 0.9858696474751368 2.0226828052434707 12.054423000798996 -2.3192001003898577 -0.8038065524159705 1.3762215336256942
P 3.5959753807324577 3.456003656129751 6.952475441479662 0.8298356294898805 -0.16894281785272194 -1.28914829685527
P 7.239368769315676 5.116533861793011 6.611838612200116 0.8660403615452118 1.7246666900145395 0.6319817850297632
P 6.017327568749369 4.755661576257684 3.1827530949821625 -0.009010945249358675 -0.07430925223653653 0.38890275018325926
P 2.7876982799760195 2.0687184450312768 2.0165679140334456 -1.3686136393714496 -0.367849786167702 -0.482825148665033
Ni 8.058064657553313 3.308238715601661 7.429822905602661 1.917911832058052 -0.10386228330330499 0.11246030938496115
Ni 6.096456543306038 2.4050699333156618 3.312375614388719 1.7044184812884644 0.2719275836470801 -0.11363067554397849
Ni 6.989252926300872 6.5027243116067295 10.308167419956508 -0.8943983438626144 0.8927029584380626 0.4425094797651218
Ni 7.989373025753854 8.686541133745527 10.29471020602821 0.13996391412186862 -0.2888901796433476 1.1413687433437247
Ni 7.937251255433843 7.070961084223324 12.641785624165804 0.6777101403048135 0.7232914284790383 -0.8888352479525402
Ni 1.4907865406979837 0.7552136501787767 3.7478326873851757 -0.7365459794960992 1.9620201352311755 0.23179446307162016
Ni 1.029075607670988 0.6312449233733268 10.036171195467388 -1.289526249019979 1.8756691213387569 0.17739634793671386
Ni 2.463147947235788 7.9891967506317325 3.9756172557185523 2.467081726696906 0.2763359971274209 0.7350591105379276
Ni 3.686719958073153 4.037368286525416 8.833595407202328 0.3480504920535877 0.7499702233218052 2.2918936992654206
Ni 7.318451355682314 8.467115717255927 5.708307074268067 -1.1513700775308107 0.567812449440706 0.2732668712837939
Ni 3.024862540333876 5.134217039833229 11.680138033997801 -0.20055196011757073 -1.2392154165805689 -0.1339732437560725
Ni 8.805601062281786 5.585379298446935 2.96500414768032 0.242205373992299 0.09216042148534452 -0.2459357875690087
Ni 0.9432852890257154 4.036078694842525 8.553560109380651 0.6092064390064604 -1.1911147044186001 -0.9268986304831649
Ni 8.42420664147628 3.060915441626785 2.8971512143566405 0.4841803771413468 0.29328728026977874 0.3431731093566283
Ni 6.488306862144769 1.2127821178359106 9.79169893965188 1.0011263787494886 0.7947187311820894 -0.44671554742666936
Ni 5.069319961978391 7.589042945777266 7.0676090736116075 -0.49367777510882077 1.688971036385143 -1.0972023332391554
Ni 7.337823063839699 1.3561865685009886 6.692169968642418 -0.18287691143531085 -1.494647059455155 -0.5854077939249659
Ni 7.67296845918325 4.823935714346855 12.082245709416418 1.5114975553535903 -1.851749634408682 -1.319829527989211
Ni 4.091299196256677 1.0494121901810385 3.5887583061272714 -1.0996016867092675 -0.9416151107577332 0.07077655649292972
Ni 5.839085587370222 5.843093526988991 8.01918207666845 0.07197057680103087 -1.3547970452033313 1.8391566282350196
Ni 6.748423998930483 6.42863309448754 1.6570705744506693 1.13440105377664 -0.17857417029489892 0.9542857642468662
Ni 3.607405430756355 5.810389853016396 4.446555727506723 -0.7995398067198165 -1.5016283758689946 -2.954577027144099
Ni 2.651762327906101 2.417483412968238 10.978101949344166 -0.08769132997039736 0.7159743259923347 -2.850291797370762
Ni 8.208677832949371 2.7706367036822317 13.404817539892582 0.6595915763272318 0.5750133380645194 0.47990951768013473
P 6.047860275428464 0.8227743379052544 4.844725045591619 0.3955374818909575 -1.7871300986560834 -0.02297794895241204
P 3.4521348810810784 0.9133352180134229 9.53967746979056 1.0991795115701846 -0.7613188155654049 0.840497994299733
P 2.522116614404529 8.734590020980725 12.959759967087093 -0.2958738100500323 -0.7334166898384983 -0.06765806546860606
P 0.9093653167104802 4.892302628816089 10.373657338879955 0.05276135086243171 1.7753986691517682 1.485211367963552
P 2.3759845381655667 5.487333219995197 0.283705531417012 -0.43886931190937317 -0.21798789620583103 -0.8113134023159768
P 4.695291985749974 6.3944171655199 9.959966532410336 -1.8367886422234754 -0.6225265531541343 -1.4558694244663248
P -0.21763854340956637 1.5761593656329678 8.520075258287916 -0.24772630381052818 3.418620267215938 0.24655902297530438
P 4.104529108053817 7.399111140510043 2.4732355230401573 -0.03396144454710925 0.3697506027348406 0.16820311147321998
