# total energy = -340866.07709052664 ev
CRYSTAL
PRIMVEC
9.31675130423622 0.00000000000000 0.00000000000000

0.00000000000000 9.31675130423622 0.00000000000000

0.00000000000000 0.00000000000000 13.63600728540295

PRIMCOORD
 96 1
Ni 8.281389850484834 6.35244970658951 5.466211461797347 -1.13605273044745 0.23029653836985503 0.945489763221791
Ni 5.137386980805138 5.685947967727533 4.58783469156768 -0.7735729503424097 0.9375265425106564 0.38391429582973235
Ni 1.2062397625102759 7.264876406996411 5.375954504021072 0.47817119483278936 -0.47682265122469497 0.2897648689388171
Ni 1.048814619487675 1.3811710808148476 8.300523662180726 -0.08548609478896245 0.5414043917608224 1.1065644911803458
Ni 8.311650657997257 1.564813561380539 6.730651104962982 0.536840940759856 1.1386806549886002 -0.6886090466055045
Ni 1.5324937518791244 0.9212077383011299 4.781465660967753 -2.062593977591196 -0.612552729770874 0.9088919094930993
Ni 5.9462859431954 8.273163159279948 4.69454969012927 2.2721890217476415 -4.119929792107246 3.1437066043573405
Ni 5.6109294880200125 1.506844736152 0.578556267028998 -1.1246362610803922 0.12409815073420563 -0.785240359378009
Ni 3.27900259284934 1.3387705466433464 6.143484296584544 1.1610716210892906 -0.1618581430917987 0.7326921529676478
Ni 6.983165804547787 2.728652789719314 2.010724448238165 -1.6035808437440964 0.2081786234248931 0.4940539275013169
Ni 1.2165440892063164 5.933140007419529 10.115531120451692 0.1748275587682731 1.2033657538718114 -0.5390456617206587
Ni 9.036000104323714 8.346467356788489 10.755140988992283 -1.0784893302106846 -0.9977559196153589 -0.5455708644336863
Ni 7.1957088469680155 1.013084879090464 8.843550498960765 0.4238455848070314 0.167235348243312 -0.0213632961671245
Ni 8.404985870330831 4.785456025455921 9.866033184867048 0.004648554515604898 1.7148360770773627 0.2590594694351603
Ni 0.6210434469855564 1.2882737557820994 11.040379845075437 -0.5029854256629919 -0.1909283209848776 -1.7098926170291586
Ni 2.1026975515636375 8.309256252969334 9.018105420521648 -1.1684589146922972 -0.49396265333909123 1.213830400848561
Ni 1.6842263599909832 2.997403791413694 6.507102184490283 -1.670576335928039 -0.020955262095428424 -0.2953516189979752
Ni 1.7323101123221452 8.64770586950375 11.884134636611474 1.9573075602468548 0.2598135739923655 -0.47106620835689195
Ni 6.403347117747257 8.556355125150514 10.36031105328871 -0.11902690685888533 -0.9809874419077687 0.14250930625154168
Ni 2.557271153576759 2.2966070918210435 11.839490628779568 0.19090415261516155 0.6521148083342124 1.386298201135406
Ni 3.313390721090828 8.23276572659095 4.687772685392651 0.9168481882256984 0.22602207936421717 0.3847817860363502
Ni 5.357914478902136 0.3488713342940819 6.84137603319001 0.5965923497868758 -0.1586928579899396 -0.12425653068894084
Ni 5.591327043744724 4.719521378052775 1.6970145325253279 0.1257981641444479 0.4473441821496037 0.005724561188603044
Ni 1.6572077818548916 8.373933138976488 3.0297301226408653 -0.6867336839596625 0.2869482254256284 -0.6876345985073771
P 8.597693549698736 8.588302264608673 8.610265573607991 1.8395343232894124 0.15808402076134712 2.6143552871063105
P 7.809459141207043 6.584371591259073 11.45776377179689 -0.7038415472845427 -0.012697135851694262 0.1727141119696961
P 8.203660196212622 4.598552682011736 2.534156294143779 -1.3279668123843646 -0.7462434092895213 0.3043399385395146
P 7.044022822611563 7.680086735690571 1.5233735842455312 3.577152174147981 0.9596745393626054 0.7980100003388514
P 4.339984889249338 2.9882640586028297 8.26538367212697 0.3575556033305455 0.5094846602340903 -0.7788735366197167
P 9.41308628759274 0.18597260001115212 12.989824294750731 -0.9813481676812971 1.5449450363787587 -1.5196456383820216
P 1.3525034377373462 4.6467668688580375 11.745415666410128 -1.0074086122137746 -3.908432902942398 -0.7061293148774548
P 4.876080063224806 3.6236851158572194 3.897634864655027 -2.5190282949675264 -0.367169986491858 -0.2530346033973191
Ni 7.81267342033013 5.001259930754643 7.4220509294149215 0.7193846372254643 -1.7665257921421709 -1.0235885644077467
Ni 0.8186815510257431 8.86575511181309 6.846284097659698 -0.3848684322128855 1.1982981095409169 0.7864467209812842
Ni 5.4275292429824376 6.78621900343784 12.151891540965467 1.507759942688029 -0.6800303037975578 -1.137146220621945
Ni 2.6859354860110445 5.781258331290368 4.164763819986134 0.8055762427218837 0.2423107892219117 -0.5337350481410228
Ni 6.304626823288628 4.554885069693163 11.427600790170821 0.1389922942372187 0.5207934003786902 -0.04389670138295021
Ni 6.856038736041934 3.9377434780605016 4.2365708155958925 2.2195302579013454 0.24110931271464284 -0.26122228141443393
Ni 1.0083892365454328 4.446056100311202 8.249838672947636 -1.724903488615694 -1.278704732924443 1.0312581651378627
Ni 3.2180989910301565 1.23723659335813 3.2383200675772508 0.8129619936629934 0.03184645508663547 -0.6315045882830285
Ni 4.6822077899717245 0.8385821313356369 9.143447399520301 0.8242483652100903 -0.1108310013116543 -0.7791483875476581
Ni 1.7442448704574325 4.176466591019494 0.18363036878928543 0.6628738466229294 0.4390359193942245 1.3578247762860616
Ni 4.234332931986137 0.5196939653717517 11.792855631241565 0.708108807201329 -0.6624280173347624 0.662171421239266
Ni 6.904849194957446 6.6712875620975565 8.706549537658832 0.2525898025504166 0.8714224517927316 0.8491651830564277
Ni 9.058472107932076 2.7340844555997763 1.3909406259988153 1.8404172401149983 0.5733565191873868 0.9119422662836488
Ni 7.001398686414108 1.2091559055987575 4.356513737342869 -1.05912172431735 -0.49658235035012543 0.3257981084132905
Ni 2.5536189871528463 3.0793353004236215 9.791648244233063 -0.5379418871335188 -0.5403170722339146 -2.3178788104752726
Ni 8.406355432739797 8.530734059676634 2.9847721402975167 0.46483513984551555 0.2294658149384435 1.5599106565496554
Ni 7.925713561200888 2.9251896537816777 11.201679824872796 0.23264035601168323 -0.9711899962013725 -0.40671972376002213
Ni 8.906199128257496 2.328945534824621 4.096556816994232 -0.5218838052293916 0.29409897753779674 -0.5676147316076031
Ni 3.309468368885554 -0.37408059937016364 1.1325591682580456 2.250142326360247 0.6421651533206683 0.8482354721533067
Ni 3.8138400054288173 6.627098211718423 6.735628113390671 -1.9082393419652943 0.30730750580827076 -2.1831764018626596
Ni 5.361464161064153 5.205361996695113 7.50015791210593 0.2654805424701557 -2.3528450421378126 1.3162168709372881
Ni 7.638692410635861 8.540069444260208 6.88370203335286 -2.3921551525913443 -1.0527096501434192 -1.831679346021368
Ni 3.769399102770487 4.540835409062395 11.251041835452328 -0.7987985576784179 1.437242553393757 -0.5690884879396522
Ni 4.697850615037414 7.820313156216886 8.429861595718199 0.8623814246363859 0.14882342139502755 0.35528017703280745
P 8.671705820289464 -0.13680903622965468 5.1060165482389195 1.1210660272306308 0.2552244119597863 -0.40660068168365454
P 3.3434931438348663 1.8850302960486336 0.09535787899334923 1.8193323944202409 -0.35873162591651764 1.199915847649998
P 4.128224453919948 7.005218554357486 2.904892179875716 0.34600055150309444 0.3871996514492235 0.10285878173945512
P 1.009414079164388 1.5469906165618 2.7998541965087806 1.552078047879114 -0.5718012588851249 -1.182834466687679
P 8.610215263152151 3.679082517787289 5.62884839537489 -0.03486672997019802 1.0764671575743332 2.067786834646045
P 1.312590476104582 5.193939659869303 2.0927994352147468 3.060134438761639 -0.785804459411595 -0.9416295089354364
P 5.181669498695084 5.674208861364956 9.993966152341443 -0.6760070415707777 1.1325364897640755 -1.3736015795043441
P 6.265971623051853 6.743604183991467 6.440177166447183 0.32439582874912515 0.7594341969481825 -0.6093645618508796
Ni 6.13546257390345 2.9217424558815557 6.340061222676558 -0.4200182406411412 -0.06666767653087874 0.5246906785505673
Ni 8.613485442781727 7.653850764645317 13.457321162188876 -0.5864591180076157 -2.655485738598033 -0.8310468761891622
Ni 7.247305014456869 9.150698626886964 12.657909447424815 -2.4509547392280564 1.483848169067438 -1.4547985599996494
Ni 4.156146756910936 3.9106876329200837 13.376609215895506 1.236160431804329 -0.6954741491564539 0.8901061442451638
Ni 6.514384157135513 3.4285643979592297 8.941907440127219 0.04800043913867862 0.08293736022517974 -0.4611772313779541
Ni 1.4559939087496592 0.9467030276354109 0.6866715732781232 0.09082833293748228 1.138938279525361 1.3424254110118556
Ni 3.6269552954867943 4.195230527697456 5.848483348718288 0.5870926378265566 -0.5813572780046762 0.05921584823852383
Ni 5.663923168171078 9.052537337493218 2.706638238589048 -0.6892163411722001 0.5914995086450006 -3.057666436837121
Ni 1.4622547654763673 7.723605279991841 0.5677609475509671 0.04371286750691827 -0.5510503994910186 0.35120497852216936
Ni 5.371218799446391 7.415602805991476 0.6464343887077256 -2.7386876653385093 -0.05839052412375105 0.5617189349484585
Ni 3.1745524964756417 5.136315554430776 8.716285542538907 1.2707415122133083 0.7377307438328198 0.04866532641618715
Ni 6.939432974971644 6.4487755960202175 3.3998250158984016 1.1299674434853184 -0.49986436353550695 -1.2934232700815402
Ni 3.32806460404405 3.5570423953718873 2.310416380273911 0.10077027464154259 0.4403721217071448 -0.5949558426247172
Ni 2.2274581652948116 6.355123614149875 12.258661508358436 0.6164980875718673 1.0241914880990686 0.8476513175150627
Ni 0.29017859750651737 6.657219267964625 7.8863297910295485 -0.39968235729726653 0.49366491959301434 -0.11887495466205335
Ni 0.28107799505019515 2.7387335143894003 12.826587362403545 0.05004523748284929 -0.7626647880703381 -0.74511315233982
Ni 3.918420536317655 7.491757929330929 10.573141983317354 -1.1366798225084875 0.08832047891396401 0.13643147548857792
Ni 4.926343935309017 2.6409728452921555 10.566569015429419 0.03407637285841873 -0.13106172653623235 0.803863630906151
Ni 8.91949413205067 6.4568252689545576 1.7016784981166824 -0.2556255040529468 -0.09909571515259707 -0.03414013621681863
Ni 7.816232419243229 0.589610592187092 1.124996761405264 0.29620882479194793 0.0010243274994563003 0.3758166064232624
Ni 0.3904929880751772 5.894168037645987 3.8129278954979466 -1.0650632866127656 -0.773173915131778 -0.34749770487391124
Ni 1.6543661727750612 3.604269006603559 4.191421839855375 0.10814265584621376 -0.4625103483670809 -0.2892452489899212
Ni 8.576628375503665 4.9186389821646905 12.848227380140337 -0.1386107425280839 0.5818151914777012 -0.15582144997941552
Ni 3.378626612162867 6.050065233491236 0.9736889971427178 -0.40038555401187814 -0.2964245403471798 0.645005965203573
P 6.677827921356706 3.8489827905078995 13.406554185546268 -0.8850140744342371 -0.8771727240129474 1.8531958799369053
P 3.050956476629644 8.69208155490451 7.210065960384469 0.6051615795131254 0.4211109594846876 -1.671876028576069
P 8.780162119628168 2.8501898075763195 8.933343482533186 0.04189201224809559 -0.8223272369279774 -0.012227909524759587
P 6.623613746813976 1.2711029835390588 11.077168900070605 -1.093498659135323 -0.5457410714629634 0.017198880376789735
P 1.832828539739488 5.437544750394955 6.626104114378037 1.1982076067096397 0.6021387335264018 -1.051429240769099
P 3.6030298787097315 7.765251157325748 12.981328349439591 0.06754982202551592 0.8746455867157195 -0.6362899254868138
P 2.840696038224362 0.7128833207705647 10.091654150780252 -2.1014263770773614 0.6800979238106997 1.244456353264534
P 4.875083170859094 0.589346928131488 4.6353836623867695 -1.977378105744485 3.4154259286483564 0.31856868054438686
