# total energy = -381168.1923407837 ev
CRYSTAL
PRIMVEC
9.32880448892598 0.00000000000000 0.00000000000000

0.00000000000000 9.32880448892598 0.00000000000000

0.00000000000000 0.00000000000000 13.65364833954768

PRIMCOORD
 96 1
Ni 4.782626281639317 4.509562839855051 4.586629028195866 0.2192621349325643 -0.41759111925688724 -1.1226027755901313
Ni 3.031600314424383 0.27454765460883107 1.860446315946448 -0.32256983128398 -1.0242614221050552 0.0900397755979159
Ni 8.576669802548889 6.942944225378551 8.34187405044189 -0.57331512442649 -1.6492274379386178 -1.281240354862103
Ni 3.5539947188873415 6.094508097354386 8.595708960020021 1.1968976296489644 0.10744125890381497 -0.18236526190621496
Ni 3.7466905083545883 2.4651366366537526 5.5713030197647475 -1.1740060697627717 -0.5557120666327462 -0.72618623352833
Ni 3.2390915881138924 2.493337613200978 1.0487917990140465 0.533729648824384 0.33557832772850593 -0.07722411189048636
Ni 2.414639816921655 6.3771895367635905 10.959278235721765 2.1500734486611037 -1.9855565277902192 2.3573907525269657
Ni 8.784842078980027 7.7025421464363815 10.633038741501347 1.1546194377060437 0.20550519035778803 0.7558246252200532
Ni 8.916844665200086 4.523173565882971 9.635939714979356 0.2176500532504381 0.29848116576589245 0.34510349361012177
Ni 1.2834382902461683 4.14107505500047 5.37713421203855 -0.041166961156612975 -0.15671130878353653 0.5459519019221888
Ni 0.39302067540168506 0.8190849098599121 13.28472721686019 1.3978434827708441 -0.644072140535394 0.09880029539936533
Ni 0.9652047762020076 5.7534376694539215 12.881124878310136 0.33092257412404946 0.7348778477650568 -0.0916523715006744
Ni 9.040516628841027 5.388886640174242 1.1574835681000644 -0.6602880881736242 -1.2750234274181138 1.2066871049355605
Ni 6.121514986902588 6.173261866461789 0.2772875245433068 -1.3802671644499778 0.041291916770251465 0.7886031052026548
Ni 1.0937277182764777 1.4948383330965398 1.7667412715786297 -0.6956117031755826 0.77967623502667 0.6757761565068943
Ni 8.174551676823402 4.1642011618018495 12.776237395772565 0.3654946556719641 0.6788337123862954 0.9762470990093056
Ni 3.414211909564277 4.561813474866963 13.130495021968486 -0.739012695869037 0.7612082581294697 -0.03697477745213632
Ni 6.6773251697288165 3.5477257621424743 11.176207461105893 0.24293351040757516 0.6903373421505208 -0.8330435949042169
Ni 2.871462053289858 3.5306167343596058 7.655177939315782 0.8451851153627573 1.2632076657301083 -0.6694998365798792
Ni 5.68283727563672 6.262100073428122 2.9660365422538395 -0.9100265373181746 -0.6211790379873044 1.1695932854070565
Ni 7.022061817868467 8.292439781562829 9.328527614363837 -0.5938988621151127 1.2181259429001214 -0.24668783524368484
Ni 3.263514398765773 6.068611335563087 3.7995512471925634 0.040957416248968176 0.056399204725335134 0.801202282023904
Ni 5.950629942776862 2.1122092980051823 1.5813788554702233 -0.8755976662163437 -0.3793081645162887 0.11144138120214354
Ni 1.2571124034395953 6.793916570617742 9.265338955864786 -0.5376235845621514 1.0869747419738764 -0.2283988071265099
P 3.5276315168620496 8.721228959868043 8.30357557570918 -0.37702271091622164 0.24272319416898197 -0.5516114142008113
Ni 0.9701397138776551 8.390560149185625 7.32466398679105 -1.210054992966529 -1.2919263738210396 1.05143181187226
P 8.253445378001002 5.784260040116188 11.317249659060739 -0.5433774563267931 -0.8173107575499923 0.5432355314322903
Ni 4.126755339816881 0.34190815456071655 4.096845326252304 -1.615541101429766 2.307580770983374 -1.985331556263607
P 1.8767969119088435 8.20257540608171 12.947127104300634 -0.10196172384648247 -0.6124809959926742 -0.09675703971709143
P -0.12174463259408187 0.55399759607693 10.449861131448966 0.5756381161327119 -0.7235053442620571 0.3083721996273593
P 5.251296099950944 2.3429292953475493 10.201787691641117 -0.22838106651469703 -0.49768535360631705 0.5572778684579692
Ni 2.0482416843153626 4.70144702331515 1.3971368288038686 -1.1757009409666914 0.11296193161172802 0.24335465710539378
Ni -0.04109991477807167 3.883516086594137 3.193806771556434 -0.4341577653663168 -1.3107437636378587 -0.44940852087780014
Ni 5.007179939088294 8.173357589824379 1.8715056138944255 -0.11821983757655771 0.9600648328224886 -0.016099733775340016
Ni 9.010114054389355 2.414695789749734 11.314204737213233 -0.5248955954725218 0.32929969380864577 0.14069539297125447
Ni 1.174375234733892 5.625996868722315 7.4279804986205304 0.8058554645251993 -0.7681276109571223 -0.9899973587158627
Ni 4.64158408368447 6.680543607343369 5.929138242555394 -1.4629008773918095 1.572230868677905 -1.0879687304560295
Ni 2.3842838864933813 1.259314001344043 7.546043984887938 0.21405230859685073 -1.2312568238551245 -1.0072615451129492
Ni 5.986573827208374 7.2554311957399165 7.63669011420123 -0.18649651046576912 0.5649880926180334 -0.8359062611639926
Ni 7.2832776777093065 7.597145311163291 5.271632894153046 -0.9844039237884853 1.2890914754754057 0.8941926556097116
Ni 3.0367404858029876 6.9667326773122005 1.734559694074507 -0.6365496069061036 -0.011895722996321448 -1.3781305777229491
Ni 6.851997708554568 4.518705068441316 2.0449476833829032 0.8568985471449435 -0.6770642791906984 -0.1746180138606283
Ni 7.97198601200486 9.236020388516913 12.336317087723337 0.06075876724561149 -0.04821615469391051 -0.11515071173293072
Ni 5.75075097370612 4.033999034885004 13.511800584453198 -0.014340070771755949 -1.1318610609636055 -1.1015534111189995
Ni 5.824793696450192 3.0247063277659647 6.112110618904819 1.6682062930339656 -0.36711753598736774 0.7904694689874322
Ni 3.3339375452940576 1.8468607776911639 9.590732327500742 0.09259982301560828 -0.6007526518121524 0.3350993312095583
Ni 7.685106610489718 4.256574985741851 7.626327677962838 -0.0072212003387875645 -0.12379501767149002 0.1920138407395725
Ni 3.9898271447258535 2.5345709298859718 12.065005595457952 0.330521739141205 0.19181612290646965 0.36102993503239117
Ni 7.290451528508122 7.51702020776795 1.8978025814064907 0.3684799635525331 -1.2965579590557799 -0.725576367858473
Ni 8.219367254505462 0.22493054115804462 1.4020251224561167 -0.4223029229102598 0.25491048026379326 -0.54489055053721
Ni 8.888130604395469 8.137553637463064 3.4261649070005857 0.28386418718366596 -1.1861352489261379 -0.2146619171563916
Ni 7.132878688660558 1.0699672527568673 6.225886586541362 -0.39737787753380593 -0.08346520770419173 0.23230894081419348
Ni 9.037400808077955 9.308738420996445 5.298121102161048 1.3300077540737933 1.2218931232520376 1.6146149900710711
Ni 1.9628644638852581 1.2802105238269357 11.526697183091613 -0.8140901937301658 0.8499902500608847 0.4074856553917692
Ni 4.388167104555996 4.63613606175143 1.680149440779207 0.1404670790105323 0.12544592301135168 1.0274251645450176
Ni 8.105434562950297 7.000036510019312 13.344038824134289 1.0664462830032215 0.4394190137652561 -1.4877765575875668
P 4.490476105480052 2.729356371601508 3.157625002605586 0.4107913227262345 -0.3250208639276338 0.26490718646518896
Ni 0.9256711677296849 5.930181202918602 3.365324308639456 0.40954253792079787 0.6835007788446615 0.37087494614727096
P 1.5678922025445456 6.830308237673887 5.444801629664404 -0.1585113381067528 -0.9688235528517251 -0.12848393850672712
Ni 6.669395685750933 0.7653407332187545 10.620258279089937 -0.5061044309079478 0.04060363245397523 1.2013577223028469
P 4.416554657196819 0.7019048613956872 0.259792284246692 1.0016043468271716 0.21364556007673524 -0.7469700030429006
P 5.199092108962433 7.9843560070103585 4.19491998273217 0.6696258206347823 -1.5215870783791086 0.45350531665499316
P 4.762093582538938 7.14158246342687 10.292994482115667 -2.04460988230895 -1.361300650649804 -0.9137137563617749
Ni 1.743553594666363 1.486871533899937 4.28917076217376 -0.5492395715345251 -0.4891552046481189 0.12726472138764533
Ni 7.955240807604506 5.950751217237699 3.911224502254265 -0.2799059738668663 -1.3377794275994124 -2.1179120334372104
Ni 6.737822468077727 1.8859018252763897 12.938470906438189 -0.262138108360484 -0.43059241661256165 0.05080782668048669
Ni 0.5551888844345485 7.567759576421723 1.424307905314437 1.1013916887301547 0.44925014092306503 -1.1721309642272457
Ni 7.140901460685241 2.544151612292191 3.848185104630092 -1.579488321571267 -0.7027151469895834 -2.072553402796753
Ni 3.936904835776992 7.1945700740084915 12.823725675995409 -0.27670160799695576 -0.04945105554227613 -0.06423309894745712
Ni 8.453632197626177 3.0425989751419418 5.419515904579635 0.7359222298691712 1.296596268492883 2.1195336282010335
Ni 1.5808125970261557 3.9280797865498416 11.342632403714179 0.8633407032258615 0.2238690375769564 -0.6664047425943233
Ni 1.0951177101737772 2.6113469924012427 8.991254942848544 -0.26540623758879456 1.1561867821931637 1.19159421515818
Ni 4.720347181596552 0.10086956636195281 6.185990087566993 0.7441340762560023 -0.6138665634862911 -0.48363016106483153
Ni 6.069609517663832 8.485928519427862 13.45775975182322 -0.4290726375339256 1.8953905110270843 1.251712520606315
Ni 2.5900213449030765 3.6850084518113353 3.573378109251161 0.2956007588943038 -0.046200152705146234 -1.1316324898925672
Ni 2.316099653088264 8.591362669919674 10.545109160110833 0.010662621920168733 0.23776482172244215 -0.644621842391277
Ni 8.249042182192106 2.5833419207522943 0.9865854636477852 0.2898733694922233 0.9003352781723398 0.7964945921355896
Ni 4.59805588104823 4.827171323985661 11.089684663461101 0.012022735492488971 0.6662533046181235 -0.5729489993363228
Ni 8.749383292391869 5.651902959318295 6.021873091236506 2.1664909707871787 0.5314837902130009 -0.18571540932537048
Ni 7.255328578888438 2.3105116990850263 9.084496345623773 1.3534983809965657 0.5377156300553255 -1.0815579418336791
Ni 5.454440150659638 3.716334577926315 8.541736227664206 -0.5758474039300405 0.4873083812473672 -0.2913844068201111
Ni 2.578127118936251 8.716461940676632 5.93626544933081 1.1265422198538533 0.03662485031188531 -1.241398540274817
Ni 6.577180451490489 5.8093825111190585 9.325961260196406 0.0880998782627257 -0.5847691318997026 1.5234891804978279
Ni 1.978023771490035 8.125752699543039 3.648951688843198 0.028800983392092333 0.8525842360403059 -0.29152787437651084
Ni 4.311391042040725 0.21318650894656532 11.618654009462428 0.2711739933105072 -0.43789820624535547 0.4836535581035993
Ni 6.310003485459218 7.54152697766195 11.468600186186833 1.5388900884339303 -0.837778538486041 0.41724864831580394
Ni 6.751619770199245 -0.030712290767044403 3.4626200099285533 -0.13739461073279566 1.167066405220145 0.17262643735189623
Ni 9.231981016090533 0.8606708553618047 8.340427152836043 -1.3597438476856454 -0.6319799852575503 -1.2374827501601784
P 4.595611734222106 4.7878317546506794 6.780278791056251 -0.5161366183329692 -1.2432733887000265 0.8938005623776154
Ni 5.411564964350989 0.6200828484290783 8.105365529795666 0.6042354681544304 0.8780965213787975 2.916176572989029
P 0.7585876115110017 2.0346589447014822 6.3080677584881455 0.7377142887725876 0.03045368850416691 0.09563218208402886
Ni 6.650840693242686 5.4047642657393675 5.874427601749402 -1.8812597280526568 -1.0042412702293866 -0.41451119477998294
P 8.908187534457173 0.9814089099309293 3.3343442811780997 -0.11831471128320914 1.5750426270950875 -0.19050486029421385
P 2.089008560766363 4.610519164100527 9.33506803932489 -0.9807516717478787 0.513273180742245 0.681138192149756
P 7.839321080652531 8.617501980632648 7.2392056057602305 -0.08695882267974701 0.1725855568116318 -0.1850312387741523
Ni 0.9599899743859642 3.0743262398581552 13.43964134737399 0.8166430420590065 0.80898809661691 0.45943916564092485
