# total energy = -340865.80473355425 ev
CRYSTAL
PRIMVEC
9.35166289247147 0.00000000000000 0.00000000000000
0.00000000000000 9.35166289247147 0.00000000000000
0.00000000000000 0.00000000000000 13.68710392370177
PRIMCOORD
 96 1
Ni 5.194138080417819 5.623659962860043 4.939251958682992 1.2475326781970129 0.006158306291911975 -0.45149805641697727
Ni 0.5714698402345675 8.022155790532958 8.939198569458485 2.530357089716784 0.14278955649612182 -0.2561209556321266
Ni 4.077568219328405 3.8321151200803945 3.4035452369334585 -0.31189461095832094 2.1506619741747217 0.22496869839903835
Ni 3.4211001787518893 8.879628476030291 3.7380710561005994 3.1645690496286467 -1.4364159437274036 -0.21392889564510897
Ni 9.392436269315764 4.186879808352292 4.717835438891575 -2.0268679849444964 -0.9045685995273969 0.18705726806524559
Ni 3.307945056227376 7.01918058012993 5.888082910541191 -0.1053463240479992 0.0928618184277433 -0.09551365422829357
Ni 0.4075351875193006 5.840581138238442 6.865861935273327 0.6801719715817447 -0.6865768466668241 1.088345397069158
Ni 7.905531201028561 3.6308579802580754 13.309216670534648 1.095063689629598 -0.5820910708469071 0.957918218793131
Ni 8.939329492740745 7.129951028584713 10.915383582042782 -0.03414527842314119 -1.0918917196595195 0.7742157261327312
Ni 0.43665346066017496 6.595400618781098 4.614347130429341 -1.3965283635038466 1.9335690789793347 -0.40764789200124635
Ni 7.446037238611867 4.357912373298642 7.164692456698644 -0.3961848856669693 -0.01390195479307283 -0.6485785130461797
Ni 2.293392487007377 0.7521187202628974 5.253753996994804 -2.1490802315098985 -0.6412112740478312 0.6743389098397353
Ni 5.657064103162321 6.5734335623505125 7.1567407376339665 -2.0695051028887326 -0.19149524923194117 0.2932944793586304
Ni 2.6430698705971807 2.3239350184259773 10.697908788213686 -2.2139399082977613 -1.2792855451285776 0.11107294211913128
Ni 5.387455658337385 4.377130040801772 13.580810473418422 0.9943517790298165 -1.090363198830135 -0.2998302235946191
Ni 8.256695499038315 4.2081641933825225 2.154076087188456 0.8569484265462725 0.476932694439998 -0.09047892001786353
Ni 2.5021309572445403 4.634852521930126 11.477855252120897 0.1802235329728638 -0.5569027445067377 0.4404220011084738
Ni 1.9171189737928032 6.281296961313877 9.773454816345954 0.4913599256089215 0.4845004794849269 0.07060043592638163
Ni 2.1730646389476314 5.132791171016098 4.6276377139113105 1.858258124951161 -0.6518363578618451 1.0301891004434
Ni 1.592307662169337 8.52780020994622 11.619845292396823 -0.4840592781824502 0.3278490774050483 0.28052920927316205
Ni 8.205354869066449 5.774062759187461 8.802204187567071 0.6905939382460171 -0.7015699776415465 1.646325176690158
Ni 3.697984217405262 6.628187549324152 12.129976639726388 -0.14176908565140744 0.37645809666200325 0.03678631559041407
Ni 6.31298974728376 0.5336666776483613 11.478963424188596 -0.3825454405066637 -1.451584938158358 -0.02758742269996539
Ni 6.676675922075359 3.707803463574745 11.318276604039673 0.49110821460943166 -0.6382537340814041 -1.3269568830626115
P 3.821304597630945 5.873732783639219 8.5991562042767 0.012565238259520294 0.9876975069380927 -0.46689099393327976
P 2.1243611779469975 1.8906444157872744 3.4508066714966312 2.069204026708546 -0.35452350137244104 -0.20732733116819133
P 6.880242922663261 2.643453288780941 1.6226743823231886 -2.0349744161017145 0.36121428312905535 -0.17600640956772268
P 3.183680158036819 1.2238240842492198 12.581391700461351 -1.8539780095185683 -1.8148913279297518 0.9390159825719891
P 6.432719088910317 2.8101934404017745 8.874567356004649 -0.3559615193705482 1.1530742047061109 0.07629337254610087
P 7.852254776811853 7.830811413510307 8.853065077226086 -2.159829756716919 0.8011914833906266 0.3628237937080203
P 7.441754176949369 6.154366839163032 1.325504716249967 0.8624487875392114 -0.6152791275631017 -2.083970643494759
P 4.684276060983188 8.392247854492267 11.344022667496057 0.3106669091988069 0.01771001568525337 -1.192616228664791
Ni 7.7248477198470615 6.836514546388498 6.641667036399096 1.6969861933801353 0.1123554083759807 1.514219325160128
Ni 5.405364093017917 0.7119916694165803 1.7250816385404772 1.1407961586697062 -0.5218730065961141 0.952697850934456
Ni 0.20071193786833755 2.181331509056034 11.801554651011458 -0.46553962211170785 0.0011762796962882967 -0.7247057923280616
Ni 6.467030340525395 9.153912752364505 6.575038307724497 0.7676447577834327 -1.296629949944296 0.7065666595251896
Ni 6.634069745362822 3.5317116489353566 3.839342085261134 0.11864484092911826 -0.4472989307339651 0.7608377621639284
Ni 7.18147869181695 5.7485514224728425 12.570606427502051 0.38677027722128876 0.5954716059188712 1.1062443888367657
Ni 6.795124085868374 0.7932351770565776 3.89852501984036 -0.8248134936849407 -0.9477183954419937 -0.7387334740657213
Ni 4.489817580175359 2.7209037619006127 12.19158259019372 0.5662749297502571 0.914528024732954 0.011414926705160986
Ni 0.8780940376195481 0.19127891538152123 0.37102723026116435 -0.7577830344980047 2.46013203485195 -0.7585525656741775
Ni 4.860433337263706 8.986012994529371 13.535040629106708 -1.5579280789019878 -0.23627872409521888 -1.7809805341149199
Ni 4.51252341798441 0.8328375996075538 5.923053454399077 -0.09206014846205435 1.2497497404529896 0.49817052077285173
Ni 2.381859219162906 7.904399649803315 0.17539979157601507 1.141655421346208 -1.3240757048600744 0.6749701156658311
Ni 4.440805514295112 2.7833541675385223 1.337966742388493 0.6783544587570317 1.2157466440346674 -0.36304028059420057
Ni 0.07408667993189721 1.9383940071600154 3.1619674668403377 -1.3693512888684223 -0.5594139409643656 0.4880367747729594
Ni 8.883630987802233 0.1662987531263575 7.621033973511783 -1.1201016064348324 0.8351071623014651 -0.10968068975729499
Ni 3.903898485410822 3.9484404563681985 9.611454087542924 -0.4203614829131728 1.1074587208598412 0.9357275416287045
Ni 7.905306761116115 0.7909898427658225 1.2655175386511448 1.3162495239474363 0.24166338544589994 0.6231243346391333
Ni 3.6604092353967084 6.287609333851401 3.2887919151990737 -0.21482029711112682 1.2418713661461773 -1.0269394831578507
Ni 5.22201538787613 6.517576079140684 0.31870841633755725 1.3657846545630865 2.720186521210528 0.04275050359364896
Ni 6.472987349868214 0.38110925816146834 9.05119969676651 1.420733242884824 0.2116773806067709 -1.0908892465369342
Ni 1.4257451921458564 8.888409687604714 2.9884838310168247 -2.4819306187842805 0.378673102035451 -0.7990929489903851
Ni 5.724667275123454 5.094589627585302 2.2443570419695846 0.23051816746235784 0.0580987039149451 -0.06063946805892783
Ni 5.822485670297539 5.023105515471468 9.087799300322228 1.6274342533229262 0.06664762192622069 -0.04232447179982388
Ni 6.41095776906614 7.623597264345168 2.398514530998952 -1.155801630939603 0.9313962612432025 1.9006018800246947
P 8.962119495516964 4.1320697114005425 10.575012038322743 -0.44796073268768016 -0.24393906885395408 -0.2094484912762522
P 4.842590364224304 4.8198658230892155 11.524910950097661 -0.21132925323873283 1.123694465992413 -0.6818917824863289
P 4.1461907225585595 8.017966245500645 1.7705092119857113 -0.27132208885259723 -0.059534407920207144 -0.26911171146483975
P 8.447506831268909 8.772056296327854 2.9953956451538386 -0.2911296104968277 0.11658744417945728 1.0676598436953484
P 5.019355498601028 8.207271959985253 5.132540546447201 0.5881053953617872 -0.884834097212947 0.32079936964711847
P 1.1559964723756413 7.847653758606724 6.454331717312499 -0.10662596209137121 0.46866659777646386 0.09796571531321192
P 7.415242212291766 5.669941343138872 4.601946825266737 0.9705865582894189 -1.2055589048683883 0.3623085446344986
P 4.419960657426754 0.7231902858812997 8.226264252409635 0.6561151877428572 -1.0143999559299433 -0.551534795326605
Ni 3.4480236165823093 5.466449155855117 1.003841174398546 -1.8730627940641613 -1.2033163886911147 0.666166401331272
Ni 3.0184923824770657 9.270920760052663 9.847966996945194 -0.2987053659615565 0.14215603667718096 0.28977001114513967
Ni 4.326733928794781 1.6797831180448994 3.5924263859170225 0.20647886712496696 -0.6412392990722892 0.18317104563696196
Ni 1.4490775913771508 3.985594613540917 9.203195081305989 -0.8816793536340494 -0.5966987934577529 -0.5239077776379558
Ni 0.8109715411375688 2.1011690536609815 6.87403341841894 -0.10099781727131638 0.14295462131907638 0.2259724570732044
Ni 4.848070438753177 1.7984183150982864 10.045294567967117 0.6057891857947955 0.08430852954109351 -0.38115061704166614
Ni 7.042550386013298 8.23337245147004 0.3218084926282082 1.0344954411282379 -0.256241540370391 -2.4773532838262433
Ni 8.394810210159351 0.16577038416580914 10.535155250537661 1.5882007617436003 0.16090194982611644 -0.7979153837425161
Ni 3.1102415483521075 2.9039158071737314 5.4576642036154865 -1.6062149389328337 -0.5503083791186716 -0.5081119482562798
Ni 2.775096649093138 8.986845292538023 7.333974390327921 -0.4794089238946324 0.00170978360225512 0.3390297766122161
Ni 3.5183481224818416 2.6197842296809783 7.858313719281575 -1.2246262059124844 -1.509181505625904 -0.26887208465020795
Ni 9.246512919574235 9.294374730903199 5.28799885180245 0.3000708788505155 -0.7245178446869716 -1.0071664142959815
Ni 7.290135664429539 7.803364282550848 4.782506864496391 -0.7293517757405051 0.7999408988129773 -2.8881901150784324
Ni 6.995100047857151 2.0557947846949536 6.759089322758977 -0.10200671815180497 0.2267787550245836 -0.03325439117775563
Ni 9.319278209521611 7.73203914870833 1.371913279145847 -0.43668541688417695 -2.0760611588396953 -0.0983413534850758
Ni 4.018605983996416 4.56208723198275 6.7483854092679385 -0.21255515522603394 2.064691740660489 0.8902164445707831
Ni 1.738427396834257 3.962907479057903 2.5045623896293643 0.33084929768395277 -2.1747251857715124 0.2031608584953275
Ni 1.9914740464533331 3.0735549743303165 13.189016940258254 0.3456742785119273 -0.9833217464679002 1.2781480890900245
Ni 6.326297163759163 1.7717754271584234 13.277531365895179 0.3086388230251846 0.7785230952588333 1.5434309137270774
Ni 8.532223546553997 2.4854662937454752 8.961303095335444 0.4172496767570685 0.09483488299371409 0.04998533077919133
Ni 0.7408480959929351 4.930907469771536 0.5487172441104236 -0.10457242199645216 1.116880014173741 -0.36788346761911483
Ni 4.924445470625714 7.988723595241625 8.99367294170787 -0.94982258626919 -1.0365006444837248 0.07797333135168506
Ni 2.927940229468399 1.061713005822571 1.2547462931863733 -0.3121383515380108 -0.8546316054876378 0.37364248159007907
Ni 6.428071312390095 6.94360043961397 10.709419750223224 -0.4138774178507259 0.6792731139165592 -0.48990493832994986
P 1.5122948333825816 4.097038381733036 6.43859193328597 0.6072608852443155 -0.7997555222750485 0.7524140568766073
P 8.52347038996863 0.15934579167206195 12.687452651419989 -0.52556382518414 0.2670676844516175 0.22587244116023034
P 8.23529889405186 1.8038609829750853 4.966995537360139 0.6322458373244273 2.4565196349103435 2.0879977623762813
P 5.181597500309936 3.1864014919752184 5.458608721580361 1.1210302888966885 -0.553646185242653 0.14808860011153205
P 1.4127837872021394 5.984540638746075 2.748124582615022 -0.10316191480217073 2.056084201497136 -1.3001276786849094
P 0.5284222650275557 2.5844255918078227 1.2409245352449492 0.16223275282239802 0.7683795790669282 -3.1931797713868035
P 1.35201668090757 6.336714916361832 12.108721244851512 -0.06699446374267816 0.9099797432406392 0.8447081757263388
P 0.9758366843231817 1.2858536650512942 9.494114095817608 0.4585991862381327 -0.7101973142992414 0.04983620679583675
