# total energy = -340890.72915747954 ev
CRYSTAL
PRIMVEC
9.04788983767304 0.00000000000000 0.00000000000000
0.00000000000000 9.04788983767304 0.00000000000000
0.00000000000000 0.00000000000000 13.24250135215807
PRIMCOORD
 96 1
Ni 6.375550378905362 1.720211971544003 11.463702742755846 -0.5619315651798967 0.237342646583359 -1.8755886458098086
Ni 4.725043351154455 0.6518959433827557 6.05481625376912 -0.5473325843197993 -0.9351518716308928 0.6199243396445968
Ni 2.687512832911633 1.716321378886808 4.7286055054082645 0.6873204097010679 -0.40531255899985036 0.6792880263148946
Ni 3.370348035808991 4.149642792935088 4.701233828881411 -0.5963869186442889 1.008968757612043 -0.19889565546107038
Ni 4.877002662032579 4.6795415128450735 2.822837598207772 1.2685033669114087 -2.1231609405409757 -1.2408298122555406
Ni 7.483772125472561 6.285885789991863 2.5090965871755913 -0.4319993242624173 0.19906663382129586 0.3569475374329014
Ni 5.084090766074169 4.601756803370871 11.599596620326722 -0.04259572318333954 -0.24892598054558418 -0.14781683450738414
Ni 5.7683826792455 7.47398230860027 12.094032135771878 -1.0527060505989936 0.7224429644358139 1.427889394313631
Ni 1.5467820179321021 6.46141485406067 0.398563169270956 0.4757636138325613 -0.14361050973552042 -0.4707332504975054
Ni 2.7967208640101116 1.3522704808521435 0.4742686736460341 -0.02235754175959375 -0.30738926688879964 -0.24128491906055866
Ni 0.7488739417027911 0.11182015691274003 4.723799266293143 -0.421045653464391 -0.23413828071344836 0.6875163277619579
Ni 8.72693410201513 2.2162172958868878 1.3359698024074855 -0.5039449613627837 0.31484983693190294 0.0544402812267514
Ni 7.041981757413197 0.6757823727199541 5.003400779152931 -0.7560272281491623 0.09862700304629467 -0.7338213814760847
Ni 0.7356006872188252 7.514272562326992 2.5802084778482093 0.6536253314414678 0.6559568077881219 -0.1494209457697104
Ni 7.521393251678648 4.03766610752707 3.5837388999552364 0.44735600922414565 -0.010359745967769255 0.5155866593667701
Ni 7.592156798590099 3.495815125058585 12.473787456306761 0.41393938143691295 0.3507434655047185 0.2210994452516192
Ni 7.833735458932219 8.911158188278273 7.1648285777476195 0.48385358992954736 0.09147933625791987 0.09567049152113201
Ni 6.718691603380077 1.1318638828770857 0.356627104371342 0.5574611881133689 -1.2650169510247053 1.2316286053722465
Ni 2.0724644211484757 6.346036162050081 9.085150920641983 -1.9730164863416795 0.5145111669144041 0.3418363928230758
Ni 9.082543318772672 4.884702416337866 1.3019804992074404 -0.8799456587723943 -1.6081401809800044 0.4624280730659197
Ni 6.170416619082271 2.5049264147204724 7.160339919568004 1.1357076884032054 -0.48342215881908357 -0.2364671859569411
Ni 3.3617615882934597 4.4034089609731195 0.6631198508042687 1.1527898406964727 0.92080228777744 -2.1082341440278145
Ni 6.033142033512583 5.9138637009548995 4.667743064414881 0.6761993600872419 -0.3893274964255037 0.5894279708279527
Ni 5.1780078632408815 2.986599881461038 9.460575016281517 -0.2159592958115765 -1.2113122624123978 -0.6016286266592026
P -0.02824117874628686 5.292119850665406 12.401708346203785 0.7534682091727346 0.3242806433274996 -0.6426721748640738
P 3.896455689850685 6.190068635946056 12.570218962076808 1.1408624931312676 -0.42573663118215715 1.1600940876673698
P 2.5909537518939882 8.350451403257242 1.475598648929271 -1.0356107856796035 0.679078738517566 0.40221437969050083
P 6.602371930819841 7.728237062692926 5.825879305195915 -1.402132082843869 0.07378526141226648 -0.31156216731956665
P 4.659554724054971 0.666669338012217 12.708087089223966 0.3960568447295373 1.082644747139955 -0.9171698332311753
P 3.918713499005802 6.030563384890954 8.107761662035346 1.3599330808783159 0.7108676008933886 0.4221005770914666
P 4.85507962480378 0.9138459278357477 3.924467956982491 0.3495034224500303 0.8857203564726424 -0.570797757321275
P 0.31889197475250886 5.548166086958352 3.356801535050031 -0.15541007347360974 0.05679438328122477 1.9772153549143754
Ni 1.4448213466438868 1.259891524968509 2.6802157097069164 0.6131908775755052 -1.4490847974443237 -0.9602499522501009
Ni 1.6129401888842214 6.789292288273319 4.812867599262201 1.1142842284221066 -0.7302514047366392 -0.09169325204093887
Ni 5.799932671328383 5.355907474463606 9.068995008435731 -0.08323123731651472 0.9110781185111407 0.5522541899911327
Ni 8.682318956915992 2.353319971548466 10.190038519780865 0.028470339525550968 -0.1425455588061158 0.7583371072292616
Ni 2.440677348537349 5.234376217320709 6.7993092071821115 -1.8795232049775243 -0.5738812813426052 0.5076483783562998
Ni 0.0762348059342547 0.006327189407387436 9.271048866536708 1.8392445599631357 0.6959559738888789 0.24426508473480513
Ni 1.5698269935085583 0.9594020534845333 11.477699828431847 -0.5482409550666816 0.8370583724905648 0.18662609406509792
Ni 4.294526653911057 6.844457272996387 1.5447380996035895 -2.620498423889571 1.6606739892126625 0.7567347957391484
Ni 5.588411101235571 7.9130673575794 7.737196283272355 0.905530449220034 -0.30609214534393087 0.906798003078548
Ni 5.302298726803417 2.904698382082129 4.856925394343472 0.8488242547772414 -0.11978898183589047 -0.1488884703050081
Ni 0.8344724088950256 7.622657235444529 7.2577115010987105 0.3402261109131624 0.11837641775907999 -0.6205730289721892
Ni 5.12437197191099 4.802800916958956 6.786146336954931 0.26108035651993106 -0.005693193730035357 -0.5586680639372765
Ni 8.2339869644586 6.954443422626305 9.253992689285363 0.03727713918390354 0.2306382379799899 0.8662031123753211
Ni 4.471820056510452 0.16813150928619516 10.420498228224318 0.4231567862701228 0.04734429361191846 -0.0883410477392543
Ni 8.329016952083068 7.231679817066113 4.747092154052872 -0.1335839787374538 -0.19702157836680909 -0.4544633096928883
Ni 7.480840609144814 6.210227334644268 7.2555798182381634 -2.1588483666402563 0.397284032268419 -2.847322173219477
Ni 2.319453719651067 5.3520530733660125 2.384073749320109 -0.5020883677700192 0.41314439633944333 2.558402425889774
Ni 2.3455930735734785 5.469856599869923 11.376553467234672 -0.881218869057863 -1.4937805976898018 0.8991021770961871
Ni 1.0164128077472936 3.3495107453682453 3.7188257057469936 -0.16944572563106947 1.1560929369277768 0.07120773049307737
Ni 3.8033348069952138 2.374546321254931 2.559139561426012 0.3037591263353801 0.606638164058652 0.3282877076043636
Ni 1.2358693772828035 3.400124641471385 8.543492658228377 -0.12516567276677154 -0.11236337879578069 -1.3018829708131192
Ni 3.6844002942537464 2.9712094207403656 7.029252281112249 -0.1893085259932675 -0.78236329494053 0.7997496087377775
Ni 3.884168655365869 6.810093387154463 5.900236673975825 1.3287988213673567 1.0090456335965652 -0.10469094985218744
Ni 0.6176361082746868 7.146611556222046 11.26825655864917 0.4079679943448264 0.32292978572655995 0.058533991680150804
P 0.28780885378848936 5.614767604515594 7.917691734107521 2.5410778185683975 -0.7787323830561621 0.6562290876129021
P 8.661762151062161 1.7545396658263255 7.947142615733499 -0.8130352701030901 0.4723471319518446 0.6016741351851573
P 1.9381937350257392 3.2025730133848733 10.795816463552017 -0.5974343860721969 -0.2846897684087549 -0.4636400910961499
P 3.9963986816910992 6.206029113730457 3.793592943939395 -1.0240611331687912 1.1553969393020165 0.522576460421042
P 6.909963995875674 3.7668989543660856 10.235010151742081 1.002460267069564 0.42650384836548483 1.4632086384402154
P 6.339177861505537 7.7893103195209905 10.006046964288165 -0.7283729567670036 -0.08587124604252308 -0.5963362679120117
P 2.5368021308397712 8.522967519989198 5.974711665324441 -0.7625845696517061 0.7590346475169185 -0.18472861993206893
P 6.862824489494308 3.732580307973664 1.3635405325121488 -0.28166332287760526 0.2291624247654118 0.322085949669026
Ni 5.0250532844737075 2.918378791611615 0.28131699278491373 1.168488739488968 -0.6401409238017878 0.34273422204699683
Ni 1.5753733500175364 1.170661234770232 7.064861156604474 -0.023576501768359397 0.3791634114083083 -0.010410396700046587
Ni 6.8052256223880185 0.8298082216513415 9.174735888124358 -1.0017416437359845 0.1069344944707255 -0.11008692405677815
Ni 2.7624384091772916 1.5866470208335022 9.276120208825915 -0.6634862833959477 -0.2554462981626052 0.11073021406773188
Ni 6.419215495564952 2.041421110900018 2.7209104041121885 0.22787018831654948 -0.20417567291308708 -0.16631797863536518
Ni 4.014232072684894 6.847370693544333 10.405520351283107 0.9166810665202149 0.07747890821376979 -0.7691159430123206
Ni 7.985106656966813 6.916333710365593 0.11392288652560552 0.7734119992845132 0.37992471505436504 -0.6112224409952247
Ni 7.783573957324102 4.109958747831697 8.248118863694119 0.4142057477244221 -1.5109722789777398 -0.30912578996393214
Ni 2.7899982818140745 8.03924018224123 12.420089134536557 0.9408702621719086 1.0560806234981812 -0.5121786621264857
Ni 0.22881027811459942 4.818263760798833 10.271559102994964 -0.27240889415887276 -0.3842143435686544 -0.12761901940327056
Ni 8.730046576140888 2.4571083165965732 5.706856123133424 -0.20626983643795443 0.2766478719408848 1.1209179316885405
Ni 3.9117737674521535 2.3883081617935216 11.380089382607771 -0.8823113307910934 0.06532993155606168 0.8243473526817997
Ni 1.1382969325963084 3.4217762420031708 12.940758101959089 0.20701725612694025 -0.39354307716874803 -1.9199340046944033
Ni 3.340978585192117 8.264161677276613 8.070006627058733 -1.0908015719191342 0.8484889829250096 0.2885520795776385
Ni 5.702134029394377 7.906589068410674 3.3942254172562882 0.4011142046477866 -0.2464615781654917 1.3606843572220437
Ni 3.250065387472356 8.413080897148184 3.8134829203075626 -0.2171954822115227 -0.3468950382929058 -0.5051865470793686
Ni 3.308170936413071 4.301267331886895 9.491178599080813 0.4273155456335028 0.01480981131932288 -0.4002482571030655
Ni 7.175754809591408 5.896093645190407 11.14294237873889 0.4550130115487713 -0.9357185427676401 0.2582385161957617
Ni 0.5483120806463988 -0.3165060461857591 0.46207483242719233 0.15352082687069687 0.9721209926560742 -0.3364355335224786
Ni 4.929145651528896 0.25828830341027836 1.7324239085426458 -1.25512514583229 0.2875714608319241 -0.9619679633824724
Ni 5.849867975688989 5.640916006327905 0.764660700001103 1.6707352301034066 -2.197063958478029 -2.1522912822480285
Ni 7.866561203491066 8.622630027242698 11.41478442122005 -0.4925704009772549 -0.519719193477905 -0.5541385514980391
Ni 0.16441644569306876 4.957275541229406 5.741405490718307 -0.4241165790802309 -0.5226970451593063 -0.3884733759553245
Ni 7.806817986478368 8.965897922176019 2.459198379163578 0.6831644785511654 -0.010339177142478968 0.09104044894828836
P 8.518525006048074 1.6348089387736187 3.705106390290936 -0.0819899087102459 0.5151002066486549 -1.0269255992007797
P 1.9764482135248584 3.2137833489715355 1.6448774306548437 -1.0561842389555811 -1.252035708273689 1.231901399417659
P 4.582982431827428 1.284248444580531 8.20428545628238 0.9558343396809086 -1.011605938124574 -0.09007422838027712
P 8.578675378106293 1.2191488767467649 12.400317685526085 0.4357333373835528 2.2281943613342468 0.7832269284924059
P 6.481645935878085 7.7965395835514535 1.1964178629498545 -1.5248346387821288 0.5473240996793671 0.5767110374819164
P 1.8094603575220807 3.2647410648908926 6.0976815369615105 -0.8478469784656366 -0.10302641766557094 -1.0336873434046456
P 7.036697789711331 4.239995021481021 5.908883742353689 0.029962864910677428 -0.47728133602866835 -0.27961749609217
P 2.1680282342770703 8.417622937878212 10.099128941217064 0.3285345335078471 -0.2673368789526041 -0.16085772685174232
