# total energy = -381160.158087859 ev
CRYSTAL
PRIMVEC
9.38404227511475 0.00000000000000 0.00000000000000

0.00000000000000 9.38404227511475 0.00000000000000

0.00000000000000 0.00000000000000 13.73449442316496

PRIMCOORD
 96 1
Ni 8.482789505741104 4.709747612720154 12.552627073843258 -0.22079914040238102 1.7323704864167004 2.059458260175692
Ni 3.609036985506521 7.578843477758609 12.832124205323607 1.8005926519188926 0.5378189884024093 -0.700700944773032
Ni 3.087162240321418 9.239997264066158 7.309195837090593 1.4453091324519753 -0.584332044362284 0.4395120876996947
Ni 5.409299815070572 8.67504038061941 11.701555432276626 -1.190874049162704 -1.7052625744563146 -2.6107048348379163
Ni 5.687865111149184 9.074359533189163 0.2735551558873904 0.3868240132773596 -1.5869424638564669 -0.21815270391846947
Ni 3.408321704461367 7.627950171185572 10.067508390596085 0.06031782305345096 -0.4891901716511124 0.6445210551473545
Ni 5.381081999833638 6.484560919529778 0.4776289856765747 -2.1126687827604003 0.34116482067734794 0.8779360845415332
Ni 5.003909187123934 0.6264589583657159 4.179598957427168 0.8080910387239372 -0.8464192448801746 -0.666898137290974
Ni 5.415493282997535 6.386244308210404 11.461421543089049 -1.15712343507482 -1.6269064058439142 -0.08101443217085402
Ni 0.35658610068217406 3.3449512667177634 11.143371950571822 0.9592829603511415 -0.5048463901311305 0.7700366550543771
Ni 8.192334628051189 4.5318543225816255 5.210125393773309 -2.425020535860798 -2.438959257429077 2.379102947393077
Ni 6.585542598866208 6.695138829046504 9.461954263292329 -0.32928426718967807 -2.1250445307169334 -0.025453407076098094
Ni 2.154116297124512 0.8226426853776425 0.1926356206131621 0.18167234960424838 -0.2939046021388035 0.12116632179939131
Ni 3.6495572802165577 7.139773521948533 2.731351261534346 1.149759024289949 0.35376811126365526 -1.2000292332994107
Ni 6.841689417857677 1.5026479275888747 0.9567218819540678 1.5215814219521537 0.90181160560755 -0.07258378490499758
Ni 7.117308124649823 7.081367242588814 12.89445113756194 0.9556304512002186 0.333545099348561 -1.2256916710625212
Ni 6.126925682916945 1.820044390761078 10.457045617458164 -1.797388543159298 -1.45793119209136 -0.10654317256957781
Ni 3.9434654854778706 2.7160796710732265 3.763278735397903 0.5188630161251967 -0.12719838692608418 -0.3116192458097472
Ni 6.18209446767848 2.68599443141589 3.0530409240650114 1.4649515892732514 0.1233594727959682 -0.8227373278822024
Ni 5.444977943946802 4.819437683323586 4.497126797191761 0.18687806217490396 -0.5107468147759656 1.0248481478464608
Ni 6.199933532116595 6.457028139381735 3.0025528996094906 -1.404449675233452 1.955539669713155 1.336383318582834
Ni 9.290961997871207 0.2978363653737776 1.395658584363291 0.26873041686602106 -0.81309106304169 0.8425782738675295
Ni 6.9377257068948515 8.83704648712105 9.832455960321312 0.533045735383482 1.0882590080029386 0.46148576375730843
Ni 8.746349718160301 7.330729398987565 11.143152363981683 -0.2301394439667004 0.2765260016510399 0.013272805849506174
P 2.1844079857127467 6.623989020224943 11.665708390638752 -1.1701121340250042 -0.985171140971813 -0.4119994841017227
Ni 0.2945322440751662 6.7642147645167645 13.173481882139306 1.7272722459581866 -1.1281859261048635 0.11626477073271589
P 2.194467679072904 3.7399256076963288 13.205262818242705 -1.2319062845136657 -1.973292108600569 1.6170994470558215
Ni 8.493449777809332 1.6680322893234016 3.288422734224991 -1.2242328271288077 2.2262791465894045 -0.8571320033119884
P 5.513021634762568 8.450283183166865 2.24480743565987 -0.4718712207566906 -0.07768356802540814 1.1572144521267296
P 4.549111576396299 5.582491700009998 9.146349213797789 0.8426885741931487 -0.0027631645674339508 0.040480733722865765
P 9.13773935497508 8.718610489081362 13.021701566546774 -1.2512957447838706 2.4017551375749537 0.4504266777296694
Ni 8.340977858298292 2.153947384362867 9.396701386660624 0.20464309946780884 1.4079368624511044 -0.9450429054923596
Ni 4.7894556681316995 2.813974000488489 13.601283479939234 0.16648792855432618 1.3452721364320317 1.4351705013560767
Ni 3.1130715811492116 5.226038852728677 0.7294610220122597 0.9906082528269843 2.207602139005192 -1.4650405494426317
Ni 6.639566530465486 1.1257754042332044 8.276776932809936 0.23981321961103863 -0.042857718595474575 -0.5802504180937426
Ni 4.374418244686701 7.458765272314044 4.849059351290632 0.7738362313061253 1.2754751702435516 0.01701016140475135
Ni 2.2321164568349854 1.7223189741074598 11.737883875285188 -0.06656791772822084 1.2884852093499743 1.44458690957397
Ni 6.558235035733691 2.277234932278676 5.226359786975801 -0.09555916275424832 -0.250019213609763 0.2560042275486043
Ni 4.976986369726274 3.710919532905055 11.439130688977372 3.0372284806977436 0.5112265826258615 0.5662739013089925
Ni 0.5532634283197949 0.27284009186309566 4.165740603738474 -0.4163952991765732 -1.300471178067257 1.5897395669856298
Ni 1.62110269371319 8.71735302741134 11.760971434589287 -0.6209967467731692 0.3433471730406474 -0.07344356180213157
Ni 0.5140306242151813 3.8569633834312937 3.3815011731249247 0.14102603683779583 0.21868517938317172 -0.43289303972128024
Ni 4.940754582353543 7.936966684571748 8.223047660139304 0.6590225911976392 0.21402556912397333 0.39725266480985133
Ni 6.848886978312193 5.562503689882074 7.306064382170552 2.39209833121148 -1.3594944506790005 0.22791106885681395
Ni 2.5489217253414327 3.0158810549074677 7.600559090076463 -1.9379479247733207 0.1708678027895767 0.3352703095697839
Ni 8.013746918781456 4.781573072588292 10.349175112659333 -0.5580317159048583 0.42824422809535917 -1.1223009280789962
Ni 9.207960143607597 7.636705482664141 5.579405288493062 -0.7611025857895408 0.10990103329821717 0.05170822700756901
Ni 1.0660553589495838 0.6225861641029015 6.979993310283676 -0.482721018987001 9.873036139337834e-05 0.24453556478737246
Ni 1.8112984633248215 1.2306889972990245 9.619516087354258 -0.08342252739171441 -0.48541193555560275 -1.7714509973579298
Ni 8.261307339056 0.8293381995683814 6.621276093592088 -1.451148621951888 -0.5743955019748624 -0.36708899674227746
Ni 3.2305410228306006 5.418327263776236 5.571095719024387 -0.48088473710921054 0.5020032642553806 -0.18480241059279784
Ni 4.30237695184535 0.8453633286272814 12.681690499803075 -1.7010241108949349 1.1315923806832513 -0.17246008697736104
Ni 0.07742960993780804 9.02737363332507 9.313141181879352 -1.0580755424410229 0.665450349100854 -0.9297386710351213
Ni 3.569905529058894 2.7498716074444265 10.037361216259479 -0.12605990244626675 -0.10920580700340547 -0.6364686171565233
Ni 7.428867713502981 2.820890039673597 11.963280126019287 -0.15955957686560907 -0.057907928060377686 0.7512897134641771
Ni 2.3446123560901775 7.536164853316449 0.7897722619616359 -1.8691845420556776 0.6634353755533543 1.2242958191562592
P 2.1561244821796177 5.646528404757865 2.8287979721312504 -0.9817749708060705 -1.677314940203453 -0.8193609552108018
Ni 0.9363735246013017 5.415136689389619 9.99640456358186 0.43294240490197694 0.905724310398395 0.11906907295073042
P 8.75061945741298 6.994377170341931 9.104102255302054 1.1523951763612152 -2.1373760556990935 -0.3946679348018106
Ni 5.51667202722255 0.2360743524827221 6.429405272427483 0.005828690866635123 -0.7911423266847407 -0.03645875704766625
P 4.221054841155869 2.0900608242920176 5.795860423710782 0.4522681018137824 -0.35455049795563454 0.9723693612214546
P 1.8723979628285385 7.432630714470726 6.5199706647958395 0.8070003767629199 -0.3496425191310559 -1.943375780657111
P 0.9649235349361364 3.2428059661344495 9.092977473139307 0.16745774866676322 0.39280054257576863 -0.606934098032516
Ni 1.6075896727816354 7.521413138799502 8.52925834487372 -0.8754840234566147 0.8834973806793945 1.0112740087064518
Ni 5.054714392209654 6.4157008170327305 6.676832439301172 -1.1550866071504495 -0.25869025902119963 -0.9301863000955013
Ni 8.311990551591643 3.5379716330657827 1.0059299230380165 0.3032011969493811 -1.9953339188919572 0.32601793773358045
Ni 1.7401205023763202 7.33868706686948 4.178486010008777 0.27657228150794305 -0.08895374162258875 0.3008491517774367
Ni 9.219464979484044 1.0494362200122342 11.074864688065764 0.31879776583605746 -1.2264892272631522 1.7123433925624962
Ni 7.1338052710370965 0.4299937100843819 12.172910247262342 2.4254666222592807 0.5353720695238134 1.5643841189399768
Ni 4.708086637230651 4.065852165331576 7.06535337438069 0.46508942194816677 0.9427978182119247 -0.4493609554693164
Ni 0.819923189915167 5.196441583271647 5.413945854420026 1.711291297148898 0.9670412641403217 0.7209702365450292
Ni 2.98652777055059 4.533815587425163 11.540696994149938 -1.3865144309112702 1.6262901124161537 -1.4081736610522586
Ni 7.230385834528458 8.981898564273465 3.6114439923599537 -0.048281974934839426 -0.25728617958482136 0.2506589040762909
Ni 7.374740557438253 3.2013003469814865 7.089690888120958 0.27456810659372066 -0.25349045998781505 0.8381346362738792
Ni 8.300466947630568 5.664057795799632 3.491088957667139 0.9248479186017233 2.0998821725186927 -2.0564238442247422
Ni 4.752079027596711 1.2016547703808091 1.9550638683773238 -1.4867409172342008 -0.1472362794135658 -1.0840753089388941
Ni 9.292791886122357 1.701533320382881 13.370612459020672 -0.20610682849752893 0.8236539261592009 -0.8805393264923351
Ni 2.265476727259761 0.24849037886781927 2.4633223681654224 0.7623683398758418 -0.3408136079855163 -0.23810934954605442
Ni 2.818384500375871 0.17792050386123792 4.874468522663111 -0.14941091846738142 0.4161824118348187 0.9700435413017552
Ni 2.735720471635548 3.5740626598038094 2.0331034410655144 -1.8034504330826617 -2.0533536899398506 0.7729294032211398
Ni 9.166163619142914 4.696882090708236 7.805835015686017 0.3634812247863611 0.10642695870668768 -0.0004982797926572064
Ni 6.176407738036452 3.7319679398144134 9.14629384794814 -0.7366251694734669 0.8907036686198465 -0.5162240358404528
Ni 7.6888807579276435 7.850314437848153 7.568310828665847 -1.095671498416926 1.6285310859315307 -1.0304516100761674
Ni 4.476948291004871 2.023659340881128 8.02871821988854 1.113137002191541 -2.4337800272209824 0.3674183550572382
Ni 8.10826299296383 7.501528353137027 1.1442675980163444 0.39460005767835266 0.3826027761071604 1.9882752122729628
Ni 0.6241073173619328 5.094784252888639 1.0455099367082326 0.564141428347022 -0.04823903751204595 0.5589226031502438
Ni 0.2667179426577163 2.4302792783708456 5.639039938991628 -1.6211322223642983 0.3439971479198205 -0.28638386828172613
Ni 4.885294892280287 4.378809976489456 2.2558496382502593 0.4527188161979558 0.970639265904225 -0.9761856496437511
P 6.192060320615502 4.833222841482234 13.05612035694452 0.4952854859155728 -0.6407752149516771 -0.5558624761676814
Ni 2.550366867857724 5.527369835460032 8.189412437274742 1.20205551970082 -1.4342148223110267 -0.8697496920759988
P 6.921162872211383 7.653155708839846 5.484183534328706 -1.3406996865700007 0.033066700646981764 0.2473792048837546
Ni 7.112738096043111 5.313760880276019 1.422495068571666 0.7486247650375042 -1.0108346071761882 -1.392645997730305
P 9.110347335461741 7.8337703712493125 3.299272563947952 -0.0366598173148788 -0.402024632277198 -1.3266689195085473
P 4.542767963792318 9.468217173132413 9.590151542146604 0.48320232949879366 1.8569800295696857 0.4264064035556721
P 1.609138039763376 2.007819077455806 3.5424421908239716 0.47809329040700244 0.48315065032525184 -0.3153136639421989
Ni 2.286609590549942 3.223099477275932 5.282396595651342 0.8177972102681078 0.31399057425540117 0.06960978987833819
