# total energy = -340866.58204877557 ev
CRYSTAL
PRIMVEC
9.31236238459216 0.00000000000000 0.00000000000000

0.00000000000000 9.31236238459216 0.00000000000000

0.00000000000000 0.00000000000000 13.62958365786747

PRIMCOORD
 96 1
Ni 4.878392626910091 1.690277529803314 4.682702650042349 -1.2059466272251103 -1.0086334857598114 0.7859885503979431
Ni 8.974863458936925 6.289047860367747 2.8591726686831263 -0.538642255634653 -0.9645449800810292 1.353241013570121
Ni 4.9735184056149535 5.474784231961045 2.3971435487486903 -0.4975202887833626 -1.7247327673657844 -1.0186119371287619
Ni 2.6257415507546833 8.25622847678771 3.288668120435153 -1.836235855043799 0.07172297956659907 0.5274561571108465
Ni 7.897413853265728 7.4559147667853045 7.361187557177709 -0.9802521064036408 1.1675811400730345 -0.36106027404969426
Ni 5.6143299778144335 0.0639219158282835 11.883456833208568 0.504547370833473 -0.31550109736265664 0.7081820836414254
Ni 0.3742461387341044 1.1779020554890476 12.905524890320224 0.32621308446352204 -0.021690597599556192 0.8400966450962564
Ni 9.121412101078718 1.3198503907605323 10.60436106387965 -0.10562606007194712 0.5436044847359347 -1.1827959001402597
Ni 7.070178104473723 2.025345630006902 7.351061294645778 -0.04693831642275142 -0.49217882196579105 2.164079276021892
Ni 3.7138444986518575 2.6617803920261287 0.6582927383066526 1.0884986348175705 -1.337558826948174 -0.9912785394211316
Ni 4.903722251783044 0.7295006462307447 6.837948281254329 0.3125540989191907 -0.54706621803229 1.2380283382510033
Ni 6.9346273619550765 6.4757141583744975 12.577392637398026 -0.5497730754404918 -1.2715128431616942 0.8396171343566766
Ni 0.853097109540049 4.56169781710148 12.004609732706598 -1.8431114991177096 -0.2089270715551434 0.8200986047077747
Ni 8.057186049569138 4.392427011470714 7.403562529612226 1.8985316277592272 0.23928974300740077 1.6010326234009458
Ni 0.0029538812535665517 1.198715184750464 3.589950039755813 0.9353850706876213 -0.7904077625115613 1.9643166445748361
Ni 0.8395019921312161 9.050964081900814 5.811790234714655 3.0528422759756 -0.4147662482135825 -0.132550652376933
Ni 6.283255571150476 6.3891650651505145 4.254760500286208 0.16828615810532951 -0.36006988511196697 -0.5004330915547832
Ni 6.450272785156516 4.8613137548450185 6.094385968274261 -1.3632449188603684 0.4933422461462729 -1.5310361396071503
Ni 8.400365217149321 4.913081175679118 0.60461348953637 0.99662617688629 -1.5603153481872418 -0.8835452031981945
Ni 4.105336200732368 2.9253947379465637 10.50077593545619 0.8200790643237489 -1.1570133918595171 -0.8706961151496683
Ni 7.557000457224979 2.6816064109064666 13.219482796911866 0.9350243449140929 -0.4735038712641071 -1.8946731732450854
Ni 1.2232998206565666 4.093835433556596 7.404734024762601 2.28208725469796 1.90259654185722 -0.5808628548667608
Ni 7.095749850760903 0.2180787577940486 9.618165156758105 -0.27205588169482825 -0.12821140157163077 -2.3765189887159845
Ni 3.427945670260475 7.870389378493186 7.68239606888923 -0.03493537842460435 -0.6285100244310788 -0.05685171888172145
P 7.798916999485862 4.542830971515963 11.818552463180248 0.96665019934949 0.17444497861787378 1.7676118261174978
P 7.709779069602069 0.24886728932160765 11.956074632752427 0.48424851137512087 1.1383896061107426 -0.15525092218792616
P 2.9464686133463784 6.450552156019086 2.2504347339790236 0.024874137533860387 -1.1557982885054934 -0.6225892880712697
P 1.6986493433183085 3.0292648246498466 13.236914607499985 0.22167023015342469 -0.8993153215482578 -0.007782729269212402
P 0.5887629180303938 3.9624473168902328 2.1499441034766216 -0.5471196969780449 1.259365666276199 -0.7961112406542419
P 8.281688474729863 3.9452753212043037 4.943067912831102 0.7761643652186697 1.1184015930245899 0.08732983286592057
P 0.26560905387918 2.7301238173726765 8.557606313437851 -0.8141094770038755 -1.8695306125411866 0.947669030261297
P 0.9668187440937356 6.92429064004001 4.479321593328074 0.7572976102211538 0.8091847860087483 0.391173548495307
Ni 2.466500159090156 4.518888888593771 1.1541229389033536 -0.823840331138394 1.5788386038024098 -0.13374107314060837
Ni 2.2102798286657235 6.22209197697196 12.73575494208167 0.9946376857013514 0.7994680729416167 -0.19929777599549547
Ni 8.388789951076864 6.1197770547369785 5.2789145265050506 -0.6871918545430036 -1.5129512570809815 0.13698991909520922
Ni 7.367233142643709 7.699498221859518 10.792381379333655 -0.15476164125633346 -1.0960869886877898 -0.0907663693512953
Ni 8.199916623255817 8.308768823674917 13.599720509411872 0.01334633939991895 0.41896897344102035 2.0287245785372607
Ni 3.426511566499285 4.083265902589389 12.209162284571248 -1.4995095297537788 -0.3650948491303841 0.02876190262404079
Ni 5.72843435044984 4.856462014198398 11.107742658891603 -0.1780139269160547 -0.7304568358792259 -0.33102824646397827
Ni 5.14792032275491 7.683350586003009 0.13214428046771778 0.11579785839862639 0.8453710061213182 -0.0318161160693323
Ni 1.6926801192214105 3.7333445848591977 10.13648471179164 0.33883231588942936 -1.1640386741374145 -1.4662173433595522
Ni 9.200939673290124 2.458770898559071 6.284042465746712 0.6821650907523735 -0.7527228463662777 -0.5572210470781048
Ni 6.979019392017346 1.2432096507956754 2.9257402265799413 -1.4774157831785328 -2.0549685998354548 0.8750351088446543
Ni 4.774168670447553 7.6694379170470555 2.5414814361313516 -1.2193294762899194 -0.3129089111554482 -0.8278941894927935
Ni 9.255184182439006 8.316209400981348 9.627487762442046 0.9079567992733396 -0.6833549972954166 -0.8256262193942233
Ni 8.917164063454269 0.6062273218858122 7.937119902726501 1.2370328071069534 -0.0110094637366262 -0.2079891331219063
Ni 4.684071567268939 5.337464140646126 13.540363513477974 0.5778582637124823 0.6697209514517499 0.45954663775306664
Ni 0.605575456539817 6.601924601721242 1.0032179737778957 1.8302752665849897 0.5573917683280143 -1.6631926418694585
Ni 2.243822956898216 1.1685524439550605 2.0741088828321725 -1.548054785652334 -0.7207768895873006 -0.961927339952524
Ni 7.374673719950139 4.486574992156583 2.9498639005628045 -0.3800141894443778 -0.5376953183403513 0.4230835098300262
Ni 5.148367316135022 3.143257448940225 6.760613770314091 -1.8982619190376084 -0.46375373385587865 -0.37644626958746136
Ni 2.3946552855994057 2.1189162442434615 6.250295396784543 0.024288183123403334 -0.9454748508234556 -0.33214821900103436
Ni 8.328799714521141 3.8529805005734774 9.88052140256077 -0.7889489185778478 0.06538803848750674 -0.2802623287650206
Ni 6.307421150762723 1.9408266317175888 10.770818604924346 0.5169148912598904 2.2577139680599183 0.6845155932624211
Ni 3.6005689262420733 5.219448575934749 9.619023756542402 -0.23887553828811764 -0.4677926798119428 0.9053988087381762
Ni 3.1338612755958097 6.181760136779032 4.890226776648528 -0.5044866927988666 0.44061971894157664 -0.467819162174504
P 1.1727336945315148 8.582645392613735 11.344434034786229 -0.13066577664939433 0.9043587975094359 1.433065282087616
P 1.981633402376885 0.10977878044662451 7.933644529196138 -0.40981764595905557 0.9878242623239439 0.11438760831466106
P 5.474802856685216 1.530738142552046 8.77001011777691 -0.5510331730998381 1.9814139663767554 0.19271189524786167
P 3.826142273042649 0.36903959709202033 0.23860786001185272 1.171557865332595 0.5886057320369733 0.9362795574774326
P 2.155839759913043 1.2940272106970392 4.258317822602924 0.47787500374860925 -0.8496876312188012 -0.5383776891193566
P 5.797234081538583 8.310342612867393 7.963342583123468 -0.1888866079645005 -0.24327778112087134 -0.18088713469879167
P 5.800903152200328 8.469621253980263 4.14031343272605 -0.28684640974044145 1.4838142305057092 1.4636130729674857
P 2.9961593774353794 4.04984383506401 5.600055057973348 0.11979952335885174 0.5653956124690972 0.2983459257396088
Ni 3.2734908327079686 2.4002427028507927 8.428220354619903 0.04714529022723494 -0.4642054766813167 -0.05470176241825418
Ni 0.3168726759244464 5.879806796151997 9.892869594686335 0.7102235395514865 0.4078234983471622 0.06598196331776378
Ni 5.492105225440344 6.799933356748309 9.539127414792404 -0.2842938185219168 1.080720019313416 0.33516926521554535
Ni 4.218881831642636 0.05724960839391894 9.71000087793811 1.5254241927370116 -0.23929539943435563 -0.8428713796279163
Ni 7.025143521427545 7.7817915656103605 2.333670488772935 1.010334013390686 0.26130507093622735 -2.1969559721452554
Ni 5.250691550732087 6.984234314785307 6.240005236679907 0.20547870799522677 1.1746552733109963 0.28680912874460285
Ni 2.629419933778513 7.665712972212798 10.098321720728459 -0.3326459845730594 -1.7875499598023215 -1.077606670495415
Ni 7.127830938145951 2.2082497337310527 5.169945921559877 -0.4242618464088435 -0.4700925315897129 -1.4301794758993884
Ni 3.613010241988495 8.925275130830865 5.316723647808978 -0.39855132901661683 -0.11996510240243854 -0.3049459475546296
Ni 4.016859448556656 5.240410702989535 7.277420997744916 -2.4394696214065923 0.20381211892608123 -1.6910916822725712
Ni 5.726534628584369 4.738129829176108 8.475502010637346 2.487360788660916 -1.0055407057671006 1.1722147821903037
Ni 0.6881360650825188 6.693306810867676 6.7150232392513995 2.2154288341384616 -0.2084115653713056 0.895013351738794
Ni 4.424591910114531 0.5512750732184218 2.5851638642026944 0.7935722762824721 1.5401982657223927 -0.8044891803052919
Ni 9.240861769551286 6.925054253731034 12.260410075600968 1.566421975305612 -0.8854046250044363 -1.2608769607144026
Ni 8.550946112074199 2.32380683485182 1.7811000659883998 0.35816752588293155 1.7355278010987596 -2.230175653430333
Ni 4.70928013143478 4.300392936978285 4.3318771019536415 1.0402385142596022 0.7482722667940919 2.1350558922063487
Ni 2.3549846231145586 1.1260973852066054 10.546517326784668 -1.1556774466569129 0.43326199302492474 -0.059850653609045304
Ni 6.50557890358316 0.5627888777011132 0.6343469304396254 -0.44664149965562433 0.4138648194452357 -0.278055808032005
Ni 3.497006147487617 8.768650512912403 11.931214350928588 -1.733151330446783 -1.3125841592807073 1.1501524030736257
Ni 3.19394463577239 3.1229751243176906 3.015940696977706 1.097937154522651 -0.5582152926705741 -0.15442405541125662
Ni 2.6019019038154325 7.934253557676539 0.7019006674813104 0.11739914144747522 0.6650590271997062 0.10367562121379563
Ni 1.2254789133846073 3.4812775679249626 4.071851740381014 -0.9949055946507577 -0.4508979609391331 2.3713369302944125
Ni 8.267934115929366 8.15117572009955 4.210178498037392 0.23602855575762577 0.9604103890873653 0.06410762911318636
Ni 6.114450383623991 3.616083321476758 1.0422451520426248 -0.8540834462936516 -0.29803327959519643 0.7908484495934057
P 4.110169316654818 6.314070177291875 11.512867659065497 -0.18256915038690494 0.7649152746674117 0.6540086829228156
P 5.412084098038398 2.7686118098726467 12.62955303991214 -1.0285896171667641 0.6620449229637309 0.22219293542611415
P 5.536543817313041 2.7867522912154827 3.08186663312682 0.2619889843771294 1.157861084571793 -2.17819077572261
P 6.669737222428908 5.908358498306584 1.0278575526203035 -1.7852578213340349 1.1360822981338048 0.9719147901825389
P 8.217982605701966 0.22747306866604713 5.769184315700413 -2.3535161000629077 2.394535737008379 1.3144065572014265
P 7.6855762405414785 6.088198834904558 8.98210009551368 -0.9141878677847158 -0.7355311650783397 0.2665141259409926
P 1.9824156407920792 6.016763705345577 8.422346116616277 0.31531237839061826 0.5650665112644527 -0.288237119440381
P 8.773735062611166 0.15705578028302636 1.7758255441030903 -0.6191118710456306 -0.5906656998897956 -0.527823310642278
