# total energy = -381162.9532836594 ev
CRYSTAL
PRIMVEC
9.33836697747963 0.00000000000000 0.00000000000000
0.00000000000000 9.33836697747963 0.00000000000000
0.00000000000000 0.00000000000000 13.66764400814773
PRIMCOORD
 96 1
Ni 4.525718125139559 4.512046755980365 10.659587077830787 -2.1150956470343383 -0.005805808048499678 0.6166104447800155
Ni 1.9688359111614437 5.559718139839639 6.745502102654274 -1.0729192923220747 0.8673783636303449 -0.9442018976483029
Ni 3.4224554430530425 8.794939326306725 12.16365620312787 0.9986380651099963 0.24603554637166658 -0.492496610316526
Ni 6.519057911078137 5.111840724372355 4.9922162442294065 0.13026956965224015 -0.9653451073848213 -0.521353129536902
Ni 9.442489703086775 4.11160824442613 1.1879999572828566 0.3315866900706096 0.03417741721265727 0.19661225874353236
Ni 2.15380094458778 1.5338734571334798 2.9486164337336573 0.21105980162743004 -0.09827039103782431 -0.003196395450110624
Ni 0.48426062679319704 3.487599890631279 5.847633065450824 1.9171880665181495 -0.5445627348841461 -2.3949378575428044
Ni 4.1179863490270385 4.89800146045406 6.191456793764258 1.7327990893136866 0.05437163277234507 -0.03791811520201212
Ni 1.9398029284319804 6.06487709794524 2.076374676846858 -0.0738611089555244 0.07620569792830102 0.18040453863541833
Ni 0.7790523257983917 8.657917468606689 6.566715332776928 -1.068944623945043 -0.3790600530612246 -0.0629496042493432
Ni 2.504923540479648 2.974568689218846 9.697439259661845 -1.099654908544706 -1.0939025794419612 0.5694605265670902
Ni 6.137613637822947 0.06731375021189773 4.525479996783302 0.02668933636572823 0.772474060851276 -0.16611460437530745
Ni 6.7262669344888995 7.033163024685452 0.653633388986537 0.657466816674745 0.45644640156118804 1.0812445243583186
Ni 5.597753308272287 6.78676087534495 9.959748383200276 -0.7234580359638896 -1.3622707278725572 0.48126243216360337
Ni 3.8807918294617876 1.3064188542574626 0.31198269865352823 -0.09198481513942867 1.2308189649867578 -0.7085947456988119
Ni 3.2783457648667844 6.73802393843113 10.028415262777727 1.3829614234526892 0.7949113068088698 -1.9027078706241036
Ni 5.78441792447661 1.3797063577829782 8.415482257530412 0.6679116661571529 -0.3584115235729376 1.4099464366819654
Ni 7.7443917254385495 1.4492304994429506 11.121785812794343 -1.2331650966214311 1.015704790784296 0.40277796550345474
Ni 1.713618343455998 7.747426694684955 11.064791891856915 -1.0781980242225109 0.4361513987575779 -0.09785412943601211
Ni 7.359977851505337 7.452707834941674 8.66728198294606 0.8945024735406465 0.7691493673534173 -0.18714211446956805
Ni 8.953355382602195 5.807026110770606 6.531862679787896 -0.08689145977692132 0.6185698824992315 0.599995976151786
Ni 3.544545252060763 0.5502324536798378 5.436319091790854 1.4860580322345633 0.7632288881039243 0.8028585866804044
Ni 3.220466566746098 4.977396255940034 8.565321023817194 0.14882522116724048 0.2460471163358924 -0.4473881480136618
Ni 4.1653505460047935 3.396774934044994 13.049729949084751 1.6724470705881904 -1.89157936481111 0.4751838300696913
P 7.63133211723475 3.78352339970621 3.011063960947703 0.18598563226762163 1.985310473217684 0.11820518228853837
Ni 7.9009587850854395 0.3455298479482609 13.295541913636413 -0.8646085141946915 0.5313904591682461 0.9825792118749206
P 1.3021885740463188 1.685846040259657 11.384696327161908 -0.1415975930705497 0.5916787145353423 -0.335912314029157
Ni 2.1742239530243626 2.924272245030718 0.8337779574128895 -0.7043377701946708 0.36368125661230916 -0.06546311469981629
P 1.6435338997813043 1.5199779671683973 5.167681356996147 -1.3392981782367837 0.480405740590263 -0.24236863904304068
P 7.7825576310079665 7.411796449500124 12.547894515763137 0.34185233366267576 0.14478421832864743 -0.6932408889505609
P 1.02117843692988 7.208789691199771 8.620197003138976 0.3040671444941021 -0.2896977631463075 -0.017514097624363387
Ni 1.3731134707430939 5.325679988290649 10.096124959746694 -0.2577628621109238 0.05626576447126439 -0.29631424002156065
Ni 4.78600642607823 2.7068657249520323 3.940095128536556 0.15188457681885456 -0.4205448025685725 -0.4533245681027548
Ni 2.3170075831091146 3.826685331573556 12.143482529087839 -2.6478081674481175 -1.274825452474695 -1.6138300322759305
Ni 8.794976679774372 5.28166826503431 4.2459079681713146 -0.3977360322041731 -0.037383325744464645 0.0029868505424658237
Ni 9.213027351324673 8.208714005037898 0.6030175726500182 -1.4921253214745658 -1.6307617750342625 0.6545450150422599
Ni 2.6164703332437007 3.946543270889304 4.3188798348952036 -0.4857983723607439 0.4198066388509673 -0.4535353985619802
Ni 5.608193602479924 3.9539579342174465 1.3812518575069173 0.14773147388242944 0.16251094618444914 0.8153531196029893
Ni 0.42256670578895156 3.1794898127361644 3.4829802005199038 -0.5232542032143569 -0.9694858690260723 -0.5773183320486122
Ni 2.7822823761334883 8.796937736825898 7.670637303567434 -1.6193707595885012 -1.1186260503305703 -0.6592802157344001
Ni 9.29316921616361 2.4818951276746124 12.937326828074866 -0.08573343491307815 0.3840348805679967 -0.3379583979249083
Ni 6.675484895221347 6.591243487308034 6.765771028036808 -2.2412383390023987 -1.7585440594882744 0.07230276332946903
Ni -0.10146882719260275 9.16219862022256 11.58453084222225 1.3552032795028146 -0.5313917447198268 0.47145315938266547
Ni 0.10242414212770216 1.2158460335778025 1.348424696301101 -0.16503448393725126 0.5343348865085508 1.230841847804893
Ni 4.543927940617993 5.197538917523942 3.661534445061139 0.47235381682006394 -0.7055104503465334 -0.20374089936851364
Ni 6.948744187800811 8.504908326753277 10.770021671095618 0.22682503488148675 0.6420062591453007 0.5079324852556221
Ni 5.2609651055903655 5.2513652644048125 12.91893024525819 1.1280802537649346 -0.27396852533650884 1.2912110929215697
Ni 8.21733331769769 6.097271892763031 2.0528391907184997 0.11269222289010915 -0.542765276664091 0.47700288555630105
Ni 5.735942461836326 0.23606551100558854 12.620196821579434 -1.328328052378525 0.7504633609081398 -0.23242772578024484
Ni 7.286914468785711 5.56323870416547 10.966138582288286 -1.9884919562694592 -0.5540071681264974 3.514985727921566
Ni 9.182397507853254 3.3734850469664215 10.34214236837042 1.8563246553738741 0.0772271972142799 1.9133262695698983
Ni 4.554162790753565 1.8411804354741608 10.749355865119323 0.17914289831417538 0.439008922811031 0.18117715513538474
Ni 5.338417520758641 7.29616879039552 12.590975203838347 -0.7902308706140648 2.1845568271499536 -2.0465888604121916
Ni 0.9291133452176791 0.5303874901551088 9.563755868132855 0.10176374890306344 -0.17908607693431094 -0.6530442621270172
Ni 4.337839521236673 2.991041568451646 8.220855749696902 -0.06259813444719542 0.9680653345294618 -0.00801489988467652
Ni 8.833525458387182 6.917283229674223 10.604834364952243 2.6763034466743325 2.3849429511136218 -0.23913753370025267
P 1.3515885350108927 6.18788206691034 4.365855555809418 0.8924859573312501 0.46791943519779416 0.6660211340026594
Ni 4.798052919394734 6.211386736427888 1.5882348924384089 -1.0202286467965784 0.21681573027460083 -0.42613952304753056
P 6.391140961117317 3.754639830847339 11.897847993507504 -0.18063285259614054 -0.7865781043528259 0.022926012668554062
Ni 4.532563148086068 7.4348622157728075 7.9443046827809525 0.8779306852248945 -1.0387205349531787 -1.4413558042311823
P 7.741982426775249 0.23464141005150582 8.758690587464345 0.21737160277807083 0.2472475644018968 -0.03496417478001076
P 3.600818251072582 3.5317703661251225 2.2514709241205737 0.45782708395879856 0.19517321230416065 0.9420015475628745
P 1.6001104936404218 8.814335114382986 1.5356281362762478 1.2010877564709121 0.503627687232681 2.2896802365538695
Ni 4.193561752445999 0.19520735425543717 3.0713795389957346 0.44616096047478 -0.11748733028590733 0.12521580927841663
Ni 9.416155508394883 4.991357114473501 12.19915133576045 0.7968807718304146 0.43785938258762014 0.3134421579510989
Ni 1.8400224779770704 8.711818522422854 4.316433182764255 -0.8584504650130957 1.2474414040347872 -0.08947516134369751
Ni 3.309153037309531 7.0959635421687715 3.9136339320546627 1.4370942007413507 -0.011580762859063926 -0.018389558250781233
Ni 4.779955164319243 8.959929592908255 9.806083687989641 -0.5263184439619775 -0.2639309385948487 0.7831173994977352
Ni 8.517206955976405 0.6854762863198265 4.230791953650831 1.4992058824704309 -0.6151289751384824 -0.5416926124252026
Ni 2.7388216165249575 3.0074677558498846 6.497065123163645 0.9973854236498179 0.034316771003998964 -0.2380219320385707
Ni 6.402421708347035 3.950203910718815 9.746123901720956 0.5016211983256135 -1.5059586278132322 -2.3500101437921788
Ni 7.018819293108593 2.0276022541387717 2.1203985399801835 -0.24831868597888845 -0.7049844026397343 0.3074725706312253
Ni 7.602439210008968 4.744926950032264 13.577245891414414 -1.002056346762926 -0.03126512866186874 0.026421170306006107
Ni 7.828474381114358 2.370777899788513 9.016613480064203 0.7171482916957779 -0.6944544496426879 -2.747716865420313
Ni 7.965421531879098 3.624500349561459 6.7711555303982776 -3.328271702128352 0.7589503153332284 1.5760098761043633
Ni 0.6079603702565493 3.9036241365616706 8.023836752260534 0.9454681659552362 0.6228628534476305 1.4842392338582697
Ni 7.390131438264243 9.108661762715963 2.2499132845196494 -0.15126211274350726 -0.9645061564232938 -0.36411140217119226
Ni 8.389299344382497 5.240906293463352 9.13285653754831 0.38421177246549315 -0.4114528675696333 -2.6617831415709707
Ni 1.8582322934555051 7.414056334292832 13.440569553290123 0.5077910745817512 0.1144508574524287 -0.07682739067269995
Ni 8.314032107071634 1.296529523697636 6.528541022677292 -0.6096656380310661 -1.2863504223951587 1.2315057066411372
Ni 7.82399196499659 7.909998324256272 5.534480269423219 1.3172309140240992 1.0211195340419639 -1.2515567117547413
Ni 5.457556405822165 2.2166761690063956 6.170886239130467 -0.24495131216855234 -0.023792731544223542 0.5979426931671831
Ni 3.770001444417608 8.362227418704558 1.0611494488233895 -0.4490483093249041 -1.1412111347199378 -0.39099305705338466
Ni 6.13536309139715 9.180511157737026 6.895285772576274 0.47617190501457346 -1.1704468916566035 -0.49745344010116915
Ni 6.703556026158872 2.336272634048607 13.451448750742621 -0.3090278309334871 0.1965353827590099 -0.3256541266362585
Ni 1.1344528275726553 1.7124230324912597 7.438109165948117 0.02983482397324539 -1.3407050858866392 0.2621512209866066
Ni 9.262707463296607 7.814298740141914 3.5312548882715795 -0.7723617036431278 -1.0081963982223927 -0.8654477222665353
Ni 7.316909303307112 2.471184020826528 4.828368993737908 -0.6480545222219097 1.5324217071007673 -1.5002998868655582
P 5.459153266564119 0.4221688913584996 1.1943864664139854 2.641149267370703 -0.7028550150015573 1.176737866871638
Ni 3.173998852991898 5.921738609917832 12.086994747637043 0.23138385789676277 0.9457633285981518 0.6277644045143059
P 4.694621167477224 8.013728903914966 5.504698349667413 0.3416271050257471 -0.6864390355373791 0.12369937263389018
Ni 6.110242884403823 7.277081168427356 3.25412951179054 -0.1555838800473127 -0.34492763015388983 0.638721417746442
P 5.413974247443778 5.331955370855525 8.218190579780213 -0.26369979642064906 -0.23541971852903326 -0.3529291603021276
P 3.4863672261988925 0.9426614479336343 8.739309740775145 0.5187357465187131 3.4251953493302945 1.5710862135505006
P 1.8122034829461697 5.308170550330616 13.67762119584162 -1.1617125971073992 -1.2969837337392889 0.505327186422291
Ni 1.8039577049628577 0.6944084342711715 13.384614058753312 -1.2252478986568833 -0.08066347658933849 -1.0510515457147063
