# total energy = -340861.4584642472 ev
CRYSTAL
PRIMVEC
9.34779432996489 0.00000000000000 0.00000000000000
0.00000000000000 9.34779432996489 0.00000000000000
0.00000000000000 0.00000000000000 13.68144189143812
PRIMCOORD
 96 1
Ni 5.87638800059867 0.882805684624305 10.204631716310228 -0.914124104426316 -2.6383210538932884 -3.05370899485127
Ni 7.401265625712065 7.0589587497563535 7.986240304423797 2.362847661876479 -0.7973726238651686 0.4456919912581615
Ni 7.161130140405906 8.83321682864365 0.14072449828504527 1.0102872193131505 -0.5041092548547899 -0.6728325004975381
Ni 8.384550750235 1.0949725696721433 4.5543191837555055 1.360440616642354 0.6201806786297771 0.42945470346369263
Ni 6.138116890516036 5.877341475607477 4.6413200391914105 0.9366107155646063 -0.002115760791422163 -1.7654621267643467
Ni 4.013625006188049 4.9220062557544555 4.800079236834203 1.3471048187653962 -1.0008903514792828 1.2112742100856106
Ni 2.8233984135773027 5.6199780055833735 6.897443822382226 -0.5208260533888385 0.18325486360001988 0.5403576956638628
Ni 7.1549699440254795 9.2708618576858 3.221076948500317 -0.34561231492574024 -0.2656417506383683 -2.1036436964436542
Ni 1.9048561117111646 5.159169142503749 4.0057345331004655 0.0733620578319188 -0.7390589757259401 1.6060899833191953
Ni 0.71859859251943 1.0845497791347005 10.598329025681767 -0.5535456551090466 -1.6894600602064194 -0.8282279186831285
Ni 3.9058636346045144 2.4306695356852974 13.068951033794894 -0.9392633226961049 -0.47930762243007774 -0.4057450185515786
Ni 2.0606184065321598 3.0663662805272702 10.945166777488149 0.45121446373828744 -0.3421708933443591 -1.2700079764813934
Ni 7.875039879352617 3.904321248560857 12.597078121495434 -1.0659361761360224 -0.2559173242617528 -0.9570556136825195
Ni 0.03165069639527143 6.366390024977339 6.679457935442408 -0.22533585193046998 0.987510073517635 -2.072847022777772
Ni 6.551037003888647 2.8276890511169315 8.91110638906893 -2.301516309956849 -2.217726886144019 -2.706200234233765
Ni 6.786853808272566 6.069849949444336 13.062356164983983 0.3315512088469838 -0.9479757628684384 0.9583583916543431
Ni 8.25080251076439 8.39794613932931 11.683458368057114 0.43347230926351793 0.027510032494810682 -0.7315953203590433
Ni 4.244515523026468 4.741780783501633 0.7947401154285662 -1.1389508779308513 2.506521163639451 -1.6196121861753459
Ni 1.1252313795104414 5.829574247225116 10.832076228428923 0.15564018720654485 -0.21317864774264575 -0.8145645622634229
Ni 7.785142142492897 4.6682977732641096 7.186231772181865 0.4396267589006881 -0.21501390117917166 0.7251534213884415
Ni 2.709626410320606 8.068866392172236 12.533021426933209 0.3335479275620385 -0.03784483876191547 0.486398210728272
Ni 9.058797798374204 2.5012734253079936 0.7814868128061567 -0.09980199719100231 2.20515496301628 -1.5877320496372977
Ni 8.889107290189273 0.6021175985024189 1.6349600539977787 -1.135174955828187 -2.3406544136088914 1.486190958268002
Ni 5.265575083927706 7.323669586024789 8.89538620355609 0.39861072149964255 0.9558978459289924 1.2218103337302442
P 0.9940163922691096 0.6315902588481619 3.1149224627404477 1.0669124240063625 0.5161525591725692 1.3608473651624693
P 7.533480826933223 7.161354487466801 5.608118459076778 0.20083452435499605 0.08350943067856585 0.2504115639521752
P 3.9591554093614305 7.869823810186793 7.339203750432971 -0.9684263174133063 0.46252757475826145 -0.09485339493647535
P 6.773336897853604 1.6362565930538713 7.048473328997744 1.7702880873980804 -1.8278000655716198 1.3582700913535963
P 5.163973908724597 9.014835122232867 3.560772985534856 -1.161732394601741 -2.135429987716316 0.43067906278909696
P 8.079990267274978 2.07166749928127 10.198009738896125 0.30836062966313343 -0.6446506387466833 1.2297018206631791
P 7.06502546819474 1.7191808754374185 0.7443452220954648 0.5893390106585721 -1.8804673140583485 -0.8305097727387698
P 0.19884721308658065 4.110038155607946 3.0943591850505223 -0.6133346022422211 -0.4001934926057301 -1.8142295259760366
Ni 3.0665719319997575 4.864582755959378 11.847321461335282 0.10510078369609642 0.5870481577418664 2.0853122451243182
Ni 5.369485164299198 0.2891095139202559 1.2878437379241165 -1.4482085654869574 -0.24385190845678648 -0.40075142199172914
Ni 3.5837947331004294 3.82967911184204 2.7729408900230346 1.1711853124845248 0.2656826311786327 -0.3916021513922933
Ni 9.040148948937256 8.020613078491268 3.6924432103539218 0.8723400785109944 1.6158563186773398 0.39465122263126223
Ni 8.008217903376785 4.2322044780598205 4.651525960903321 -0.8039723885698734 -0.8119227537652016 1.0689348537530299
Ni 1.6573732601606723 8.039271275722422 6.733334882116493 1.0890005141546535 -0.4620768603740881 -0.03911959170928102
Ni 2.7616188416831684 2.158284160375391 4.0833763769793405 -0.4631844916159701 -1.1728135921165672 -1.0768487092834682
Ni 1.661906940349605 7.667107545079183 1.3641151951726882 1.2829305980803325 0.9846988293210849 0.9743743074666252
Ni 1.528345656763073 5.498746462551897 1.8815128000249741 0.6086438816347711 -1.3602300432934444 -1.3449600045082515
Ni 5.46372962546377 2.976543326021182 1.008871906818082 0.9527047929129915 -0.8286320961000826 0.862059779630909
Ni 5.10239998830295 0.19650278630022133 12.370239873444442 -0.5508333983842062 -1.5663047330014572 0.5101531470560247
Ni 2.3488576408120245 2.45246859176899 7.370083253806413 -0.10542320003252166 0.7180152676817634 -0.6823422397601862
Ni 8.209335695675513 1.216372372999291 12.366203495907161 0.37717029223767945 1.3012527934282878 0.2972871454577913
Ni 6.115934574869979 0.8057882733982555 5.168848783401974 -0.3369731511935035 1.1719142202307495 -0.8523644067200159
Ni 8.678211705153178 2.4286410643430334 6.5402216059946365 0.4402016575675516 -0.16001800455926637 0.9397783146593105
Ni 9.308439990385818 6.346189441702528 12.775470491304855 -0.14507166766207918 0.3687938952485261 0.3761004562122684
Ni 6.436778915333343 7.307095946901125 1.8310562112501265 0.47314494526279166 1.5614273503044978 -0.040425197894581995
Ni 6.11584109692794 2.1964792474928716 11.725419681459382 0.6263811510135342 3.3370437918940272 2.425902424245119
Ni 4.758831160129701 4.0534092183202075 10.384063560835134 0.580773123366432 -0.10727773674275719 -0.6634202060447026
Ni 6.157205086280572 5.242467336655455 2.2895346692346976 -0.6976230771786566 -2.574153260966128 -0.05318892531815356
Ni 7.635932651408894 4.313651808959138 9.901847314248965 2.2159003744582417 0.6298907068286893 1.4841672429697537
Ni 5.707183577712346 6.008070377550202 6.779920549311471 -1.9548182181660976 0.3437626633115112 0.2591350598681021
Ni 6.07013973106466 8.543930641412938 6.7154675082749975 -0.5719424124486796 -0.8096031044930895 0.6515545649553682
Ni 4.759522896900795 1.2167275891790426 7.164930018749825 -0.267500658223978 1.4875798681957282 2.5687560012099566
P 5.4749656740969606 4.124966582951709 12.590114014813466 -0.32980388713857395 0.6867717362864494 0.23935222081422006
P 6.153522055364202 7.474720592566976 11.673060816564021 0.6914092350584609 2.302989809178582 0.017316894011892757
P 1.1934048426401012 8.039561057342745 11.038296981583606 -0.8841519835442581 0.07520168214381887 -0.2651550408099369
P 1.2035939383224443 6.928370064726688 4.797343137470697 0.3308510974561657 1.4164212457730316 1.34183405728476
P 3.810768524167379 2.6891266976312678 5.753771114466164 0.8037039653998352 0.7324571541387064 1.0886611285373637
P 3.63920845714165 6.361360911695596 2.6961609127697663 0.08837267230813813 -0.7128406654593595 0.18828008472875316
P 2.895357733359576 0.5712128560846254 0.359543273688439 0.38191500601151646 -0.13252828377942982 0.05377667950082351
P 5.861534355608539 3.5655197954316398 3.832965796284161 0.016916316139364417 1.4500553888877092 0.2896939064915656
Ni 4.502523990850647 3.995303329548239 7.62323086864452 -0.9601447941308043 -0.26048643168967395 1.0253667393540922
Ni 6.184229559324291 3.395885374011931 6.142242072098254 -1.301320670551746 0.7138074002480029 -1.851599996204695
Ni 7.796667972746409 6.45162321252927 10.483842850947886 -0.08619417659958058 0.8305313700053246 -0.1695241442774887
Ni 7.636596344797378 9.04836566004256 9.058400517120536 0.3275803971246939 1.0458566317773277 0.4415579144851299
Ni 1.223673000272603 0.5989711309733576 5.449509760920669 -0.711908126342761 0.45293170353971024 -0.43420147412005866
Ni 3.438922618527076 0.32572575859668396 5.699373495654917 0.11144060987119517 -0.6186912385684442 -1.3574820482346621
Ni 8.305225368619986 5.977783524329292 3.1971204215143456 -0.1680406177534267 0.07673277407636463 -0.9490204020828689
Ni 8.795405001088533 4.808925989268855 0.9507585398107506 -0.44511426437782053 0.20241780968171588 0.5550206969926764
Ni 3.2197074966494332 9.28322898941767 2.758671482170652 -1.0848880346481768 0.3331049264873489 -0.5299629826931003
Ni 8.572787282120638 8.904690063127315 6.571388086650142 -0.11905698876587237 0.6002026928459534 0.1584668580220626
Ni 0.1984424535975481 5.457943340851505 8.658971140343114 0.6582651442063243 -0.5732405624348127 1.5750025178857714
Ni 1.2924166788487057 1.7464390433362376 12.736122821162022 0.84713015490427 -0.11262306021507056 1.4068953085604674
Ni 4.703688522120396 7.167739030908122 13.688966853859682 -0.04973079156622403 0.47695943391287543 0.05312079108437949
Ni 2.713150528735508 0.3070722352626327 8.29260958556229 1.0340218439259288 -0.9074245809189533 1.075682971110141
Ni 7.575798291294661 2.649464006823761 2.793805166686328 -0.043669930084124786 0.04080726382434907 -0.5622208142855415
Ni 0.6385496916330283 8.142882226679388 8.926456401931294 -0.7876142589268242 0.0223858238943679 0.22212968628834648
Ni 1.8467502229391963 2.6770026085487 1.6282287073914892 0.33444164302090146 -0.5330763315111013 0.2239626257320272
Ni 0.5345704375844261 8.908812440371273 13.611420357481688 -0.5255082893558561 0.09807190187377304 -2.4419126836304463
Ni 4.40353085023045 6.60366508525708 11.03851571996798 1.1870693307046332 -0.6665556663498907 2.002125487892494
Ni 3.0071012652740077 7.10847401565486 9.571645831787412 -2.9902613679195853 0.234773343194286 -2.3955037573486035
Ni 0.6641252565751302 2.859649159500355 4.69246088650199 0.6152793846734178 0.5607401159749569 0.47189153247166477
Ni 3.599078376623944 7.353545136300725 5.275618354020467 0.15927572707660312 -0.6716919591351916 -1.3248377798370796
Ni 0.4942440533884366 2.769022294692724 8.854369017368425 -0.8219192028562813 0.9966837695971029 0.3270566634107399
Ni 5.065775330611739 1.7106556871233844 3.0891188116197688 -0.4529180766929554 1.675306651524173 0.4160073197095352
P 8.866878235572198 7.016164547890512 1.2557882820398127 -0.7453792615170131 0.7024485235917579 -0.11502832722245351
P 0.6860514426599964 0.8722080903352476 7.778542599784884 -0.42478763700532646 -0.7287359965333773 -0.33699114891563253
P 0.604937828013761 3.8638639952460117 12.859214575240092 1.1347715497421813 0.22520935365493472 -0.6114813510835663
P 3.761187823709445 1.3632262199438892 10.042656877461265 -0.16584978074969503 0.5729780528020455 0.21052629772146322
P 0.9550360904384939 4.373057041125461 6.799252722504732 -0.7757362765423157 -1.4900105891244082 0.07023559638779517
P 6.098070940146165 5.368989731206386 8.791817317673042 0.28582645311635935 -1.414514772778938 0.5570724373153825
P 2.647762708278636 6.087367715782603 0.04579858292300212 0.2959892525819741 0.5151593420213644 -0.8157634676675305
P 2.8667441353011793 4.691480302889992 9.300944928993063 -0.46665753776623503 0.5324147866677025 0.3846439749069053
