# total energy = -340864.89216401335 ev
CRYSTAL
PRIMVEC
9.31626758145623 0.00000000000000 0.00000000000000
0.00000000000000 9.31626758145623 0.00000000000000
0.00000000000000 0.00000000000000 13.63529930821873
PRIMCOORD
 96 1
Ni 6.637160444556612 5.7627821664679635 2.6752453760430326 -0.7220115333253501 0.3261791459017931 -1.4943107591616587
Ni 2.935434750499362 3.2506599747006026 9.742107475523783 -1.3546990861728863 -1.5592727658553405 -0.2719185847860156
Ni 7.698013131192724 6.7611692800969445 4.556003193574653 -0.6800431593133643 1.4506110042808629 -0.33335740881778714
Ni 4.617430934391927 1.9101515728477727 8.13963308701888 -1.4752136333208916 1.711213392723111 1.2408292980349083
Ni 9.22223832643864 7.250152207826301 8.572376503253508 0.8187325775981835 0.5044437553760731 0.2914152600580465
Ni 3.954699619401867 8.170990711505787 7.434510892044175 0.006809052502033435 -0.09055656733333436 -1.3304260725581347
Ni 5.8785461053474 8.122769711373808 3.562617052293208 -1.2433772612677425 -1.6459109719708749 0.014145695372762737
Ni 1.3636313775729945 5.101737095879737 8.923117202088276 0.7175478411270416 0.8377106613625831 -0.5525611797085903
Ni 8.203830554138172 5.237689386244103 8.514985501106478 0.7720063771862382 -1.7650767184004699 -0.23427300651909977
Ni 7.25515504342732 1.587417437111297 11.860078888816702 -0.6909286958776165 -0.839631789644696 -0.10589705434514665
Ni 1.9793528071948239 3.7772899390476815 11.84047094079163 -0.5456708803466603 -0.9205629180731243 0.4158155154137032
Ni 3.948504301571928 5.278075405481377 10.898681083326053 0.3878591394100933 -0.44452496753325377 0.4492776517268907
Ni 1.2070435548878529 7.735641535275618 10.618461733930822 0.38491882583484677 -0.13180451823952785 -0.12213845590467351
Ni 1.2491717161314397 6.140100312979799 2.548764934757913 -0.5603153697327125 -0.6482463265177416 -1.3226032340796061
Ni 2.0054476722198764 5.593589433972435 -0.21821958975877076 0.0783865076297037 0.5802858993173683 0.12643168396338872
Ni 3.424454943298373 3.4726573108955243 1.9070324865177521 -0.9546567744330398 0.3848239521281953 -0.3288772615592465
Ni 0.6394574157377981 7.28901035920777 4.757737648145337 0.579647494402421 1.42791536245556 0.5222944104042488
Ni 5.720616740154723 3.4322060777863572 2.6140915334877133 0.22348234366149897 -0.01294370464486158 0.02881589579042779
Ni 2.5655044040463864 1.1715485760426367 5.9141472896411305 -0.04540439627672826 0.38403590900926116 -0.26297603088074706
Ni 7.996441125247528 -0.11397987366976246 8.28415354852339 -0.28655664641416456 1.7888671359518484 1.3058846357733447
Ni 4.427015744728576 -0.3380696435257433 4.936387323692252 -0.1627588005291971 1.2642070535289 1.3290520750287433
Ni 4.574659950696812 2.5714388663887493 5.742179241083136 0.09475363613381747 -2.0262365220080847 -0.9245915796165433
Ni 1.6342130483290187 8.203541749848355 1.7319695739250125 -0.7488535932188587 1.116347795819355 -0.838872285770852
Ni 7.661213874909626 0.3451667760413038 3.9300068526225376 0.18033074797468943 -2.0262020692257234 -2.1855593002725393
P 4.075652719230591 1.7224194681994924 3.6382791180914813 -0.14801069568574507 1.9017894725748925 0.7830554359115481
P 5.475282154089128 9.553086931092224 9.385163074218404 0.4896668541772148 -0.9321958743263623 -0.561330184150472
P 0.1860179114442067 1.84706180992394 11.322874960955366 0.39529348420095145 0.8279096161117613 1.061506936720075
P 2.5629983281121707 8.288058927823105 5.558756841740315 -1.4150858147910599 -0.8028907254699204 -0.43368108284021434
P 7.7043947743709325 2.049085068784441 4.826650078202571 0.7516344983981055 4.086169150717034 1.846270870682298
P 8.011458948317998 2.9458130723979368 8.235639085967888 0.5110959705852682 0.7256370458930793 -0.4171193218267913
P 8.508081215326378 8.775197234604601 10.361518147041336 1.713032962430353 -0.5631669802488947 -0.4426462624533022
P 2.4589728861736715 1.4370808298605753 8.029677840871726 -1.1912255189648517 1.0103478973477569 0.29942913150145856
Ni 3.060002562084502 4.110886842588231 4.230638143920621 0.4659998495775781 -0.27892484090051967 -0.044455916320529885
Ni 0.8974388348171415 0.8971891588504614 9.605072634885975 -0.3768586745345316 -0.6169179487181053 -1.705590904330011
Ni 4.846545898890719 1.741732090547559 10.978992898190375 -1.357967472511513 0.06086623935775323 -0.14218920390796158
Ni 7.373015142474782 6.200982120526645 6.771330532964786 0.006057519047989568 0.7022410355666422 -0.9956471008024723
Ni 7.695246199770931 6.464297102700185 10.691355936680562 1.6272671316174427 0.20512826663434347 0.2036532247507138
Ni 4.610331938622885 7.37631310113914 9.895027483728253 -1.2252121603229416 -0.2788477078056811 -0.18702821459952307
Ni 4.981985794547346 2.062602972801346 0.7050271690470892 -0.6958312753855564 0.3189440616059346 -0.242921169112401
Ni 5.272280687150215 0.20888003167679464 12.78125184649633 0.26028537142246144 0.4057984974973334 0.4821258086051633
Ni 8.226813785847135 3.461272832116298 2.9566506862799944 -0.019889539835075423 -0.5956248436672837 -0.8505417516889804
Ni 6.696514384247654 2.0739408702435056 9.67904472977545 0.5095941892287611 0.4038578288311948 -1.6357054921927832
Ni 6.245169176868604 5.019903002920057 9.616921995409133 -0.6741617608319228 0.35866580567558876 0.1635481291997119
Ni 3.3042657773975512 -0.06738083569446433 9.406896994467226 -0.9226573387083077 0.7370866824909177 0.7923391752063192
Ni 3.654892817769874 7.09267002346947 0.6868036183596544 0.10348484535922824 0.32472467284345363 1.5718693715734284
Ni 3.7587039855578634 7.855616427025931 12.081161367551623 -1.3898308968790127 0.37655991234719016 -0.4854643860600929
Ni 2.3212505050007506 3.6974774761167195 6.836193181577396 0.1097771061258432 -0.6415249486335081 0.2953300217314204
Ni 6.636061125001825 4.649981972734495 11.945449436886523 -0.8344317335009952 0.27367104870074804 -0.5483013759909718
Ni 8.737438402777919 8.020998806149363 12.52863100768668 1.9397150439760724 1.2882700080153748 -1.0426923751167332
Ni 0.03242899523945205 1.8237525088555067 6.931913171116813 0.86243361803056 -1.1843653015099087 0.6623783950437496
Ni 8.024613517905777 9.120290412133338 6.0850933436638694 -0.49453960888848375 -0.8271987060876657 -0.9277962025967698
Ni 8.937495929214183 5.739314488853502 12.67657426583889 0.6892163411722001 -1.5943755230957444 1.050539639075294
Ni 2.453494920934567 1.0910839743927336 11.344745830335164 -0.13105812699180652 0.5819020947645527 1.8118936787540088
Ni 8.287462686708645 3.93102698390431 10.371908580087549 0.8386298307427428 -1.83818963633606 0.8897081374757967
Ni 8.7051295873881 3.7839138051786394 6.035623963698489 -1.06743127262431 1.3134837882768413 1.3119403550491213
Ni 7.665806794744453 7.971622588858117 2.372515129696701 1.7199895962538443 -1.1266525201794726 -2.4579478827164376
P 2.511181248758603 7.1688025607721215 8.761143645211423 0.07584445793414035 -0.1987143926881997 0.9977194099504687
P 5.61963771766042 6.832774111436663 11.829153539137778 -0.855605796475449 -2.813582357764871 -0.0011418269139270658
P 5.41001238459055 8.505612404461816 1.140241259399763 0.15895228229891334 -1.0689973315598493 -0.659890081404257
P 5.453221232854095 3.021638172875946 12.626981911143652 0.24297953315416215 0.7493490447980385 -1.5488651973687713
P 0.5100144014152038 6.127318394088555 6.786328791873688 -1.614289231300536 -0.7001077912737234 0.002126045204067306
P 2.727700619714421 2.3797566643571693 13.674705182114 -0.8726743219219616 -0.1643773099692266 -0.4557676303266086
P 8.527309991267723 6.069175569161262 1.4576138832398025 0.5305193694172025 0.1600696837328082 0.28946482119989503
P 7.505455200024281 2.445473614691593 0.9596016291333368 -1.3565808765766314 -1.362742268192337 2.9189932165022183
Ni 4.885180459854266 6.075436100863095 4.657681867751706 0.7176774247263705 -0.018074855223839836 0.12584650088388005
Ni 0.8451885490288492 8.844370520149413 7.008939138464414 1.508289589939254 -0.023607612116610954 0.00645449737609211
Ni 5.801854591999942 0.6444080802413015 6.873759166668621 1.570858928031043 -1.880071878392143 -0.8469074973705026
Ni 3.323475920804069 0.22611698964514598 0.42917808069550445 -1.7608806780412514 0.33231611203746636 -1.7107804189507503
Ni 4.836605441560576 5.086980128296843 13.750790206452844 -0.03865525047835278 -0.5880588583945678 0.16822676562230385
Ni 0.6577359324029725 2.5599425924005614 4.5231829151038365 0.17039189159442267 1.2884109044686134 0.6644417053306815
Ni 1.6882660318618123 1.5671731880218867 2.705161773961079 1.028011890286423 -0.42099500273211365 -1.3795814512368627
Ni 6.604395132063535 8.552445280749192 11.165414204013585 -0.2843110449130975 1.4581073126579083 -0.3250650869020079
Ni 3.655414528745027 -0.03432578728482895 2.61004175204309 -1.226303079394275 -1.5129985653791491 0.6554608419883099
Ni 6.544193412037868 7.415096722381302 8.888688004235158 1.273650201219671 0.3505058955726157 -1.7269290036861549
Ni 0.7089931040849917 3.117483932025442 1.1399263695611888 0.7627437209373896 0.49659083499055773 -0.6852092768953361
Ni 3.1173255554794137 7.147440359593098 3.511798676806362 -0.5968759424655656 0.5218796914643334 0.617965159035697
Ni 4.912737978863229 5.907761919955956 7.68049109544152 -0.08532000152474338 -0.17472162931802812 -0.28742413662078237
Ni 6.884358284104895 4.552449969183166 4.513024457116218 -0.18512534114985538 -1.3169285522923322 1.8475772481985473
Ni 5.670709495620912 0.836722856830254 2.3968128867377003 3.0959203381119975 1.493378991376009 1.205472515802169
Ni 9.484239714906884 5.174879111342674 4.319785506799852 -0.5639401109694933 -1.7007595443796386 0.7414791551316585
Ni 0.5341202433474863 0.9909713647678804 13.669523474178643 0.8902203012255249 -1.4915712487433086 -0.239818104707045
Ni 2.284749369274883 5.8884586138753034 5.69216485947407 1.5922546200979997 0.06434211372149563 0.14496805220467937
Ni 8.610569473141659 2.9200163279301146 13.00705301467616 1.6683693009743912 1.9566128481726757 -2.7229144616646526
Ni 7.036716521384333 6.774351798486966 -0.18720759879290333 -1.7977438696161876 1.1742883768898809 1.3902214474492123
Ni 6.394369199494886 3.9149005250116407 6.899965826902635 -0.16735978963631823 -0.47325884513283656 0.8678414193096924
Ni 7.472224074160532 0.052919193788577526 0.24900240054626752 -0.6356021553911699 1.249528625581119 1.318770233486761
Ni 7.301279883391274 4.512157112620027 0.44613461901471113 -0.16819796926689742 0.030367299437947703 2.319248437129289
Ni 0.7569737445177034 0.3290291376277387 4.451393621669331 -0.38476481675548574 -1.2909910064909638 0.19688196746515124
P 1.304547609636942 3.9732576240894444 2.910727077692171 0.2539370606069304 -0.2929422382255342 0.6251555061365491
P 1.6949364793298374 7.76200657205566 12.755086177838935 -0.1893046693385256 0.07820164531240725 1.8453738127893249
P 0.5932096010439868 5.284699271612334 10.903125874509005 0.9490525408723849 0.11982986237615491 -0.19848505028621302
P 4.37417387595953 4.551443812302514 6.085420344650082 -1.048060324296866 0.9469660906570014 0.08710974643531451
P 4.609586637229809 4.036021317653807 8.981271206536466 -0.05631950052733526 0.1365888270020486 -0.5640259858150802
P 5.914721171713798 7.612089196838544 6.085625302533177 0.033387831431826366 1.3103347011248982 -0.35297466882808237
P 4.2563324094468955 5.6184079703618455 2.476592742732715 0.7099049798698032 -1.1335510470715187 -0.8235587953422332
P -0.1268167585387449 0.17409215752825893 2.151186701502064 0.831981986408922 0.42153467728566757 -0.027587936920597647
