# total energy = -381173.70985825773 ev
CRYSTAL
PRIMVEC
9.15609698789388 0.00000000000000 0.00000000000000
0.00000000000000 9.15609698789388 0.00000000000000
0.00000000000000 0.00000000000000 13.40087345424826
PRIMCOORD
 96 1
Ni 8.750445387817324 7.099536985416164 10.539559582501667 -1.0293159538098273 1.490534065728046 -1.287384262976312
Ni 4.117515184527534 5.684507956875469 10.287971092822074 0.9063616868720777 0.2914718243275948 -0.9233937026537001
Ni 8.862232177486698 6.714523101756801 5.209348634686264 -0.037282538500542244 0.5241435477978458 -0.4486032513676855
Ni 7.059332562986954 1.752715046215867 8.801345047285832 0.06380526738141915 0.5174633075641928 0.06458019787423071
Ni 6.037264910400898 2.9885409420340636 6.736042676804711 0.9526137758610819 2.9950071101346873 2.980423555893557
Ni 5.365509533410732 4.41785348207318 11.935970603169997 1.8396875610378252 1.0484691296995106 -3.142931159643897
Ni 0.22209303843535325 8.375191903681882 12.573463864758182 0.6456302290511332 0.7626012818222545 -0.6184482693197026
Ni 0.08895056785641722 5.51166831164746 8.534426504207644 -0.3622260122230213 -0.5180682881380433 0.6445796762994319
Ni 7.96469660175322 4.891370200440067 10.519846505414423 -0.9584578933466847 0.524626143861219 -0.192108714446224
Ni 4.230757793638093 3.5127458140261174 2.320978141912569 1.9382857677287135 -0.34226191039626863 -0.3809297592801117
Ni 5.151494919459389 1.2041549558995825 12.30622302706157 -0.9186055372364373 1.1680470239658594 -1.2205972872587494
Ni 7.330307257086808 4.869697718570348 4.745436662192353 -1.9097292962472596 0.26986890134583846 -1.955326268150768
Ni 1.539945661472079 6.243002412560847 6.895299251963549 0.5917028829050583 -0.679520454040675 -1.141345346304957
Ni 0.19576925923153235 3.93321210571233 3.40798999133087 0.6124552849610613 -0.2777004815751153 0.3740320037190139
Ni 6.52507429636332 6.688611346923127 11.716611575332996 0.9195493892069454 -0.5361760534823475 -1.3624530190866924
Ni 2.9553500899944636 5.39668604408517 1.3061145065361002 0.6171264651844856 -0.45171480041347367 0.31360645144310506
Ni 5.9877029567208 0.4149561524427837 3.5004821375511264 0.4121930881697675 0.8495760453416014 0.6361978799936399
Ni 3.049456456135984 6.996366083131416 5.203720381790058 0.1834548954259679 0.4390490320203471 -0.7799613703672567
Ni 1.2109762482497899 1.69831867325938 11.611267015593294 0.7590284768693315 -1.8721631650680273 1.0036352612142714
Ni 2.533894939819898 0.1303251394968436 9.709549307376975 -0.053429580574049916 -0.6098898382267303 0.15264202381016936
Ni 2.802223521853698 2.2801428643921793 3.8013322609254665 1.5407345978418368 0.6397909966615368 -0.3912681650916423
Ni 7.617973516226162 2.2481697732687906 3.9354745773092916 0.33670652779567817 0.42212680234371175 0.7059390532435197
Ni 0.7989976585886003 1.5337836081141063 3.063681368612873 -0.16937373474255346 0.06670110087197546 0.09813823633533421
Ni 6.692786527207281 6.432817461838903 9.060718966341776 -0.6626437328899942 -0.969103545985989 1.1655849355786119
P 6.004403677857415 8.672316411140383 13.062983609661568 0.8935244258980936 -2.082765824553381 1.374683242604297
Ni 6.981707171651305 2.792270844290375 11.08595334024069 -0.7770118008206296 -0.8188410781515898 1.4481705131601703
P 4.294621571010841 8.871608020931815 4.213515947162018 -3.173171703695993 -1.9034761162486962 0.6092941136242603
Ni 5.056527880189118 8.207232458215833 9.484374326652924 -1.77111161174064 -1.2208410278384394 -1.4244292036791726
P 3.5232020769307306 6.759909875152745 8.319744410776666 0.07157616957608963 -0.6874975587088804 1.2815666278532702
P 8.818850589358801 2.9026018145185635 12.673031842828424 -0.5893408104307851 0.9893805510674702 0.09141994377489417
P 0.23480353244952512 0.10099266678123991 10.366580764597519 0.05258471607525137 -0.8404206040945784 0.6052464259174479
Ni 6.3823582106415975 3.132081076496081 0.19519150950361544 0.27590379468600873 -0.9965318174002709 1.6090362104317126
Ni 3.9812816155627857 7.933382749622067 0.6533278159377798 -0.07674614381280331 -0.19306182238811265 -1.58784414973513
Ni 8.142746066239308 1.3719404355204583 6.582576417461003 0.6127195943660415 -0.059814658164787315 -0.5457971215118794
Ni 7.778928547399716 5.595318414884367 2.2540809495658296 -1.2382741357132223 -0.584600210422006 -0.06682811336814297
Ni 0.7928850481550452 1.4256501011933673 0.8132839169161556 0.2974424400887329 -1.4581751897813662 -2.6382850584490303
Ni 7.229581032731597 5.776288674349939 6.897215623089587 -0.27927193982729326 -0.2726806597630207 0.09826036373549528
Ni 2.586084693371821 4.698542795211383 8.433102386710864 -1.3212189521375697 0.37938066962543693 1.0339331408668644
Ni 4.934559510528563 1.3025829998790868 1.4035271393456206 0.7209257564603391 0.17530398418405937 -0.5647523224581436
Ni 0.11221987306288345 8.545943958767815 1.6883495147212513 2.0018089850933394 -1.2753383875553712 -0.12352839427366466
Ni 8.524198228121179 2.8933266881417046 1.5422667320905723 -2.6236613949985848 0.3091867251088546 0.40095479625178687
Ni 0.8007867599647487 3.148058465960661 7.5146341417545095 0.4786247374304402 0.686268828508102 -0.07400740472540157
Ni 5.4120041945575155 5.67619422069562 0.2571315908726339 -0.1965166137059325 1.3073208539992387 2.3562921201461484
Ni 3.201420199943224 4.066479099212022 5.893610324724951 -0.731766812939901 -0.7666831652011118 1.4603305455614721
Ni 0.827708432310138 7.794933405155641 8.359330796650655 6.504890998053314e-05 0.31974393179941063 2.3885234693760284
Ni 8.839717334682456 3.621227252637202 5.629291197617534 0.6352296025430995 -0.10940403905714062 0.8109724740367905
Ni 7.369779191746868 0.6640761583403417 1.8941730841940758 1.1419140743242333 0.9918917475250982 -1.9095153804642402
Ni 1.5630648066858697 8.372500011130256 3.869100198107783 -0.3597248430677224 0.7898796579222331 0.15558773670205464
Ni 6.299761058572843 7.200702702432865 4.417852566463469 0.9074392362069728 1.4455053076231814 1.1750674211477508
Ni 0.8434166325195555 8.606255170460186 6.340838057057052 -1.0200018754977531 1.2353775308917176 -2.0460838957513148
Ni 4.93606111045532 7.443732988139654 6.589986446855665 1.7172518856077073 0.4408817143537117 0.7815261437512154
Ni 3.1595218995478556 5.76803903084989 12.474618302750262 0.36278574138123326 1.268891346378447 -0.6428698926971768
Ni 5.765557728531895 3.894838902705995 9.408405273285265 1.145810324054846 -0.20012104322773921 0.2595109551502821
Ni 0.9251778329217674 5.987547303069856 2.7993750600414167 0.7694293604876814 2.495566978620792 0.849797160213472
Ni 2.046003148983446 6.878490488880984 10.270510415624965 0.11473804967554432 -0.46826627701425155 0.01631056423456546
Ni 8.567946060133652 0.13973394489157276 4.1843427905362045 -0.9164807775839506 -1.3964124067512724 1.4352525195469217
P 7.947016178225367 3.781532200915636 8.209750384922286 -1.0512703465937314 0.026646656053250884 -0.04510666253065135
Ni 4.998936029339715 5.526025071922796 5.401395940440803 0.4018521112550757 -1.4642442787935814 -0.15182389878424818
P 7.842847261355151 7.650376943913928 2.925142294394726 0.044231201904233505 -0.5331331528909656 0.4953916724761339
Ni 2.9366991201724866 8.408199633779194 7.2416579248254545 0.6329364356335486 -0.31463977780362584 -0.02879969784051169
P 2.789661356612779 1.6064097704253089 0.006447723587941102 0.5531872433283633 -0.8642734994527761 -0.31539259680925036
P 1.4022928974546032 5.275111386600532 4.865884204122211 -1.1088476307875677 -0.32005786349540366 1.1768479100869411
P 5.178523718141017 1.2287390766516728 9.979027895208342 -0.6531306511932365 1.0858606829740913 -0.43023451905251064
Ni 1.3235962427565715 1.843992178349046 5.405149024647985 -1.0727046052081075 -0.540745675130901 1.2609391814109057
Ni 5.391485380924206 5.649220358596678 3.0218434984584595 -0.5699431226304636 -1.3401553840307565 -0.8725203128426007
Ni 2.8745933134456982 0.43624865628225695 1.9596501658783763 -1.0654996028192358 0.37242377869162957 0.6228363710850693
Ni 5.280064835139408 0.5338947695681938 7.6460296290040235 -0.30392676226149595 0.3355772992872414 0.5123892354753949
Ni 2.064141377367018 3.2782032303443516 1.5970494923452858 -0.16411017235076897 -0.8394484699892962 0.4353096195825729
Ni 3.181762059438666 7.267331621134154 2.6669751489384566 1.2000580296548171 0.04196785979135353 1.3333054509884588
Ni 3.7751412451298036 3.2885496200835926 10.718595158646972 0.06930331438151291 -0.8534015897352786 -0.21380368292115434
Ni 4.772286001370539 5.093317078394667 7.809734236141023 0.905734337700724 0.8963472400588692 -1.475920172469613
Ni 7.768041947930728 0.9661513675085843 12.735868306104939 -0.19067095355843292 -0.017115062413731813 0.4495424753525032
Ni 3.6363805933614888 1.1230136232720136 5.761705758475878 0.7734292256756938 0.6694607558118277 -0.26972080580374835
Ni 4.567638074767199 7.650843904866761 11.674278360324694 -1.1443879897860225 0.6782300173640256 0.6170269634921438
Ni 6.779677888822676 9.053750260828027 10.573356568170238 1.637417589787883 0.46625567434212606 2.231608015001486
Ni 9.072712537951892 2.891120068737141 10.186794388488835 0.07768151114287912 0.4241698009156695 -0.9887467741382132
Ni 3.1548339778252967 4.96056282633338 3.8080857981570273 0.4526103156445495 0.04905999075144454 -1.645717110792514
Ni 2.0044527802784238 3.798452668382996 12.449438120076026 -1.9383526164109068 -0.3460000372824622 0.8115784830519054
Ni 6.081012742413369 1.2477288220668814 5.623006452558229 -0.1551622191288618 -3.216049734006442 -1.651227499087782
Ni 3.97174096236961 2.8570319191803315 8.164174080316073 0.8902308427484861 -1.6121428743814945 -0.8799366599113296
Ni 2.086912590890462 2.399355248821309 9.410776702437888 0.08310936702666977 0.7387928665487471 0.15386818290778662
Ni 5.908282970350732 7.801443390203959 1.967395308427424 -0.1344887499399103 -0.4665518654263061 -0.9436203141132201
Ni 0.6197991039146593 6.000924360953954 12.16257942870216 1.0500621852182432 -0.8174274856335149 0.8268989154590598
Ni 2.473940815914987 8.61669312117057 12.203947591074606 0.42448938903861727 0.7731973121705458 0.1469514011832953
Ni 5.218132994257792 3.1331706520526916 4.681474914580481 -0.7936152137052656 0.8034409415464356 -2.023234244846651
Ni 0.3113466731062562 1.1141505212653011 8.477741106972566 0.16100453684225174 -1.295212500771479 0.2123396967811182
Ni 7.785337815379778 7.148796787891489 0.15829610057154012 -0.824028278779484 0.41118058774485317 1.5664266032913023
Ni 7.76276803599285 8.353299675481418 8.588887885453644 -0.5674301264006227 0.8023068279419924 -1.3080363920090246
P 2.3479803879125645 1.1859434787390957 7.503323614989125 -0.8931462166230683 2.314085147760795 0.477556701177242
Ni 4.066744626028338 3.3080521069372057 13.194741678356811 -0.7070399996171823 -0.783646789638644 1.9537275562050804
P 1.675144591462903 4.531636300913487 10.500053770282284 -0.0384341356064822 0.4807482115313463 -0.8283145648596637
Ni 0.3920393569752209 4.815704213886893 0.9223449364745806 0.9009178901486872 0.3787013841702252 -1.6369285659666069
P 7.226275681673308 8.41448987249677 6.409691907357133 0.10391396247684685 -0.13056807472926543 -0.2496366334593636
P 1.4942475807742461 6.880907698519179 0.7627505013322224 -0.1059029678824176 0.772875667165069 -0.8591742305529977
P 6.476546981657147 3.3772172645391754 2.632279950142965 -0.9142832557119996 1.0850402439553248 -1.0046377343368569
Ni 7.621507769712311 4.937123217720586 12.90564432123848 0.6904607551022626 -1.1040813197471762 -0.37441612653130996
