# total energy = -340894.930257183 ev
CRYSTAL
PRIMVEC
9.03608676991364 0.00000000000000 0.00000000000000

0.00000000000000 9.03608676991364 0.00000000000000

0.00000000000000 0.00000000000000 13.22522636942367

PRIMCOORD
 96 1
Ni 6.416678710135871 2.0162039315143794 11.456947275409524 0.26568057429610376 -0.5856168246119786 -0.48036717404284374
Ni 4.510489133010845 0.35797451046604106 6.024037253418105 -0.36312821232231657 -0.44142216023821396 -0.6190470792459661
Ni 2.6474287972410857 1.5826976767440128 4.659749922342233 0.8266860281173053 0.046254145871533245 0.009865837050486234
Ni 3.1146215828667714 4.2507648957859425 4.659313479359317 0.3526604800217733 -0.649534706311862 0.21773181433096697
Ni 5.325779082837027 4.708135455274362 2.8358321065185765 -1.337609477680451 -1.6574233434858487 -1.0798373595981468
Ni 7.3254831202146535 6.091804288504625 2.7287608055357624 0.4318118908419596 1.2657206619599493 -0.8044267024984726
Ni 5.283119717985106 4.42375173771036 11.625502820463918 -0.9238521303473574 -0.28307974360915766 -0.2021463011878841
Ni 5.559786617590298 7.824997987618632 12.21645836624515 0.6031144671761096 0.48367772647331536 1.1275783744278516
Ni 1.7993468891332638 6.503099842405257 0.43003278308024195 0.08859507273158936 -1.0442931439449499 -0.17116502231502134
Ni 2.8743249318379362 1.6966788731520046 0.3281960870664425 -0.7239586297493918 0.13854646494905173 -0.3377452534728377
Ni 0.7248748672783493 0.12499257154219016 4.653348758592794 -0.7128782035655142 0.5980866749442151 -0.5205535164537423
Ni 8.406217150085324 2.093778734999603 1.4619827885995984 1.668428693457417 1.4708047056199185 -0.8979143274356729
Ni 6.631502633031351 1.000141173460104 4.9759388575308465 0.7083831439086381 -1.2472251742589229 -0.7548311509585323
Ni 0.8656968553313623 7.509448807361499 2.739076402001544 0.09107798705444314 -0.10113537129044518 -0.8348356538076332
Ni 7.611439116847547 3.947296963316782 3.898015954202314 -0.2524031404609072 -0.37049236599687163 -0.04997530347686232
Ni 7.559644268440173 3.8261682224059586 12.671776830466067 0.7162687173043019 -0.46025446245336865 0.0919130813612288
Ni 7.895967411797193 8.633971712909442 6.983408507734938 0.11946013774156201 0.87620624633462 -0.1034413937158025
Ni 6.935594055476107 0.6566750036435532 0.2409345987429942 -1.3680922196503407 -0.40049662566844574 0.08444685489117068
Ni 1.8639006918238215 6.510157026042061 9.085267311374784 0.552174742903449 -0.430988880720032 0.4545720673566107
Ni -0.11863026296514347 4.878790986855251 1.3613515065386153 0.9749322368526243 -0.5372428041839651 0.06978153956951208
Ni 6.35771824505246 2.0741975353312885 7.132642188806518 -0.030391467807663792 -0.644165985800781 -0.24863081790266855
Ni 3.4726765145035774 4.3418034683093705 0.40772810690983713 -0.17986794940565798 -0.018825103126303065 -0.13248174681221056
Ni 6.025596881965752 5.712433228571763 4.726298892954693 0.26842419847951193 0.46183491956661105 1.7465434354829725
Ni 5.216939419706041 2.6432360530573766 9.289372628341999 -0.28892463242570887 0.2897589554015461 0.2483233139645788
P 9.172621871390241 5.603159833283843 12.425576000450949 -0.21650102724765943 -0.9106150628317929 0.4883041695017332
P 3.959992664993747 6.172098954057299 12.626638867058992 -0.03452040237437281 -0.43734876149978874 -0.08926304533289142
P 2.54970352063157 8.315277974514528 1.3395302610014614 -0.8673071440727773 1.193275459515345 2.507401252251559
P 6.435681600261605 7.72792330924452 5.586534337543311 -0.48274570157734914 1.0676192202654002 -0.21384147813762527
P 4.760074881067379 0.9407921566527716 12.622830156555905 0.38654453436372777 0.8453650925840474 -0.800324507404641
P 4.1863556704810305 6.213655916343675 8.169724691516278 -1.2885029499617873 -0.22038030769740755 0.5863560167708483
P 4.730328083970892 1.096628506205033 3.789450084495393 -0.4014201659239796 -0.4701177284006936 -0.604088915274237
P 0.2933023350409866 5.589696064245637 3.6633740861695245 -0.0636725984582968 -0.6325579692482074 -0.7193545553184773
Ni 1.485388060118227 1.122616291274748 2.3989635239232996 -0.009182694940532572 -0.10924977286746346 0.03856706163992068
Ni 2.0141617759421417 6.465690443869575 4.81470977149402 -0.2213231312266511 0.5672491207380682 0.005628144820054823
Ni 5.936157696771024 5.579349745085407 9.530256625000016 -0.27709678655284536 0.4405132752706994 -2.2017335960395563
Ni 8.860208213184286 2.1624439570944443 10.057559265924992 -0.5918602344185291 1.0207649789160225 -0.02369040163840436
Ni 2.6646606143926665 5.075343942639827 6.9429132856243925 -1.3679693209192314 0.2437611485151931 0.3893858604672649
Ni 0.6081150742399899 8.965379225154528 9.133751337650885 0.4132621528642302 0.20812771558229962 -0.3020948512590797
Ni 1.5562851956039654 1.081429808539087 11.390173306240653 -0.20205117037091655 0.3233468186593205 0.26705200072233365
Ni 4.091070137254277 6.661511476639323 1.642097295636321 0.7161388765946569 1.1686365779207422 -0.3187967373947929
Ni 5.513350168538398 7.912476342020549 7.79357318924 0.7430884086003073 0.3109283903903097 0.8763839095630648
Ni 4.926917184101878 2.805307302365585 5.044114323731814 0.3676541252171281 0.7763014050171662 0.3729863360633189
Ni 0.9106296995725531 7.335314382438524 6.942278048736215 -0.018673665150103325 0.21473365093459146 0.11428039331283543
Ni 4.9064685201196925 4.356758191637041 7.257567893307847 1.45107277440863 0.33943112581569285 0.08961374380409082
Ni 8.265272271254512 7.084436473997785 9.188371770338959 -0.8287120574083986 0.10162362378077337 -0.07999627531898482
Ni 4.519949915683998 0.3834201303395867 10.395385110484062 0.6496169816130232 -0.3221291442021355 -0.002841583213853171
Ni 8.553351748239068 7.265628082557564 4.861157063849845 -1.5014306580358916 -0.5618408052383034 0.06785758307392185
Ni 7.228453622273556 6.269083271565384 6.937556693486241 0.0069319512331429 -1.7144514400444346 0.5465152306248265
Ni 2.4044574645778156 5.269710165466519 2.5910463276654596 -1.6732613389593698 -0.6076241821210051 -0.5629520360246111
Ni 2.2582084029111478 5.2523428070158955 11.405011464051146 0.2024448062649094 0.6453273530987337 0.66065164216063
Ni 0.9600751654631928 3.3206082130646926 3.7241309252695767 0.22019570249042722 0.16960436269612078 -0.706639421744654
Ni 3.679774583353646 2.7887080112762015 2.560033574835916 0.719670029676367 -0.13371587632962775 0.6738575993279426
Ni 1.1376975198148571 3.499098031730228 8.16246419593091 -0.555295805030934 -0.16788223779869152 0.06838054545692739
Ni 3.37280064928259 2.676732826094036 7.415318086002586 0.6574156517218355 -0.12544643723198395 -0.8259154684998679
Ni 4.0973953978762525 6.7713541453832224 6.005508757839019 0.600521766748269 1.0262146891766843 -0.36798811151777916
Ni 0.8848940213190568 7.277230417755586 11.332127293121447 0.09368688543219995 0.5953957583756133 -0.4480113834199574
P 0.13982801852670268 5.53209101215265 7.914107355652359 0.49538293072538553 0.21367384221150942 0.8400930455518307
P 8.478090182924166 1.5526526887896313 7.842387032677102 -1.3276572515637457 0.5527951500962673 1.1815735976973845
P 1.7936451184868833 3.45526397561994 10.373708442332553 0.048199442523362154 -1.5455245630313124 -0.7818873837453759
P 3.998757476519851 6.0492172123455275 3.834944973323279 -0.05908086532255632 1.6112877254700506 0.5042666063682606
P 6.8674800346640374 3.7661595712766207 10.218999796388323 0.9986961720414411 -0.04778729468660802 0.9840424266840084
P 6.323408224221546 7.640725073527292 10.148429767237607 0.4410105266220921 0.7084556490177863 0.049585524237611374
P 2.4044936089242266 8.5214272542713 5.808294360515117 0.7428742357069722 -0.5365835733334114 0.04286800300811972
P 6.869178818945369 3.9415680844105934 1.6376397941151493 1.1783388928101706 -0.4869566543349033 -0.4038393168884336
Ni 5.28988774685062 2.8437106704275763 0.49035408280603787 0.1987395894991803 -0.27128660762897144 -0.37912073109583094
Ni 1.2622599736347533 1.0951465880021702 6.9229426306234965 0.9944741635402937 -0.27988283393841473 0.14569978816438134
Ni 6.907256887889659 0.6150737645328229 9.279638955853438 -0.3862462863970187 -0.20962409762216802 -0.867792568349628
Ni 2.6331246721488193 1.5754959157215642 9.26084570293689 -0.6128172962861704 -0.0010901477403852194 0.659882110984457
Ni 6.369112750258617 1.957821775973549 2.539256900910048 -0.8427407675873227 -0.03925123219113885 0.9521126678549474
Ni 4.07170580366443 6.904031004972452 10.587454360096318 -0.2919099403062779 -0.23382743434124892 -1.4649140511670964
Ni 8.028915353984507 7.343139633436567 0.2000372707786236 1.5709463455385269 -0.7808712837760358 -0.4672607185678727
Ni 7.609713224306407 3.8729390066621634 8.173903881570082 0.3171563735778925 0.20582117893631008 -0.5441899249257596
Ni 3.114431825048112 8.347166324135884 12.531642488603529 1.0294159697228014 0.016705999900771228 -1.3066788495398658
Ni 0.017767657087128123 4.968175955530362 10.141354511427599 -0.17066982784615767 -1.1419217876337173 0.2208132814697681
Ni 8.668986548495376 2.5236795912154437 5.6361813081651935 -0.5205388611657229 -0.3297444946555482 1.125105744517643
Ni 3.6707204245776186 2.6923291115705066 11.335738113327936 -0.12745575435252887 -0.27661110516567844 0.4760898868237285
Ni 1.0975863313849321 3.331180434389994 12.514780247394004 -0.5329372348300757 0.09054782558258599 0.7337882142453039
Ni 3.043805772160458 8.412858673738398 8.072518989886424 0.05473955763472508 -0.5694085902832323 -0.599081948977949
Ni 5.523262755541693 7.844488826420919 3.4527763409781835 0.4018953057881853 0.44425268770847365 0.1510458829676431
Ni 3.098401807414706 8.48181305060453 3.5942724210917665 0.34575578248214 -0.4672131531593889 -0.20849641177562803
Ni 3.6263351671845587 4.48648928699375 9.523075646976753 -0.20318476975472752 0.07278973026821657 -0.5872258209703113
Ni 7.143216217349139 5.956814190745074 11.544458159723211 1.008348607529541 0.7594632504139048 -0.5351864358755687
Ni 0.8930725833032708 -0.16001915404070755 0.09331837717331957 -1.5234891804978279 0.6519204329352192 0.6391945007281186
Ni 4.474227317473722 0.5021380433447775 1.5773193979980136 0.5513044244833537 -1.3316270348447712 0.519593209423002
Ni 5.951889523546536 5.503907458038449 0.40361668750555324 -0.03600727133254444 1.2396249933141619 0.6344901532739137
Ni 8.124670763714608 8.765058221256576 11.178542736350611 -0.5318296035881938 0.5240245057214782 0.7427757624558949
Ni 0.1748428541126364 4.986546319593899 5.834057147028422 0.04261474934673306 -0.9061110043138524 -0.09723192247098095
Ni 7.864720624324637 8.821235571666318 2.3941888557623687 0.43797765333303923 -0.22560324665924372 0.45578845626221504
P 8.344943446831591 1.5607399862991562 3.6035967588572184 0.5400296229004828 0.5197618737903823 0.37821338879021316
P 1.8986986613312873 3.3198130374436445 1.5591749360995477 -1.6498141636800232 -0.4698973848597714 -0.3517410535312975
P 4.5425943487106695 0.9438192456647169 8.102011872949372 1.2318083254832206 0.5386013750943884 0.6187640007879085
P 8.54718010108934 1.6075198066419638 12.411015250499162 0.747036594614778 0.09155286980833265 -0.5691823332050392
P 6.319025722219178 7.761898994871129 1.2047317282778895 -1.7087978413030829 -0.616449236611803 1.968031374422262
P 1.8605663758673803 3.044528659088684 5.991370896740244 -1.3137907779942986 1.2815707416183284 -0.3295184946876712
P 6.627761693177784 4.003338772427482 6.020347819258173 1.2330969623876569 -0.09386943375665124 -0.6084718748332811
P 2.495243026676364 8.500544858132178 10.262087471745216 -0.88418437944409 -0.265261227370498 -0.22104468075428385
