# total energy = -381158.1362150978 ev
CRYSTAL
PRIMVEC
9.37177588944549 0.00000000000000 0.00000000000000

0.00000000000000 9.37177588944549 0.00000000000000

0.00000000000000 0.00000000000000 13.71654132783664

PRIMCOORD
 96 1
Ni 6.590804551612965 4.137376688042816 0.8997279817493806 -0.8705716737566619 -0.11048030284045489 0.866712705021888
Ni 4.159119208330081 3.547414017955057 2.52008555744739 0.6938224724856438 -0.049637460521469355 0.43176561098505645
Ni 2.641397574519144 2.7769696859310287 0.39996584399301627 0.6832220712619782 -0.2613690914049434 1.36462354437545
Ni 3.0105424588273637 9.371204307554828 11.082046380396607 0.47253970757862485 -1.114176499199649 0.09208997325872527
Ni 9.062291827507924 7.0879022934565405 13.153930500029203 0.6377420845523081 0.8222629593489451 -1.1112750092821377
Ni 2.21555344549629 7.089804763981676 12.281667444984071 0.0919652747554029 0.12307176635222032 -0.15987916498855692
Ni 6.127060960503171 5.528982332411632 3.083478305437553 -0.4805204117912563 -0.7591158943768153 -0.4390408044902309
Ni 6.129178981875983 8.24361096448452 10.722535681801881 2.198316085717575 -1.1445641103525708 -0.9287074015571296
Ni 8.492206694286237 2.478900350699798 5.528575597333845 -0.7896104634212465 -0.5880097503241872 -0.7022477204348616
Ni -0.11338630612048696 2.119980073992184 8.755062518428085 1.6597059688724383 -1.2919541417351814 -0.22711145577365402
Ni 6.297411732598693 4.099008637156582 11.799393978394976 0.5557845717418944 -1.5031617817943854 1.8343478939924667
Ni 9.196608120937698 0.3643334145170641 5.784539417415669 0.29272395156714104 -0.7233492783001672 1.6719696167311398
Ni 0.5355323323393091 3.079621819619359 11.302252189204268 -1.0817834275809242 0.7878040063401271 1.139010527524193
Ni 6.631618636031516 4.936761064311273 7.919862025874353 2.72204131503108 0.6707432220686771 -0.17449640068109948
Ni 1.9127982222721143 8.549711911735658 2.994156845693634 0.1858151681280284 -1.0312885041551656 0.7074647458594268
Ni 5.437757464964979 2.9569640155160313 8.910663052299414 -0.6215806443010973 -0.6839216684321641 -0.008791630149700988
Ni 0.8793884163272035 0.9546278454747239 10.71289306149 -0.8322203276719733 -1.1424941151974195 -0.26919938608263966
Ni 1.7468053260100311 3.458232197673328 5.854370394641732 0.06257113786400191 1.420234963092167 -0.23497337502023402
Ni 7.918457196654067 7.2447014774764655 6.175283433838569 0.7599880125691234 -1.5905558922393381 1.4145911345428284
Ni 2.474645564402204 2.085960527163403 12.125779197589974 -0.21240628835299546 -0.14900905504327241 -1.493507546534073
Ni 8.192928399952827 4.983188842545371 13.047928216208 -1.6342389349495854 -1.7068304331640667 -0.4954407805465145
Ni 8.332614721022516 2.9616030446290464 3.141527085894155 -1.3052976529216231 -0.593351731362391 -0.8676395877115316
Ni 1.2745240469770922 7.425904766163648 5.688085098968888 -0.18127537127614587 1.33649978955604 -1.6851100107678396
Ni 6.572182832729001 6.409713724237614 12.187174639251138 -1.0115370325598514 0.9696149384047689 1.1565860745141114
P 6.580842353739964 2.0538434508597585 1.6862158570836538 -0.42215148493406 0.7499051744118246 0.10979613228923671
Ni 2.018783636896544 4.342880991861411 1.8607998603920024 0.8848371825367406 0.19407406570271094 1.0542937068010876
P 6.642105653359727 5.294491125468679 5.5783528483053 0.3527810647600376 -0.33435088307930805 -0.2581557266739683
Ni 4.549210011966765 5.215871296723048 7.723962855263696 -3.2135789038684464 -1.5563751325925712 0.8706122971866103
P -0.12596978973674142 5.208655029213912 11.065463022789574 -0.02644482445508994 -0.26364606036457816 -0.7016239708079336
P 8.302343884588092 8.440755644123701 11.255615420365682 -0.3017017295857191 0.4824518244860142 0.8491561841953634
P 3.5902336624345876 5.996409031483879 3.24437389274091 0.5680939852368668 -0.8351745252042906 -1.2183354878077663
Ni 5.289795865699748 7.0959432772524345 6.971994979595849 1.1466803853646252 1.345287048830367 -0.23675849194511484
Ni 4.687003234287305 1.731988548176339 11.566802430444362 -0.6949211048664613 1.2154869626153775 -2.014490951436382
Ni 7.341137052371273 0.7838375370854638 9.262190872109358 -0.10990874660770103 -1.2693109504143687 -0.7206005119104364
Ni 5.2724205930219075 9.123255230296138 12.505329564775328 2.532842832253115 -1.3138031192894728 -0.24538839970597096
Ni 9.495108557864281 5.338332293530671 2.1670629393676966 -1.8837210451089559 -0.28879659148827685 -0.0491450942660831
Ni 3.7597690900193372 0.17520535205621296 13.77387629302862 -4.064326858030961 1.2978705072196162 1.1255785703890033
Ni 4.409748613520736 9.052807590210202 4.0155857732181826 0.7785400645396978 -0.024558663175970608 0.8791005371632795
Ni 7.480270438657796 8.759377284091988 4.618414017379372 0.19108592960866444 2.4694435420608634 -0.03131526517351381
Ni 6.511491211444379 -0.21860698382446797 7.0885161447836165 0.10976425061003678 1.049785791628405 -0.5068289677787982
Ni 2.7379456107257827 2.04449041842584 9.501887163434874 0.6050556500628805 1.2020326368826846 -0.396512187099401
Ni 5.752583535658981 -0.1250616646437087 1.2236952827400194 2.1954832442544703 0.6479799602302324 -1.1911926088443872
Ni 2.3623716880912418 6.364616738193511 9.926303970975077 0.19430546498722667 0.3211097017986857 0.4006002411258456
Ni 7.018963509304334 7.652926667645847 8.697769103115945 0.7400647912826352 -0.04701159286284807 -0.8230160354648858
Ni 0.2520717215148839 1.2422195351537295 13.164917033017462 0.8476747145538305 0.35000787289027463 -1.864738333358866
Ni 8.390016848936092 0.94695236094228 2.0950370922057377 -2.1899530584648605 -0.44728427544594584 -2.127040992321672
Ni 4.28494467271664 7.363048264626284 9.026924619292373 0.010560292014349555 0.006127710164292672 -0.5642260176410283
Ni 7.14028114944168 5.772845315340475 9.946687583744389 0.2735316949094063 -0.5478604317988113 1.9875966981486997
Ni 5.904603113926101 7.121078380446591 4.714278851116639 2.2994756253777364 0.035412318061022886 -0.6877364141925639
Ni 8.801465930044621 4.083367143036132 7.028300609719076 -0.11532708940979493 -0.45610238795820807 0.6405602707273936
Ni 4.658700470809918 4.61765209199172 10.50861271161516 -0.39664511313283946 1.239123628197711 -1.4456924839333232
Ni 3.3917863059333677 7.565450510593549 1.5526305621807786 3.407366291568674 0.9941849144346491 0.8020641158035671
Ni 7.7720325686505225 3.416462192104216 10.11216315797205 -0.27549138973893844 0.16122745148633524 -0.3417191505189212
Ni 0.33539618180543157 0.601526504476749 3.7292536502316813 0.7169744851220748 0.6268483204579397 -0.22250532446021035
Ni -0.382819242649232 7.129203710226358 3.5471113095907127 0.38852042714317603 -0.41393372500995806 2.0398726247342807
Ni 0.6846878958651422 8.062613854869026 9.991389080841886 -1.255736554164044 -1.1024409559302755 1.0779496556571306
P 3.8559516269625265 4.044999092149899 12.68781491241738 1.0365299550597633 -0.552954301381951 0.15676453061897516
Ni 2.4997712958203753 4.57606015016634 11.12257931153558 -1.4009511751618906 -1.6874489433136617 1.4424924889387867
P 4.187318882271624 7.217326519821682 11.123045088802078 -0.364196762796147 -0.15327811473227151 1.0301767591482258
Ni 8.979951403695894 4.563295791273557 4.34599054713353 -0.605692512315931 1.8181522580692107 2.3006986991515603
P 3.222522659852209 3.4652422861107732 7.619923021333936 -0.1953364773549023 -1.1251049731866944 0.20116156867711163
P 0.7594437413717908 5.5696089813104654 6.424155631031869 0.3207579748862218 -0.2183835889823529 -0.12873873483001055
P 3.24459319229898 8.27435038971824 6.586381073347625 -1.225998917890295 2.091608619655991 2.546626259190453
Ni 7.54112138013418 6.261470971692806 1.188336509122855 -1.014369359802324 0.6120626775083329 -0.33451749056415936
Ni 5.950543559808935 3.284498214446899 4.185163373794869 1.2143582483275732 -0.44746373844660353 -1.9950248722919703
Ni 3.912613384573217 2.0701222257472494 4.4965706206092175 0.016208748549378534 0.4896650544050018 0.3506956429859186
Ni 1.7250628057227666 7.133130484364445 7.982532966247196 0.39878144274955196 -0.36984753332402115 -1.325270239388808
Ni 7.64306755930869 2.488937522780686 13.301904282603216 0.22489722173115465 -0.23199552333883272 0.1135154901223529
Ni 5.949793817730063 3.366623087411253 6.35678005911411 -0.389080156301388 -1.581016071069703 1.4221067261935831
Ni 2.0904308643086726 9.306107951556838 8.7951699709373 1.7898534111245175 0.4231755553232002 -0.8170089100388574
Ni 6.866062984094539 7.985587228040997 2.6820917002050755 -0.6313418374529192 -0.9835492890976739 -0.37971439881577185
Ni 4.024437415636856 0.9921618082982133 6.91176538686733 0.11886749846288559 0.16808946871349115 0.2607188594154542
Ni 6.892585110134608 1.349245216912593 11.350574940542714 0.6990063306794284 -0.0508096264526996 1.224827523290013
Ni 8.966971493955437 8.135479413159322 1.6383176471973688 1.6304234178582375 0.4229513551275361 -1.3153375536561283
Ni 9.388270311625135 8.806789098804606 7.829717724198873 -1.2375411142019397 -0.0010580089508691456 0.262771885289741
Ni 5.027892213998067 2.240913471314108 0.01634906320738505 0.7512953698911319 0.7516895200057571 1.0012438781639594
Ni 4.305253311278063 0.9893034166225169 2.2569879414851064 -2.081742011274557 2.6140724657585688 0.5751791742184224
Ni 1.657033083841191 6.523243418530685 0.9095233620098327 -1.2185535173558435 -0.21217463195816363 -0.25123071741936087
Ni 4.923340681099479 0.19532280638752433 9.511022770665921 -1.0048889311157145 2.1341490641213636 -1.4261819247042213
Ni 1.7928769767566664 5.2214662469866235 4.13398691666872 0.1334741926324669 0.9450773582747206 0.3615726949097386
Ni 3.8740953852712092 7.081332678490432 5.139615967058657 -2.8857344544490884 -1.9263478786405468 -1.6370383520715936
Ni 7.940199716941333 9.203561978719229 13.394532104914955 -1.4157689569010132 -0.25773406575551744 -0.6204462735863379
Ni 2.296103860095014 0.50365048761291 5.092485305625615 -0.11172857342525919 -0.9696375641125883 0.3768072524713059
Ni 0.9106151739121888 4.826858247324741 13.335962253713538 2.0518606503340924 -0.9648668821968223 -0.3667244143140071
Ni 1.3109521402342466 0.8316617099414603 1.3476257740222313 1.3028857010460209 -0.15859901272455268 1.9022525282542402
Ni 0.9780385418874771 4.026143078866288 9.21333205518452 0.7753650092458259 1.644533117786742 -0.34107380362543843
Ni 4.279687106388555 5.268053345412484 0.8709397602759238 0.10170718463351515 0.6272198448647456 -0.3812835430751046
Ni 0.3017561919040796 2.8410070312426146 1.1652988093943404 -0.8052006045500197 1.5873641247749177 -0.049615349034282295
P 6.0678688233762905 0.9633248535896299 5.338697792794122 -1.1980975634943367 1.0914204364500557 -0.622843827284237
Ni 1.486016915650671 1.6192460830660826 7.0682028203342 0.04766645283802758 -0.8122896501863173 0.9369254185915477
P 7.3931316655409915 2.4996400909565724 7.99570124868497 -1.2602691519270748 0.9018967091221886 -0.7830469512711159
Ni 3.963445897520684 4.624755898189024 5.310016409566904 0.41630171102150243 -0.3753288681535665 -0.38435986800758315
P 5.431122247566969 7.304802676873978 0.6155260634444715 0.8730556165207802 -1.7609575540257738 -0.7592002265605053
P 1.8324446149690938 8.588014360189991 13.917626216165791 -0.7088726819505469 -1.5159753886192857 -1.0940334485928707
P 2.341435140538764 2.211617299582216 2.7899449097834927 0.3037454994886253 0.1175014713532944 0.15084328003853376
Ni 8.961695184075381 6.0252647297444355 8.3841669863657 0.2593970552802371 0.74151823589971 0.3234092964661398
