# total energy = -340866.4951685413 ev
CRYSTAL
PRIMVEC
9.27572148093575 0.00000000000000 0.00000000000000

0.00000000000000 9.27572148093575 0.00000000000000

0.00000000000000 0.00000000000000 13.57595599164632

PRIMCOORD
 96 1
Ni 7.343542195631916 6.478052465814464 9.82176912747393 -0.649800558378739 1.7345050162612 -0.5501715964304912
Ni 7.690806650655716 2.388219969949727 0.8253620317866147 0.5122647940823887 -1.3725618253859202 -0.7961181826327773
Ni 2.477508063439206 8.074459760443617 6.5639335868606965 0.8668314899879395 0.05883532497065351 0.16643085006414562
Ni 8.27451851801489 0.09258653999320386 4.3513113697719685 -0.09375244856281272 2.242152366176235 -1.1490501711483823
Ni 5.881104144122288 9.27887507181229 3.826451171513428 -0.808302126293479 -1.6283349107603247 -0.6805190705085182
Ni 2.331183559512702 0.194389436696479 2.747040118602158 -1.4482484175859573 0.03981507511440885 1.6791944166143533
Ni 5.081546241494034 5.275325335727225 12.815865300892648 1.8118101179012667 -1.1281954391865603 2.1124872628772136
Ni 0.6810002704928112 0.43578266364317453 5.967909127012646 -1.1943581510565624 -0.25896716683167015 -2.7644449768082713
Ni 2.94296375960605 0.8900611156115121 5.744760316343164 0.976161481274035 1.6117728926365855 -0.18408018771479265
Ni 8.314905008670737 2.5661283049931725 10.40964950399726 -1.3027759149410338 0.32015350853300345 -0.8674179586190287
Ni 2.069311395021225 6.7507679485366925 8.6845935200015 -1.5224692238737456 -1.1983449036184524 -1.7353269979418628
Ni 6.8477548907272165 7.019791694170948 12.220735948152612 0.043369882345202726 0.5331742905415462 0.8671413079188744
Ni 5.541232438995757 1.1083837684747846 8.25133014227062 0.6889052376896845 -0.8677560586847377 -1.6159380797578684
Ni 6.493218270183392 7.914453567560435 7.892246563132515 -0.2198048948099118 0.9519344904058703 0.9916922299197825
Ni 3.367689763427964 9.0403962765064 12.279710056774755 -0.09190356827953206 -0.504557398135802 -0.29134815426553695
Ni 0.5112610632216688 4.585109636096475 4.542365257079416 0.060434808247289466 -0.02693590515889555 -0.26541446511891065
Ni 6.163911611647815 0.7042897515995412 1.6176700306260285 1.067055120231814 -0.68462923602215 -1.3371963014024326
Ni 1.647507243417178 2.979899681928417 6.595104648378606 -0.40035110122951695 0.21376203104994154 -2.507836540016765
Ni 8.891270504739275 0.320488230270416 2.0748406525039877 0.6005929863058367 0.36974571763883424 -1.6619109469435571
Ni 5.124316592530809 5.983081424386502 10.515528152651427 2.3664906579457052 -0.4730693548298498 -1.0817782853746014
Ni 0.19094536136792678 7.578728109866877 7.023602160491899 0.1101036362273265 0.23914447567878816 1.6128990358212285
Ni 8.814068676138305 2.066046341114275 7.087028615350793 0.3657862187704539 0.9682802787537453 2.359834586081768
Ni 1.8093222019590391 8.912382046478529 10.443630181504984 0.34514437415038624 0.2504773841931041 -0.6749536606055988
Ni 3.1191097075974485 1.1601144663130165 0.7565612239911119 0.5553086605467404 0.7889741153888283 -0.5027314006706568
P 1.3671578420431905 8.210145012008555 4.443708685050111 1.226658405851165 0.5329912279964627 -0.2512772543865801
P 4.765002975503805 2.1865379611463056 6.425974855998619 -0.6985687289213776 0.264323546047577 1.1536375334087485
P 2.5392194374248183 2.450812537461363 4.355669103651187 -1.3274729034670814 -0.7309486879139798 -0.29789161181100954
P 4.305966078494941 9.082387466951744 2.182049439596383 -0.6649435846677645 0.5501543700393106 0.46175778647177246
P 0.8807510741160427 4.7927559337128764 12.025920755847244 0.2995265763112713 1.323068860862115 1.728280889728359
P 4.192431249457831 6.6445794907902185 6.310687843202922 0.12876444586162342 1.3348270298393077 -0.2055733245915621
P 5.347110143073483 6.59049275973504 3.436468309492282 -0.11233818198480007 -0.0764923759307844 -1.2336350942793142
P 6.992001633076571 1.9543852077851307 3.33464871649062 0.2871346304048217 0.3326488127865368 -0.1556766968714351
Ni 0.761748207356925 4.575731881835322 8.068163400807146 -0.23479185513704726 0.22604984727835908 -0.26901863753040123
Ni 0.5696090606542697 2.282114993695193 3.1863447736330275 1.1320839756076888 -0.33650855285225917 -0.405751703419798
Ni 3.0152587316252686 2.6670110501408524 8.284089207279637 0.4040594033190396 0.2713971650649068 1.1975146944076729
Ni 7.160291045104372 5.538356965384523 3.632898404880605 0.9545063648981045 0.0884210090475703 0.24695908662720048
Ni 8.049591551567104 0.8683049112400627 12.460025441502443 -0.04019405572038239 2.513055365213543 -1.8974805607868932
Ni 6.782500191194858 3.710316357788483 7.0192175270208335 0.6919738493126792 -0.40088151981169023 -0.7024356680759516
Ni 7.965739030774992 5.902419751730726 7.666668441047605 0.773115808200333 -0.7126632593412306 -0.7367308418133957
Ni 6.020917091677546 3.252327617289521 11.716742412590303 0.6088153742156289 -0.5896313450880103 -0.6787318967011085
Ni 8.443188234617079 2.6139724755955753 5.1248694255218705 -0.6581854400083246 1.4525573293739567 -2.610447724521788
Ni 1.5347422992501727 0.6365612171893889 7.876864634456679 0.9130180158463309 0.38812422014602194 3.5995053450322008
Ni 5.45029326711015 2.637421499109122 0.34719952497451445 -1.81982656044784 0.6225926305053794 0.2704970218481406
Ni 7.8372610146807915 4.96982945383693 11.387972818319534 0.1579186988280764 -1.3338795783243738 1.0312766770806239
Ni 4.612927524354832 4.655493809522422 6.383984593125408 -0.8467776566608578 -1.8239300410932524 -0.3115655097536763
Ni 9.186294097251881 6.32174728574058 0.23598269869691232 -0.4217704474455575 -0.2834996047553956 -1.1317497321967218
Ni 8.11488335398477 0.7694294321874503 8.708459950974742 1.0510433181845897 -1.849240494833583 -0.004449808241237497
Ni 5.143072101053115 7.379392858559076 1.2604351027483072 0.7539623752003337 1.310316446292453 -1.2869217215175965
Ni 6.600334300062521 6.818870294516304 5.653897205372435 -2.696162647492105 -0.6583489621693822 0.13934427825999873
Ni 2.2897025337403205 1.8376595306116839 11.319943750538402 -0.320550486861106 0.5914511719055685 1.0836837299274305
Ni 1.1630177670882302 0.19828523965363473 13.105521961045708 -1.0740837449438212 0.47272071324117937 -0.05356816303444323
Ni 1.3962094012379802 4.688821476248757 1.6942383274603936 -0.2994602418497101 -0.23568299949274896 0.49014816468900746
Ni 1.6416264360961381 7.651125114820688 1.1844298421984645 0.4729850226461596 -0.19363954926845361 0.3921827064861117
Ni 2.7843489249218525 5.699392763334953 13.145108884523207 -0.6995807151256597 0.9331831779402961 -0.07301855844957102
Ni 0.31864885473135895 6.189614635443715 10.372885182519434 1.4339718530622851 -0.48305449106701964 0.431962814597527
Ni 3.897407656945224 7.934869430200196 4.300903389794904 -1.5154007470627384 -0.6837499187409901 -0.43762541219994305
P 7.228578905510516 4.350777088223559 13.434331440918182 -0.4677669687803299 -2.158460644283534 -1.5245345910432067
P 0.249330461685834 8.020094757748641 9.30042535517029 -0.8529189936719053 0.18540019207779682 -2.689488063685407
P 1.7698818348785008 7.49536720230507 12.395594426023884 -1.6271624877187782 0.5322936877088059 0.7089253895653532
P 6.730444843110196 0.5833714483864887 10.212458799460158 -0.6675195729250569 0.6498537802141776 1.6563565927842312
P 4.294380702558066 1.7946294593777663 12.262916363313018 -0.38561662323281976 1.3471654968000024 0.8012526756458652
P 4.496804769067612 7.157749497460895 12.256535594612476 1.1959918300052432 1.7278000934371986 0.689268277456058
P 3.452887263812429 3.704101624499687 1.5672629782210965 1.4490958531879172 0.02337492728051458 0.21583382597730572
P 9.262373563572337 6.188102692867486 2.4535961814314633 -0.2154191070373903 -0.05907957977097567 0.4703077329243126
Ni 2.0581341508227182 5.877848365936665 6.269349663538969 -0.18605170961886666 -1.7014748252791085 -0.6860975930375603
Ni 4.487148743166662 2.1745351777497355 2.8351891535127347 -1.9409715420909925 -1.7895554202681245 -0.6811893571026656
Ni 5.496004021807444 3.1975266556921973 4.605357608180226 0.42368154842534134 0.8171220385779541 1.1929203901687715
Ni 9.082916183067356 3.0973303139226824 12.546314694287044 0.17689832525437277 -0.36580858736795707 0.6753359836456821
Ni 2.2476649646883446 3.4644077097000174 13.41035648400542 -0.40240772664822955 -1.7368956279805634 -0.9550133864415101
Ni 7.542228146446858 7.684313645727123 2.3854715737206673 0.04756952224884711 0.332627215519982 -0.08758231519635884
Ni 5.663987335031468 5.748962218104096 8.127381460900178 -1.24141293845252 0.10276982157007462 0.44971602481589
Ni 5.214875459842026 3.3407808958596092 8.914175970983084 0.3354454016950674 1.459844349953673 0.4250722581252809
Ni 2.092500698337628 6.147196761817351 3.5689014931601286 -2.1693824334023604 2.855830467800804 0.7846356359144745
Ni 3.0321219929969567 6.74751217035107 10.72222183368759 -1.2706836623921793 0.28458152496566474 0.7790198323895938
Ni 3.2557039798523895 4.295363929018682 3.7651015506595518 1.2220054804601856 -1.082914970082206 0.36576796393800876
Ni 4.8686127827214944 8.848101297685458 6.18133605415976 0.8456168035835371 -0.21591944371257651 1.0772477444940998
Ni 1.534566060544968 3.9497783795549886 10.25033527992504 -0.9971254851202116 -1.4634330957461958 -0.33390428246019266
Ni 3.683722864745232 5.85693161434527 1.9721788240058733 0.38784654100460303 -0.5526036029107515 -0.3060255537720536
Ni 4.4230813359641035 1.371971941411676 10.175694477982333 -0.14561365620847827 0.4460167215874319 0.8097990225539795
Ni 8.734019201090081 7.276042771538529 4.787750754485064 1.1181668513059644 -2.65250531581347 -1.032182733834661
Ni 3.8476155848642426 4.275792157019637 11.154208872163935 -1.2156283732892483 -2.5965681383262185 0.779624041632496
Ni 8.657865528999015 8.370160480613063 11.13555539657622 -0.7293476619754471 -0.20044603066732575 0.774253521349202
Ni 6.483655001495707 1.2613496888711062 5.499578884806701 1.2295596386583598 0.2290906909872119 2.754868903084062
Ni 5.152524061084881 8.382840391666472 10.048216384647137 -0.2050986989479887 -0.9111557658266115 -0.6307183449363073
Ni 5.631281141634014 0.031050477140663817 12.35857223949318 1.9338207899788247 0.11056669190667408 0.33690167452561975
Ni 6.808685552499741 5.810172703138074 1.1485615554007846 0.3397489141664278 0.3080410415401856 0.6985167926375196
Ni 8.16187415822513 3.7571494747662912 2.380096293211925 0.8854964133872942 1.56525058070533 1.5584988638037935
Ni 5.779071209530114 4.009300683307532 2.459705171497137 -0.5738897659830374 1.1530289532904723 -1.2787201595434108
P 7.3076358783767965 4.345666165772623 9.125010334019425 -0.4592681872806994 -0.3059170532186474 0.7121320694281091
P 3.3713907762372615 8.361543335500688 8.62832050142965 0.8525927206807382 1.9974000573923667 0.6281909505287633
P 0.6831299761093896 2.026837867066901 0.7340759479233947 0.5249405897778443 -0.19987678842741707 0.9150237334224498
P 3.1280886058415596 4.884826743600323 9.29078695313986 1.3304088461669539 0.1250132063493073 -1.8767764954703225
P 7.608827825571567 8.573818218059042 6.274847383569221 0.36692161792647776 1.915321445623056 -0.2623854484845997
P 0.8790554722575473 1.8745954529340507 9.68879331410848 0.8198157833600332 -0.908357634256184 -1.3943346982866374
P 7.574229385023494 8.698437534081393 0.11147098104194993 -0.7606307883594449 -2.614107946982195 2.413221743453657
P 8.003899348312464 5.15436065390754 5.614323267904794 0.5303723023163769 -1.6484188259943935 0.45961760020031817
