# total energy = -340869.6242425795 ev
CRYSTAL
PRIMVEC
9.32591852052108 0.00000000000000 0.00000000000000
0.00000000000000 9.32591852052108 0.00000000000000
0.00000000000000 0.00000000000000 13.64942443307203
PRIMCOORD
 96 1
Ni 0.9399779822263628 4.656244612330129 13.924187654457027 -0.02496901124051184 -0.1655229935378956 -0.22893179681184445
Ni 5.575164670476533 3.4723472304973444 0.8411185826649832 0.9059626516614462 -1.6280515751919509 -1.8585689713233604
Ni 1.5420686095630183 8.113800936011346 2.493913823140907 -0.3095387091316346 0.812265224706285 0.7627568335635121
Ni 1.1683417496957744 8.821815346209013 11.573415489915968 -0.40941372565241746 -0.7480529516944343 0.379196835749405
Ni 7.031257636951362 7.721646061094502 8.820395008814248 -0.42982622787049846 -0.772016147378251 -2.324828245209912
Ni 7.352255753351784 8.840448531466656 10.948449316974473 0.1691716460340764 -0.0759133634988628 -0.6086765346449194
Ni 8.904582873316908 8.778552410067771 4.10176093399408 0.9367220443314899 -0.30332898077649695 -0.060637154066082666
Ni 6.47568469132898 2.0429357169865368 10.787345006660537 -0.8663236971135855 -0.17264932017003168 -0.11088139493361548
Ni 2.5343276911659287 4.27013293263198 4.602927403402969 0.28560996623017915 -0.06940358740480304 -0.3632683374446066
Ni 5.177376940757079 8.480141668389075 0.9458971427283774 0.5659496852003544 -3.5945809111473905 -0.24003844824796727
Ni 1.2357774667117956 6.970312759244309 4.943753355226952 0.1735234952448689 0.23135711842388543 -0.4199004841163543
Ni 0.008855892252581097 2.231804219407843 0.6351883122612664 0.6451129230950825 0.4713719125227689 0.206696896673044
Ni 8.849746472258381 6.291311281647506 6.729015807933408 -0.4870085906187613 0.7290558417666412 0.6260183683574767
Ni 9.220311845738069 2.41528234090877 8.2975401832316 -1.1769291569468376 -1.4370998571683056 0.08087404993824782
Ni 8.761355416266424 -0.043368319020827585 7.736097504475505 -0.5592223937788497 -0.13773271079850471 0.3584176942205246
Ni 7.184650345218478 2.4977980682158867 12.957985189275464 0.48153933997407394 0.5144265776203979 0.32116318074444045
Ni 3.6643399156320187 2.4085117240433807 5.596851161466584 -0.5477689005262695 -1.7358556167518233 -1.2458015544385188
Ni 7.955502794588313 4.082663317992779 1.5063913755682055 -0.0387282698081333 0.5148721497982488 0.07766377053106624
Ni 8.210072393175832 3.7932893913864825 10.613901573516578 -0.14723730785483027 0.0870729796601081 -0.686638810253011
Ni 5.539427750603018 3.3404973940746485 4.516376351140406 0.23761724040098434 0.4171005527737139 -0.6205853702673635
Ni 4.8683160000972885 0.9542000080110996 3.823776751709685 0.3642412428808372 -0.28615683987258456 -0.12576679668588017
Ni 1.7149711394312297 5.162147715769226 6.58061992682397 -0.7921419715938486 -1.1386595719426778 1.2680791348897966
Ni 0.1210728049493564 4.701950939130782 8.51497490675535 0.24366370370538035 0.43150335846260524 0.3971526488968773
Ni 0.6194601506311295 7.18532181135389 -0.06873481746966982 -0.7136387358806225 1.4594859381729897 -0.4802280773618181
P 4.857842993568593 6.9906712394332144 10.697122340265876 0.18244342344231806 0.767809051275439 -0.9512135530794457
P 6.512512743672538 6.088155472011631 1.0211405187522558 1.5307584604657314 0.07115579420921939 0.19966647218882388
P 0.9210846038412489 6.210278375389421 1.7876107189966828 -0.21268525304599503 -1.720804893066288 1.2421246198075642
P 1.2318139513291642 0.31376120360766474 0.6189005955182875 -0.18463503177699814 -0.721269512953003 -0.33331755671878727
P 7.313916902203553 0.9052389356374151 9.235500969276167 1.2246825130717165 -0.5546157482447739 -1.2712230798354172
P 0.07729041514502566 3.4205697307223546 12.299810352978644 0.023483942054553106 -0.6404489419605099 0.45191071847436365
P 4.53829972046156 1.3356020988428279 7.256430075093864 -0.019926820830914068 0.6861662414919666 -0.03515752173773945
P 2.389794605518812 5.017614630122109 8.7825448357979 0.0597884329125422 -0.13889947741309627 0.08697913439472117
Ni 4.36479100588777 6.345271046362579 8.480769302707312 0.1437722321243653 -0.07360991217666678 0.9365513230815807
Ni 6.553444200176939 2.0230621845620944 6.436481327531408 -2.0709184382964914 -1.4065060435418486 -0.20466675361689268
Ni 8.524094722502822 9.301643181389668 1.4180385558422914 0.2441226456196699 0.4515029415129837 0.4230040627423425
Ni 7.749978201641407 5.197241147262973 12.79404206935571 0.9493770140913393 -0.16420710293994947 0.45112550356890696
Ni 5.705680900546956 4.231700822298274 11.851959227313206 -0.33432697181990806 -0.9553219188208644 -0.05681855165094086
Ni 7.914151671749282 3.7769690339285877 6.461337698235709 0.9659968820362073 1.3393472863071643 0.644443922052516
Ni 3.1312331077902473 9.073186154734783 5.40152725822679 -0.8885693958856633 0.3536842933005973 -0.08694905248773413
Ni 2.5396621165750233 7.588956892002543 10.07767058296144 1.0627071276757631 -1.0760838060929854 -0.6969669316518964
Ni 2.2001800296137164 3.9821578938077886 11.904099505319689 0.4080209590699489 -1.0673705945897038 1.8731754083826255
Ni 2.8196168654484777 3.0358569388063104 0.8271781996203769 0.6897557586154379 0.654143408728467 -0.08250361512187081
Ni 6.9092466445961405 1.7857921648799457 1.9959825148761008 1.1444291274366032 -0.22377467809093718 0.8212604862263597
Ni 3.668807030616208 5.1245642640233315 10.671065723844528 0.23947537665564567 0.8524410255942222 -0.8324794948706308
Ni 6.674867659663676 8.50428647150821 3.0432617181329205 -1.9733365886852596 0.8472283710450311 -0.04589059188452742
Ni 5.060560485032741 7.779606644866398 4.984578496259912 0.27593644769615705 -0.5490323406197255 -1.3736244623224796
Ni 5.382062201034722 9.10105199935432 9.551157199532655 -0.9753811514645847 0.5847107678579414 0.04913378141217344
Ni 2.233119173923022 1.1323716818585743 2.3981627522313658 1.9216856972781875 0.6237722526357774 -0.9452575926063268
Ni 1.224036135260659 3.864194350102125 2.6198976567973085 0.14752835673268788 0.32249809750578007 -0.6921209164135048
Ni 5.205438629666111 4.101734821422148 9.188369642121476 1.7381187017543873 0.04882833435661268 -0.6796443812130488
Ni 5.52988733592906 6.402653423184538 12.666283513399744 -2.9639664387787987 -1.1138635959449201 -0.07400457651192417
Ni 3.4149835055124806 6.643700439878371 6.308777794494872 0.34584140021741083 0.7046511876700317 -0.37666892712122874
Ni 9.468698360328679 1.6911993730539876 3.2929650524224208 -3.5700674993870583 2.1168002884302703 -1.4878560046752505
Ni 7.177441410181363 7.652401115880291 13.111910407491635 2.265277639339789 1.6455643872647336 1.0913785274685268
Ni 5.025140646389836 8.82827820776234 11.94635804003338 2.1040902970627697 -0.5475603840598893 0.5686084629794401
Ni 1.0687036359356896 5.624004505909102 10.710130131455744 -1.2323958225555742 0.44696365888173345 -0.7821750901891239
P 5.447464867807417 7.780641821825156 7.148599141889917 0.09240827583009247 -0.0976345572260383 0.3680634448404049
P 7.500314036209806 3.3222465714774483 3.5289900619784955 1.0011680306207016 0.6483154891927801 0.009879463897241049
P 1.5654859910354608 0.9549460814948891 4.396684714727915 1.599187085551775 -1.8693323804874515 2.796204014387423
P 4.771139928833709 5.431275073209186 4.821304044700003 -0.6520914112954447 -0.08001890102680412 0.2004249476214032
P 8.379468377670232 6.594813974853065 4.605533997636958 -1.3086223464194817 1.5538081431963433 -0.5613638656018848
P 6.368035613536706 0.6448480986926306 0.1049398984542637 1.547310965507774 0.12515950211918445 -1.4206324556409018
P 3.804629708340083 4.939566017799184 13.325319131978487 -0.7642205625932322 -0.17894518048107244 -0.5651315601744331
P 1.3775034508761543 7.679306390889449 7.01726502876289 0.21051395642628903 0.3371937518447418 -0.008109002260379583
Ni 2.968990102821678 2.917734854485341 7.697838856226781 -0.5215007108583599 0.8477983846158883 0.8463968762826714
Ni 8.158882426269326 7.164860746060963 2.145471393639289 1.4357785672537209 -2.2729634380198207 -0.35931295234128435
Ni -0.059192537612002404 7.683642943013976 9.416491868300511 1.5136616528844447 -0.43596730777122983 0.3700138836985563
Ni 2.552074914161571 6.628405933460686 12.333769752777032 1.0080832696832962 -0.15517738863751343 0.5237260006444528
Ni 3.2477324822839746 6.330750591184327 3.554186828709776 0.3201756200201905 0.9138032307517876 -0.15480997799576565
Ni 4.395389344641686 2.0324720363763893 12.64388545482453 0.35274301243325057 0.03840431080981128 -0.5572904668634596
Ni 3.2600426947665007 0.4657018663569561 10.963600204246527 0.07581746135094684 1.724370241820043 -0.7998503959816999
Ni 8.455698435876423 0.3893533689852146 12.733138225690265 0.413783572585339 -0.2451073781304424 1.8186042580049648
Ni 4.6813779628152865 5.1335171458288045 1.721356595860613 -2.016333661072076 2.444925245204525 1.2004233834140359
Ni 8.793641746277414 1.5521219497570815 5.902393433058453 -0.2614264270054401 -1.0157024767914506 -1.6983144252732558
Ni 1.5608976391101552 3.044688583670668 9.723017091707272 0.8028015081902239 0.17633371100015438 0.8713057237092091
Ni 6.37295037261117 5.631903558918724 6.269631318800439 0.8595719802120486 1.9827385987254498 0.09963410415457034
Ni 4.705616025119897 1.2731091186569117 1.2691027040489622 -2.1601732560992666 1.6314472311370611 1.2195076537389966
Ni 7.255163615355132 8.259891450055873 5.806697385068341 0.3186571264931351 -1.432596312870997 1.724222146277953
Ni -0.10603289610801528 4.7046368036724235 4.4340424792449635 0.047121636078151105 -1.45220046025517 0.2142849934329471
Ni 6.480189109987359 5.626168119012092 3.262894560658286 0.7832091878805931 -0.4088596529211604 1.0832862373786956
Ni 3.2972531097705007 9.07057489754152 13.330996751190124 -2.1062986175679983 -0.08883572798748571 0.8215546204280109
Ni 9.276854889890764 1.4762276246185968 10.98186315053784 -0.19483871178287737 1.3333612439270586 -1.7719243374499225
Ni 7.228584747495131 6.050338872302051 10.469258442030602 -0.6151762834366502 -0.048420814505548866 0.5746423278783459
Ni 3.538859681577176 8.853131780691077 7.972382707159052 -0.07076601496996845 -0.563381667362862 -0.9343908250951521
Ni 4.972458532515751 3.9840883589470937 6.860951442806738 -0.4349468369265154 -0.39254420359058845 -0.2914432850825045
Ni 1.509026880149692 0.8793044887490381 6.9557055730235655 1.0453956329805094 -0.3147585627696773 0.36846993625020413
Ni 2.940993695342478 6.770933946620119 1.1376053873473573 0.7350192584389277 0.04600217776172723 -0.8916192384555807
Ni 1.8908486373160516 1.6051118189432292 12.64713367225458 -0.6036428288757539 0.5886283577447927 -0.35430984269973814
P 4.364371339553138 2.813965358808772 10.573308647855447 -0.9755315609995198 -0.9669605315010572 0.9809375625064397
P 4.124872425338168 8.366430743541011 2.8204627262607236 -0.7597278169292012 0.1504301037605151 0.6177134480362071
P 8.848599384277057 7.273125334477363 11.56850166343336 0.06866259547372046 -0.45466719817357826 0.4443449903119638
P 1.9047535818701782 0.17951460611829564 9.301769081290058 -1.5176941710826055 0.6900411510663407 -0.02890716995265344
P 0.8025335272671009 3.0808917994715523 6.425316337846498 1.192388171814385 1.2896152091893596 0.31596723836579776
P 3.781837163410314 3.479537513697365 2.8155759449419024 -0.7842157747682366 -1.144858244554222 0.5788208847360676
P 7.357207816100438 5.213291053082996 8.410720463314318 -0.558811017273044 -0.026134492303522733 -0.6582980543267889
P 7.08158961935151 0.583260665197664 4.590779461903167 -0.8648908213218007 2.1553061578149526 0.07318825125821589
