# total energy = -340889.8515710298 ev
CRYSTAL
PRIMVEC
9.10835810128778 0.00000000000000 0.00000000000000
0.00000000000000 9.10835810128778 0.00000000000000
0.00000000000000 0.00000000000000 13.33100276817993
PRIMCOORD
 96 1
Ni 6.319715735317228 2.1009247298609566 11.425042344844009 0.4154226508506587 1.0925401518767959 1.8757254284979892
Ni 4.431079503537289 0.7240097086588976 6.25514658601031 0.30422372467662445 -0.5477133646979858 -0.5432183050411097
Ni 2.318277474946438 1.3256395202818596 4.648920456607373 1.8842018414001163 1.2753319597974682 1.7138199771080225
Ni 3.3137025871350554 4.163521489587407 4.793522014464874 1.2684169778451897 0.06491752660899143 -0.03645284351039528
Ni 4.951503750109352 4.502015395031473 2.6021312520540287 0.5025609365310635 -0.3893223542191811 0.06868496407122364
Ni 7.153531252901156 6.133723066556153 2.4737544121624473 0.22792469570356877 -1.3013985749775328 0.9608173947177969
Ni 5.105243723469694 4.408490775891478 11.434200798734276 0.183656984134445 0.6763461700777513 -0.23573287889407787
Ni 5.711550676885448 7.915163033955628 12.66898535958299 -0.9238228197713187 0.2855184349576373 -0.5977691437037963
Ni 1.8785259544868547 6.234261121295857 0.44500613214461077 0.0472555905528541 0.9624919542067424 -0.6792417464579914
Ni 2.6421342492103346 1.4780952151752422 0.5953914972823912 0.40268412023806777 -0.687660823759622 -1.0390136407135655
Ni 0.7310404501386563 8.752421510833958 4.437317817877859 -1.609420590354325 -0.14854882757740223 0.0667340109924399
Ni 8.561820012964505 2.288156135299382 1.3599352203644295 0.3233311349300367 1.5560483453807719 0.7274707566677084
Ni 6.938492030727787 0.8249840537430502 5.0789515374929195 -0.5675106019295709 -0.8677948823424733 -1.1764324198160772
Ni 0.6280522471180161 7.171811727250004 2.4247095480972716 0.17338825521858525 -0.13072696890463292 -0.015847765665534
Ni 7.611781848299708 3.802101847254428 3.5916122498629464 0.3911532367803328 -0.9700939349237162 -0.033316097653626496
Ni 7.789485911352038 3.9922297105119537 12.659680261130182 -0.43130924017392813 0.19392057084398215 -0.05803699743907424
Ni 8.305856938648946 9.027557678574693 7.027518031890256 -0.3403518378577493 0.8620862619934703 -0.1277326621629994
Ni 6.909664077905613 0.9014122850640187 0.3870560265393911 -0.9855100123684705 -1.0047547195306954 -0.16947992130311457
Ni 1.9220274719208847 6.559584341185147 8.943889213541766 1.0336590612698715 -0.08135124668498248 0.9383122716367454
Ni 0.053507959446807515 4.773581086466901 1.3866646075214448 0.2011173457027375 0.027159076913295162 0.3465075730465
Ni 6.650622378612519 1.83902300618045 7.2191515067122385 0.22400479182387228 0.5821170389888362 -0.056978988488205096
Ni 3.748143934926288 4.464671127552511 0.19752840406890534 -2.1240993931948453 0.16831521157105206 0.3159746945649655
Ni 5.970892951989957 5.298741679158247 4.694832045547484 0.028073361197448424 1.1041088305510016 0.702402500845171
Ni 5.591265702171502 3.071074148816862 9.174115711713775 -0.8465449718247614 0.2436498197483094 0.5129556495018263
P 0.19561747057693307 5.743448146327235 12.5177984589481 0.23636459894080583 0.07530015539489612 0.4168285300592498
P 4.146306693115398 6.272434249345693 12.451409459728426 -0.34479521834108356 -0.3688664003576744 0.9082169949132616
P 2.0074092190788826 8.483870685870611 1.2912463607695277 1.3477928459713562 -0.3377941044329021 0.2139517784632444
P 6.6279881091771 8.002685245225225 6.165175137295569 -1.292855056282896 0.642408636790042 -1.3944781658430372
P 4.841511219846925 0.9178583361274368 12.85476580360449 -0.6967008224747033 0.2305341083019578 -0.2484528975639076
P 4.190336495308887 6.37245312768386 8.21193792761094 0.157038095995336 0.22856515750104506 -0.6029275479762841
P 4.726490876011722 1.0998979775504947 4.071301187301799 -0.10851495158396794 -0.768994844053424 -0.569046064737491
P -0.10520244483140495 5.418899136861288 3.619860000285508 2.1565986513741313 -0.734222216458929 -0.452027446557886
Ni 1.423253792128698 1.2116028791021998 2.604891084504303 -0.7261003586827431 -0.5452335356989255 -1.0919004614102679
Ni 1.7213065884004242 6.491781724816026 4.726320549718586 0.7168366739926301 -0.6675087742917793 -0.6488171114195471
Ni 6.253570840089857 5.755471178783876 9.295854380352022 -1.6753256776875665 0.3684126006497075 -0.28885238442687666
Ni 8.566601900873396 2.623234406522811 10.411620028237909 1.4157090501973555 -0.8028961247865591 0.21370572389070935
Ni 2.774934107708692 5.2450843426415235 6.8530283083484935 -0.7009092041290961 0.045431135749605625 0.4381234348822841
Ni 0.6295004760275661 8.723238332052837 8.983482334591596 1.5043041229289447 1.1297612410117834 0.22663323058565488
Ni 1.5239284722372266 1.0969468695838644 11.691155773227509 -1.2392586111136787 0.5418304235546475 -0.15769681262525745
Ni 4.09176584588027 6.932316564056876 1.3665879649904376 -0.08413138053328091 1.170933858595351 0.11146066447585322
Ni 5.75791221870689 8.379507120803796 8.265661755140492 -0.7009498275590444 -1.796194779961513 -0.8094861192992511
Ni 5.425038170100513 2.965617580799442 5.120078506016762 -1.2649737564915955 -1.255556576942754 -0.6706928284467158
Ni 0.8054894352832398 7.444115195677091 6.734142377411322 0.02662840122080575 -1.1242873623814058 0.4050341085274831
Ni 5.424947086521296 4.394381929470767 7.172119589747758 -0.05469841998414451 1.0760382975670306 -0.18369092269617399
Ni 7.950303078817539 7.443641561065162 9.109113915405578 -0.5099613427601927 0.04110936844580017 0.4793927259447164
Ni 4.682788974703415 0.5645870307912083 10.681532552710548 -0.8360034488634892 -0.9372342080812183 -0.13683308180237078
Ni 8.0913733263088 6.897641045448971 4.6662245149870145 -0.5495529890098858 1.561443034033782 1.46940396861765
Ni 7.1614828493667995 6.171194851046019 6.9762470851490175 0.9352899398706537 -0.9638551531028562 0.30444149711438534
Ni 2.6386821815580106 5.327433006611597 2.496963418982726 -1.596153955152406 -0.7020296908867845 -0.07901565657327038
Ni 2.3026384243948823 5.60804329746327 11.389755655419558 1.2297105624139273 -0.9875427265277832 0.03732753280586475
Ni 1.3570815718275613 3.494694767397118 3.8323033404511944 -1.9827200867826884 0.3923089476513308 -0.7882133259634038
Ni 3.5695745778713976 2.5178051635791556 2.7650633802289484 0.19350148102869255 0.05911711787713045 0.6141748387553293
Ni 0.9069292174571912 3.386268874697224 8.022930392377782 1.0326313913363054 0.4116973794802716 1.5932444948150948
Ni 3.6694659391986604 2.857692647785241 7.329678697584669 -0.43038492858744587 -0.31604360012968796 -0.6255684253042516
Ni 4.156289453397579 7.106176900066249 5.928350544645081 0.48621591951413684 0.1244673611481663 -0.16088755164841323
Ni 0.9445640415538556 7.559080889364764 11.203174586736743 -0.6823260418102701 -0.5566003827749705 0.09732833883952915
P 0.07508839187068676 5.871511658706309 8.241599295182949 -0.6293322632220582 -1.4309094120868775 -0.9562865967269788
P 8.775748015471427 1.5261691282859646 8.487182484810942 -0.39257479971820775 0.5643949391187248 -0.8327129510376755
P 2.192472835331944 3.492271944189946 10.42567058116792 -1.5283133413593486 0.2074998521903136 0.025342592529846674
P 4.030867364815797 6.022892567364931 3.8621377668237162 0.5400162531640442 2.0803497589127202 1.0432832146231967
P 7.091776586192044 4.135103412871709 10.433162205558515 -0.9293699748417928 0.8382433939376015 1.1897463633161638
P 6.310297693226191 8.086400162883551 10.52390695386081 1.1294462808745258 -0.12129410562650723 -0.7992999227948686
P 2.409780038627817 8.59886370463205 5.772057498559287 0.573447022018664 -0.5301455310175516 0.020585023240203257
P 6.683184758182589 3.6773082353692423 1.5080034192469298 1.601191003355681 0.9155490097983007 -0.3424565429055779
Ni 4.973855660449199 2.68582704216072 0.7294801884266693 0.5427385371912137 -0.5040272366639449 -0.33441464643770796
Ni 1.4832596541168448 1.196965747922031 7.111037119853266 0.527429417637969 -0.6743221976691871 0.1056286311751084
Ni 6.850569051709635 0.9844768659667366 9.500832510365084 1.1400263703832172 -1.1081290074539885 0.004316625097482888
Ni 2.860871464699914 1.5649069745269464 9.265753079092395 -1.1485848014761895 1.0702576863295117 0.485814313200344
Ni 6.411764800473908 1.7961955072326257 2.7258564535549987 0.01783754240205315 -0.034148363746934744 0.2910198243918407
Ni 4.283041362235929 7.114474614132916 10.476088074771894 -0.30442427072320477 0.038733412014455876 -1.1938979235906924
Ni 7.996063469016151 7.082021534857906 0.4126067921813385 1.1318479483374828 0.24147363803259703 -0.31447291320845844
Ni 7.76160522775372 3.9142166249126094 8.359418637407492 0.056648087511347596 0.7536870100517601 -0.9269644507240938
Ni 3.0419182951095065 8.318025704832333 12.409576593465653 0.5476989665202825 0.005939762523202673 0.9289388008416453
Ni 0.18929809185085894 5.005680263027612 10.488392555488316 -0.27921177601331915 -0.37603129353722986 -1.3218794685397042
Ni 8.904940964232793 2.1904963216629354 5.63560154519116 -0.41318579110034004 0.3850882615331755 -0.6327952820699941
Ni 3.477616596293934 2.6070670712117967 11.8667120854819 0.9132766688243562 -0.114339528685545 -0.05579268148958779
Ni 1.2261762517769166 3.318748617423676 12.8068276050268 -0.25780888485751086 0.8837694033938586 -0.7059747915774617
Ni 3.0914131120560135 8.483278642605702 7.87983535692053 0.5069230701545011 -0.40277950816535146 0.8896824264441838
Ni 5.666136404287861 7.743652654290053 3.709991756099672 -0.37645655400010647 0.36405020991595366 0.6233187100381266
Ni 3.204657326096486 8.284971473934492 3.3392697478212616 -0.6600520609034181 -0.2559972855700688 0.6280168868447443
Ni 3.597355069532577 4.505640521484309 9.165157641697784 0.15639506309469842 0.3015268945707517 0.38234129491565766
Ni 7.359443900436985 6.390706276958943 11.503535440905827 -0.006592308505537033 -1.0209832655744158 -0.39513176181210663
Ni 0.16556080027112158 9.236967935552451 0.41286820205369124 0.6851169742918458 -0.33818928298879175 0.40377838174351105
Ni 4.6057049416120845 0.46056958332541625 1.7642916619402937 0.3116745245277148 -1.1735147319486499 -0.17421820731904833
Ni 5.823383095448057 5.570371129099127 0.5754952002382339 1.2649593583138925 -0.45513513894893226 -1.596213861856064
Ni 8.18110886855337 8.81507790497732 11.639791921235469 -1.2127708492357954 1.0967835005341822 -0.2614068866214143
Ni 0.11396104180890983 4.72438684533181 6.041690396443732 -0.2568498633783512 0.7544966504372489 -0.18675876298822028
Ni 7.819015207734183 8.580419279840612 2.8338779351631693 -0.38558268467109075 0.2542810742099105 -0.8569034322409501
P 8.531070196620853 1.3807450857081331 3.433079458564207 -0.009398410495764458 0.7622084172592098 1.294510846718764
P 2.012090915050635 3.389821134286686 1.4882601426158573 -0.5136999838670185 0.1631902316396609 0.5847884151734123
P 4.783973722855558 1.1587652947984293 8.476744306632677 0.2510895638558063 0.8574801306800265 -1.1516300160604167
P 8.552720763400728 1.9034099883289337 12.500387832780772 0.08266688017261246 -1.5008971541299247 -0.07187544598406331
P 6.231246254823774 7.762315679671612 1.3901968287234792 -0.6273663977449389 0.7873797743185149 1.8482881582226425
P 1.8118800995737896 3.207389833472995 6.084282899757176 0.4220476123663441 -0.27025688081287647 -0.45535445404858993
P 7.1618107502519806 3.7485355943169214 5.914259004104422 1.0129110300892428 0.3883041973673119 1.0587651123088797
P 2.4095796547535393 8.877916466279114 10.295319960114705 0.7713767140220392 -1.6032710258131613 -0.3225569757681735
