# total energy = -340865.6162909114 ev
CRYSTAL
PRIMVEC
9.28036558241197 0.00000000000000 0.00000000000000
0.00000000000000 9.28036558241197 0.00000000000000
0.00000000000000 0.00000000000000 13.58275310359194
PRIMCOORD
 96 1
Ni 7.772909234308805 1.8391642514155322 2.0355794726586027 -1.7930986575346926 1.394601835905095 1.8362389403675925
Ni 4.976001994719336 8.61823915656525 11.119588103459233 1.7857039077325179 0.17885493476011133 -0.4336432876237435
Ni 8.153088682701101 3.0530453242359417 7.260429825013911 0.022721609967231837 -0.4511309028855457 -0.45788853332435336
Ni 3.8188146740404236 0.9363888674213445 4.104395645909701 -1.5558763385792818 -1.9764183129343766 -0.07995976565409454
Ni 4.946230582561876 8.23443108530713 3.495290928291541 0.7995799159291327 -0.23598947498957423 -0.40421649772219415
Ni 8.7023007062293 0.9699466686561867 8.843757603658007 -1.0003848725977738 -1.3796439290436822 0.4564690272690074
Ni 8.349665382301884 4.874678965437807 5.886493074495229 1.1955719688590056 1.121374816720301 -0.01022039217642756
Ni 0.8333248415934507 4.3101728997539075 10.70615710588982 -0.5201529385812139 -0.6555791127337289 -0.8761352838873685
Ni 0.21497038379532235 2.8192914808998775 4.114718196328261 1.185246161452965 -0.3584901993296729 0.013664641971286145
Ni 8.375817451958904 2.549279250001721 13.455006901365765 1.4062080526854557 0.05453489782308673 1.3895010243434198
Ni 4.617232349271945 5.212122331228764 8.729472688042213 -0.3106501970282586 0.5067384649475208 -0.37944083343941104
Ni 1.9089990009432392 2.0117883279557147 9.915518232924628 -0.1287122524674493 -1.4115292077880528 0.09352927680841312
Ni 5.492138796012751 0.5377739731902711 13.424690731760164 0.08179630464220107 -0.28219451279072694 -0.6668521145443871
Ni 3.0508087561779775 9.293079486320236 11.8161528405457 -4.715616342250401 -2.0453830130295483 1.2882892912890844
Ni 1.208424217973593 2.685654219345196 12.403769800149712 0.5012874691352787 0.11016611403414575 0.30430522864683723
Ni 7.696253416222578 8.731422492809758 3.3448070194521224 0.15140917984433278 0.7792016093830967 -0.15544709735913229
Ni 8.03839264689872 4.115916291499561 2.7401847183152763 -0.4880604289220433 0.7562444863662912 0.33758815906968315
Ni 3.8917490656069678 1.5327451471091105 6.485819071106433 -0.5587027738299539 -1.4350020940990125 -1.1480219869941841
Ni 0.635284628371337 5.028157648187205 7.952742298680632 -0.46514392933518606 -0.31110399673622546 0.3930859350266714
Ni 3.2700666687815128 3.8221277644831333 10.15731815305013 0.42589192581309876 0.8540667341231033 0.9978204543047073
Ni 3.2012898809077805 2.2524746042349277 13.252121409375755 0.8114815524627249 0.1964389663904617 2.6181767177349298
Ni 4.231317635071259 2.110095238486877 8.68527401985608 0.9205806586849371 1.168880061390116 1.5145394275037076
Ni 1.7900061559672582 4.510025568335856 2.423991533184591 -1.0294943883692205 0.9581678729100918 0.6037909244178441
Ni 0.7119237417998697 9.18183574644135 10.767957843103092 0.2268656583114351 -1.1758510933913104 0.42719624644681914
P 0.5627984784529239 2.573640209139293 8.375288471131917 2.1370996621092546 2.0698791983986995 -0.643394397742079
P 7.684922090086587 9.37623156017648 10.757132296880624 1.4908791077722905 -3.0995484217828877 -0.2010273570920925
P 5.367132274266808 8.989333127244906 5.829187746274813 -0.5386314570013756 0.6142288319217164 0.40920263808287594
P 6.2956142703795015 5.1050918772350045 5.796765861763185 -1.817515138705844 0.6479647907215809 -0.17779718291955832
P 6.214791568235077 3.421466549684504 8.628865174931926 -1.3020079264267577 -0.2746665798447979 -0.2641487110326096
P 4.23283961499452 1.5187039542804832 11.676603986240298 3.9692780592542287 1.9661308149654393 -3.0907043411286965
P 8.826601920205926 7.099321753880895 7.567889258280075 -1.0923720017300478 -2.1265062028641246 -1.1312738210015678
P 2.3871327059820406 2.9230923677393994 4.951130615485549 0.4816028462221577 -0.6058285236731632 -0.03506007692792672
Ni 2.497374166399267 3.2600160330687546 7.135346276235268 -3.193674708745351 0.5257060071889592 1.3126281251447651
Ni 1.1521759233706121 8.319105139086636 7.815637892617836 -0.43486121919124465 0.852226852700887 1.7809622792824749
Ni 8.148346415988987 6.336781971230652 3.7852141831248067 0.2783944223183463 -0.42943773418282816 -1.243428426220652
Ni 3.192139440637439 5.03097887926447 5.338891194361458 -0.41974647503699325 -0.7878479722041851 -0.9418891903547262
Ni 6.431673707299861 1.4932200709312362 10.206284144934921 -2.2226880868040366 2.1011381564129814 -0.9658698695400397
Ni 4.533356406915611 3.8392407582544408 6.835493030439259 2.8786852609117903 1.321313311623589 -0.2747740519569397
Ni 5.8558827173068995 4.744995139537452 10.522653657007933 0.7884992326349388 -1.679281834121837 1.0117550621079285
Ni 7.666055107257374 8.845153370612023 7.192162529199856 -1.6831261475685917 0.9889223804841291 0.501716329142581
Ni 7.178900887063631 5.376143509056364 8.021932990850567 -0.056353953309696496 0.6556133084057741 -0.21303543729656213
Ni 5.640568959992304 -0.011902996643752394 8.543306702331156 -0.5870083056428664 0.6013512046280999 -0.16442127583328456
Ni 6.8716651106032645 7.555377469667017 5.1843332051176985 -2.6495693731135983 -0.9648547980119642 0.9300762568801982
Ni 5.1403479853354375 7.267918151843666 7.392046751024117 0.5766261910775939 -0.9235752225368868 -1.927696422248641
Ni 4.974155202007573 5.758689450622025 0.7633601669503436 0.09008322724134163 -0.9761902776294414 1.424221972764373
Ni 6.099640794528793 2.0681572673087105 6.8418092471207945 0.17012012599027476 -1.4587194923206104 0.2123180995145634
Ni 8.76271588489048 6.964041867652938 12.502244685294356 -1.048508210467562 -0.8742563216971007 -0.09665085315653031
Ni 1.490463802411671 0.5813963306859503 0.20828573660797253 -0.12118329108025581 -0.48682912761810343 -0.1363700261230232
Ni 4.668320760720454 2.935630141375537 4.573951509222462 -0.40127746969852823 2.477381565961017 -0.04391752731855662
Ni 3.9648041019235274 7.245710237475587 5.348263435364519 0.03689558747476871 -0.4702108023351321 -0.29409152133862904
Ni 4.5067681600854606 8.125331109832349 1.1660398612203717 -0.650276469573893 0.33223229407440846 0.738073214773903
Ni 8.094761586251714 3.4857423603461513 9.624140744835415 0.008901416254687896 0.5918751468168646 0.7495097387456189
Ni 2.2951457242785684 4.517867477086808 13.435746431044196 0.7327536023332025 -0.02411874742507459 0.5669501014404107
Ni 9.023252862729793 8.146546025104154 5.561389810557694 1.6778893246496847 1.0871104962207923 -1.6146026487758967
Ni 2.500473808438105 8.785647667758646 6.214938198008171 1.2767039004443304 1.1749910593838602 -1.3299306209789548
Ni 2.3490832079004997 8.698922653228891 2.333530243550535 3.113579188844341 1.2951047715490211 -2.3851041592818345
P 3.915970819263754 0.9572418484431062 1.6231934442316271 0.07027390582489833 -0.006510290314692014 -0.020817708076299634
P 7.116388345825275 5.750188635928686 1.7147414646523538 -0.028078503403770997 1.4772324635231333 -0.8257380623817393
P 8.294280161679778 1.0838074715738524 4.904188671291389 -0.03810426307088922 -1.115664653709401 -0.03945537778214496
P 3.3483465508102443 6.385476048409639 2.9036258733062676 0.87932962245495 -0.12652192968434983 -0.37033964246909123
P 1.6025891770022032 8.851426897612784 4.140049881685182 -1.0736510282817766 0.5673061992282488 3.6214209141583695
P 1.3300712474498961 7.886231776034097 12.655349369318708 0.3068069120227684 3.3808962703026033 1.346113144276088
P 5.988220727707576 3.2164539979480824 2.8194130536864312 -0.33289898112412986 -0.08280340575047675 -0.07902876919939293
P 4.568037132362128 7.156730094157094 12.873542824012498 -0.003406968799019939 1.0432629029082228 -1.8156660013122472
Ni 5.426675098581728 5.805397529608464 3.542694106645371 0.3755191297875017 -0.7396850393457133 0.056577639284728365
Ni 3.7909921386139698 6.323678095305985 10.955508459329701 2.132085239613799 -0.4121609493802515 0.266372972377438
Ni 1.6194330401773243 6.1103596165493235 11.791052236286884 0.5222049360142361 -0.7420339991938639 -0.15135570089857805
Ni 8.847232172458428 1.9129431562321795 11.225412109952844 -1.2427964490636079 0.6591094944844906 -1.2337852467039332
Ni 7.217516487433703 2.935825029048637 4.862476212992095 -0.2761210529031374 1.820820548929993 0.3587084859880661
Ni 2.3596071422479303 2.1211945554882248 2.7979930423396002 -0.4505611464250047 0.7614951932422691 -1.0241495791175395
Ni 1.1656602942760947 6.966816696903274 3.1285429527220274 -0.8195036514362531 -1.9073106595034377 1.2789456452906556
Ni 9.358970080559002 5.484566017857985 0.979459043176572 -0.6573377472960487 -0.2183763898935013 -0.2686828514575373
Ni 5.694098107537263 2.618872710029398 0.6947606340554789 -0.32945678821180036 0.7542619087186235 1.721820478814996
Ni 0.9784010815225975 1.490324596930885 6.075226009271983 -0.37979513145503624 -0.31558054445034034 0.4698680742837327
Ni 2.6455816016095635 8.01382751972266 9.698587835959838 0.17811959925598356 0.43593105521665576 -0.20217741153613566
Ni 3.918894134360263 4.0034011415628274 1.960439138239867 1.643289218077312 -0.4512142066279713 0.16005759954795015
Ni 2.2658847322173243 6.899552608587419 0.8956675521452482 -0.06733230669807114 -1.0826023239377938 -1.132702068807662
Ni 1.514110173414541 6.705193916313829 5.7636915675649405 -1.0326697007734085 -1.3483716012929616 -0.9521021263319862
Ni -0.23411484954956904 7.958618626042884 1.3625265412769123 1.4998571429011847 -2.3209296814864544 -0.8899914730441704
Ni 2.769112545259172 6.105756555317996 7.550978576474177 0.712179891946909 0.24345775834216138 0.24333331694915508
Ni 0.43848984018398995 0.6715680729199717 2.4084394968711655 -0.1424918227500449 0.7485067514024012 1.1255603155565583
Ni 6.661845329597028 7.593436248113945 13.533447333715669 0.2350083420232275 -0.11980466556517433 1.1525584414119572
Ni 6.616603548341538 2.7136809228101364 12.188998944210182 -1.32751018446292 0.48995404640033036 -1.4515175752555325
Ni 8.55274761803807 7.044187103124203 9.651510398431048 0.4791181321270909 0.7518836382944342 0.6501445719817189
Ni 8.391798241153152 0.08972906880512145 12.802587006346196 0.9116761571064557 -0.032342163776131395 -0.8555700581415072
Ni 6.625549820573393 6.874319295103587 11.15872062018129 -0.9455226733422555 2.0431602943466167 -0.7127735596668499
Ni 6.054528938388702 1.1743745573733062 4.08767521159421 1.1487179846199442 -1.5585338308067869 -0.3359675927471246
Ni 6.729759043489886 5.1896545666298834 12.78137023500131 0.715667079164561 -0.9047514049621644 1.3831131185392052
P 3.1152608937819544 0.38991269560886327 8.333562092284545 -0.537486544763655 -0.5977498604300866 -0.14814953525645452
P 0.3473204586710014 3.006281563057189 1.786593765614921 0.8001895244886735 -0.7060092443598228 -1.3521089568482068
P 7.6263351434064 9.33641879267165 1.1083772389326039 -2.9522674051743154 -0.17743157205002347 0.578171681187843
P 0.6078750692045487 4.989282197586332 4.41678480926877 0.5944156538505311 1.356142246377316 -0.5566541188310413
P 8.102761261214225 5.37246848436361 11.049162194656452 1.0793449933427604 -1.64160180307256 -0.3139149838224594
P 5.2351097962892466 7.296195425174022 9.422573064730184 0.3247925499669116 -0.6434213943252725 1.0432806435200355
P 4.670650132432275 3.9161657069368547 12.845806595984133 0.23877500815451136 1.4276639085663863 -0.1614537085645284
P 2.1875398876308925 5.820849337975723 9.62175012271205 -0.648021097880813 -1.191926144576302 -0.6865400798916176
