# total energy = -340889.45862980303 ev
CRYSTAL
PRIMVEC
9.11092873739559 0.00000000000000 0.00000000000000
0.00000000000000 9.11092873739559 0.00000000000000
0.00000000000000 0.00000000000000 13.33476515397264
PRIMCOORD
 96 1
Ni 6.494980604545793 2.1696765521821897 11.143169591131912 0.004685321290811286 0.7284886564092615 1.4598548914766343
Ni 4.922980972759805 0.3075147975653772 5.769605819079756 -0.7483892519879305 0.8142799411434687 0.4652544867711213
Ni 2.9922476357347922 1.6713269760871976 4.682395968257272 -0.7768313093787074 -1.332754206470679 1.7917480570440691
Ni 3.6069528818050878 4.175921265979211 4.918635059786803 -0.5766495881163617 2.085078274736641 0.7888784703512285
Ni 3.621366370952448 3.045218574990639 3.0833040789943005 0.08518141906435008 -0.5739851539103211 -3.8063493088060705
Ni 5.302186934708134 4.569877821435488 2.2936863133286036 0.16383943518788557 0.1361252571020688 1.3442820046046204
Ni 5.288556985425927 4.591753161159136 11.309654501712581 -2.643472773297557 1.4064674769944294 1.7792738358364584
Ni 5.957262705691166 7.902746636224129 12.512410060952089 -0.9793517060765585 1.6356988073245637 -0.6760756900251841
Ni 2.167070826584121 6.636518881349985 0.10999350848882977 -0.006614419992724092 -0.5349509228259948 -1.0904698996113285
Ni 2.680143663401068 1.9364458892977021 0.07274529882944265 0.578307692545075 -0.5779148279820305 1.481412820153068
Ni 8.173423215920025 -0.011518036017757303 6.863896683660348 -0.7775687017653641 0.04123201006659351 -0.8021494764285219
Ni 9.026215249853026 2.6334501539951147 0.988768999880337 -0.07978287375659808 -0.423377129811045 0.7134847268012616
Ni 7.093231513447864 0.6181045335550489 4.703157952498108 -0.7491335863531228 -0.05828510889413832 -0.8528295192818925
Ni 1.0721558633900048 7.382020619328937 2.1138265594683374 -1.5747004132643203 0.20846838675117 1.2292454498520506
Ni 7.711043586192779 3.8298881952986044 3.681381880251744 0.4976956380189622 0.01781054581885965 -0.3478219209825493
Ni 7.692366182430398 4.058280955062202 12.402585104643553 1.137906238716421 -0.5624110759194766 1.6445146058439806
Ni 8.351933641245067 7.780022427112286 8.80685233148889 0.0558405040083877 -0.7433486042402294 0.7537446027625728
Ni 7.118341232847436 1.1053834202297144 0.10950880708387432 -0.8287094863052372 -1.0437663249072024 0.35513696658672383
Ni 2.056063271734924 6.613377122541961 8.835362249466082 0.6197173658401134 0.24128671883277159 1.120416823682406
Ni 0.47016582936399187 5.1433014497265885 1.1604690060286087 -1.0257284935688848 -0.7491580118331549 -0.03411365385425738
Ni 6.54297697675078 2.2164976145894473 6.811584464546951 0.08236271866863235 -0.9580208058092662 0.768045078545645
Ni 3.7598615975826712 4.530937712323089 0.5079789166005828 -1.1632256913178163 -0.4529905818021037 -0.9507448409731433
Ni 6.095940150894682 5.360515100018751 4.5493017001394085 -0.9423177932517127 1.2738738871947028 0.4783169763820343
Ni 5.6975101294640975 3.3726106856235223 8.92531809254291 -0.43797765333303923 -1.4643309249701169 0.30664647518550414
P 0.34433843794899505 5.894224190260963 12.351459128442283 0.006384563370105133 -0.3480386649790458 -1.0081123231490188
P 4.101038543285059 6.237487538627539 12.445309893523218 0.5008074441750664 0.28187389622651454 0.7509577840460551
P 2.446940333302574 8.542643600051976 1.1443827503784332 1.957943651168957 2.10456183738255 0.17784757654151953
P 6.393211531362476 7.81735901277972 5.966680672651739 -0.08008446415741692 0.6130677217340798 -0.4751740598776784
P 4.794671764376578 1.4620489446618812 12.520891424445942 0.4968407462178346 -0.9169224931070595 -0.14823618143298986
P 4.107598411923553 6.202975340846123 8.143434594220572 -0.5945352101475309 1.468344159894568 -0.18367112520183207
P 4.923618737766326 0.9169511935889482 3.54772729002101 0.13381280691880826 0.9072235206517407 0.21593512744186036
P 0.20931447513997492 5.905476187161715 3.43426160661811 -0.4413311431863045 -1.6506268893893057 0.2959013208538582
Ni 0.41238067540178347 -0.07191347104236685 4.576664552197731 1.162381855260282 0.10053964668797523 0.10875046463354175
Ni 1.8793568102854672 6.3178732622350955 4.620376054651769 0.8586978051372115 1.1561423021084731 0.5764513560626265
Ni 6.016419965510261 5.884776157235798 9.13650121915199 -0.24732469749673536 0.2765290869748334 1.2097009520612199
Ni 8.844215338849452 2.631791964978162 10.221190987105851 0.4176435697613775 -0.11614290044287094 -0.24344773103983236
Ni 2.441983988109045 5.399391432630498 6.746630831911454 -0.22947764201298546 -0.08201999061723295 0.7931300465387309
Ni 0.889099995754205 0.22371794226580352 9.090029105312585 -0.2687808104879823 0.012017079065534142 0.7819002392611825
Ni 1.571835635070025 0.9805272538103612 11.536984927193888 -0.7148782647146784 0.4446069857240988 -1.0788189456359614
Ni 4.163029301918836 6.7977185422123325 1.6157065787756926 0.5859374411761908 1.4678967879445042 -0.15286930932962706
Ni 5.4905189411335895 8.341036970562234 8.095095651097797 0.6853355180605553 -0.8967172218037782 -0.010057384236002033
Ni 5.5844799484513645 2.9174013567552985 4.629430495558624 -0.15923844608076448 -1.1203327486090318 -0.07115527998858714
Ni 0.8434314658230166 7.567901785943622 6.647860165351649 -0.24691229254966507 -0.8423363330600525 0.4577880031907471
Ni 5.104406895257513 4.822551206090181 6.891739681659294 0.5468371327406194 -0.49026772098600724 -0.5858058006943331
Ni 1.0203055683599014 7.602204432365751 10.855992208531601 0.3086138833245201 -0.8272205604645367 0.7636765171643042
Ni 4.9808991462805166 0.5402316040731826 10.314934243228542 -0.657606427576403 -0.9283001388163818 0.7466876959157914
Ni 7.949740806276013 7.289335142024203 4.499109594126258 0.313898271651911 -0.3918520626195703 1.2324693561059872
Ni 7.155422712512261 6.2948590564283755 7.250551740884834 1.2873788636596732 -0.526601522420035 -1.773814869604416
Ni 2.4647704206991503 5.391054932902411 2.5054826054368093 -0.08857373257535069 -1.025118370788712 -0.16214944907997234
Ni 2.6588514231119538 5.276293675443408 11.117580636884583 -0.7112566088016913 0.4557141513808539 0.7400259676248997
Ni 0.9971000330512255 3.520945715211488 3.662513146987407 0.8241691752327225 -0.00024734012411570304 0.027450382901468857
Ni 1.6206884345694827 1.103606789140122 2.612906832042228 -0.9210779100363298 0.9631342157764315 -1.1710559859955123
Ni 1.173314504352795 3.6906458725178855 8.242392034818 -0.33764215223607014 0.12009185778828994 -1.110551757962868
Ni 3.854515035478954 2.7124874601603137 6.805983976696837 0.758311653307965 -0.94190487408401 1.1727048344528448
Ni 4.095681317230287 7.126349739143598 5.783860778068352 0.09240519050629893 -0.38267450988536034 0.33504996602886167
Ni 0.5612769381954874 0.028314033010903635 13.611461385759922 -0.39568969119810565 0.6163679897519062 0.019766898214282087
P 0.19745386820442953 5.91074230392984 8.086255317014558 -0.6424955400768935 -1.0396739000053836 -0.7606323310213416
P 8.676428476562615 1.7953449370694097 7.845775999284533 -0.02804173662856461 1.1658477023216953 0.9718559119201458
P 2.0487107523026107 3.3079868686056826 10.141582425713382 -3.1084745206279236 2.3090830665605133 2.834130100009235
P 4.058572504779469 6.090801587127861 3.7566035294922187 0.36746000692845104 -0.15114589888061714 0.3931782376301616
P 6.984920793483381 4.2586667201108925 10.446348456100658 3.4944125317559043 -0.2258325890612304 -2.81354122011429
P 6.668170247530722 7.9926441693575025 10.114445524685943 -1.1008198753870848 -0.13924091991291504 0.3656293814776155
P 2.3943064984073175 8.665504473093788 5.660620890394095 0.5038377463609581 0.7479087128070862 -0.023595013711120657
P 7.309780065947512 4.049725793046165 1.5368979569199746 -0.1695655390383854 0.14500019099419542 -1.324752419212125
Ni 5.585691701963753 3.006515350023519 0.48488544571448133 -0.0948125143962109 0.4845734988147074 -1.0611559811385596
Ni 1.5492405319818758 1.3099237687494512 7.168075970241625 0.2585179951093935 0.8314507964958003 -2.2351967607940084
Ni 7.201797339414954 1.025835902059299 9.255260352109007 -0.1288006984161975 -1.1270515553901042 -1.0329113844705695
Ni 2.85275931788013 1.7648962134723958 9.266981561835985 1.9870829917370745 -2.2163590592622153 -1.6665065367340397
Ni 6.614980645986927 1.9917310044343508 2.3596403259314713 0.6842839368675893 -0.5499684792807497 1.0091916722561265
Ni 4.303073386422037 7.1488081783017785 10.508915025426035 0.16290663896097105 0.2790904199441065 -0.9758580911010033
Ni 8.218367427022379 7.170036642090241 0.3780725624224551 0.31987171562652655 0.05897519298262746 -0.6455808638704366
Ni 7.797478966433614 3.9910240796603 8.30105092683914 1.1211171921835403 0.45620523208465946 -0.8009742251734979
Ni 3.4844746677671896 8.718575632564944 12.544987097485148 0.25126311331919304 -0.2703494405266828 -0.42954803450844736
Ni 0.3311184804566949 5.022262762417693 10.191680689161288 -0.408533122819677 0.7028251902048863 0.4455176704638263
Ni 8.65320471939661 2.399326620101499 5.498256852848415 0.8303331379515894 0.18955586611738323 1.1977329810660662
Ni 3.730815957000002 2.9677574594844116 11.381288267244946 0.016923772338532143 -0.8461996726702007 0.44347055812681047
Ni 1.180712578428431 3.4669452410165444 12.285705556270036 -0.2293323746843728 0.6999578959594204 -0.27684096178829737
Ni 3.0118634651496254 8.692919257445498 7.961854697028433 0.8189336378653962 -0.48757911841025064 -0.47038152358504154
Ni 5.684098842469841 7.675729626688882 3.7019443351548262 -0.8730188497455739 0.9181039150096705 -0.4376300401856334
Ni 3.0820176158668624 8.621772015503822 3.512296710630206 1.0391172561709654 -1.2436513408647356 -0.20751373614738453
Ni 3.6357343054564843 4.266675226407055 9.131060172553505 -0.031236332306462333 0.8813625937245788 -1.0220515589379302
Ni 7.329696556008275 6.279962688061793 11.445242431005939 0.8376854645516024 -0.27553355583078354 -0.8477742162461722
Ni 8.025871726197211 8.51431772283381 2.378909028964183 -0.4111625900227242 1.5042838112139707 0.25592246646807537
Ni 4.823034085309403 0.5820006565359326 1.2388184370796322 -0.4181374786786605 -1.1527379044126147 0.6391147965301187
Ni 6.0078101379222355 5.817291508617281 0.20791412540422957 0.13957233511040482 -1.6896336096698061 0.28596837801086233
Ni 8.135111760885481 8.652466734174778 11.601952226222384 0.18713877203545837 1.2725687952300342 -0.08778029013977785
Ni -0.10867697929679851 5.028294197193642 5.658633796852351 0.902401159562433 0.2775737261892639 0.37618941638164893
Ni 7.333632477191372 6.090391595337955 2.4604509294192742 0.23198601025713597 -0.603576751524509 -0.12915371088024208
P 8.63355244626712 1.617116950532969 3.4414893063277185 0.4313676042156893 0.06113954762379793 -0.9351037920017766
P 1.9825016336971353 3.4218825878415506 1.5461929263435752 0.1061734479349849 -0.2127420744258594 -0.2183663625911723
P 5.0390086493031845 1.3681881575594164 8.30443837011663 -0.5691928747280004 0.35291064835936636 -1.1740736897759136
P 8.62310221108885 1.764978211830377 12.20140304442958 1.0105911237068144 -0.18087299363140463 0.014763017241787479
P 6.247637113159876 7.685359878287338 1.313367699784661 0.035602836805274166 1.1658456454391664 0.7420627955492705
P 1.9261960945500538 3.3769839313825183 6.114256761881945 -1.0256361909653948 -0.6249958406302333 -1.2147200025423661
P 7.087673846962472 4.081896482160784 5.944265054858282 -0.28332091308568624 0.288523026111916 0.5125201046263044
P 2.843921717075491 8.816436117351158 10.237405706850199 -0.9740719457348579 -0.3699447210235177 0.15341823985456157
