# total energy = -340866.33491648396 ev
CRYSTAL
PRIMVEC
9.28229195066280 0.00000000000000 0.00000000000000
0.00000000000000 9.28229195066280 0.00000000000000
0.00000000000000 0.00000000000000 13.58557253824254
PRIMCOORD
 96 1
Ni 5.908308886442555 1.745321540439227 2.376470064906518 -0.01981729183624329 2.4363580723608043 -0.6081916245887009
Ni 3.4432291327297118 7.243148904753026 12.7551271234037 0.6243003572251055 -0.973803779675136 -0.12005226279960615
Ni 2.5641125283406683 3.404614797510689 10.164331718135003 -1.3899643371330834 -1.4946722562661354 1.3045216939875468
Ni 3.1009817399747632 4.929992426167526 8.471311252645675 0.38335045290646236 0.1962538469628491 -0.49772880524974283
Ni 4.7375705105208095 3.628642917825861 10.07413661383459 1.3286000750929892 1.5753311048697836 0.5447789646600102
Ni 5.2322888336381785 -0.32729547660812136 13.038848736113106 -2.464272282272569 2.0970241342446077 1.0178745447421051
Ni 3.8663345721416094 3.051377170885711 3.0456676330027252 0.028094187133054838 -0.7831474814047222 0.7220760680146984
Ni 4.29319933986209 5.62622002891705 3.0697551810540142 -0.4542234257679403 1.418929356906866 1.7176190391391386
Ni 0.3405134605869407 1.5038984046912556 7.296145223382711 1.451978574052351 -1.1645729493743298 -0.5737475839782183
Ni 5.463009486571839 8.46215519969855 8.664008852368354 -0.6112972600972182 0.6194839096730685 -1.6110666105981801
Ni 4.350229742647108 8.200682312971471 10.625452784924185 -1.4741939338071257 2.2689556024120088 1.4563828737676336
Ni 0.5559990874641153 7.5716399405861985 1.1612880743144165 -1.769524469759178 0.39565420997447986 -2.142778457661587
Ni 2.662987504002454 5.784603779359883 10.789607336377996 0.30860925533882977 0.1352181719067671 0.35634924172727017
Ni 4.102364696167886 4.518489851905575 0.9590222878744851 -0.23887296718495635 0.57333106526609 -2.3859685641646586
Ni 1.2425554700538555 7.238554170153647 4.565879666094806 -0.542773247083891 -1.3295614105649942 -0.09865708495328171
Ni 8.492155567830252 8.41856555590323 5.934572203766762 0.7406366046257051 0.5981293552566925 -0.7087811506780052
Ni 4.595133737940063 5.835814184985688 6.437577757288828 0.6931673554001482 1.553128086410183 0.5470263659332901
Ni 2.017636144362417 6.621021839997123 6.761200230905083 0.4475961502594098 2.0169874926059905 -0.4484217314844987
Ni 7.064984589802565 6.305015487065293 3.315572553891574 -1.454138043597515 -1.6258370840391354 2.2203617526637047
Ni 1.4812867410870394 1.456113164857715 0.8211811781223299 -0.7240002816206048 -0.203347777695153 0.2843323850693361
Ni 8.826318084148717 2.0432459883213796 9.690195021335217 0.529161055617095 -2.376727248072049 -1.6665348188688138
Ni 5.435663853986444 1.5140717968547288 10.256278390958451 -0.38821935096298943 -2.9213856279937946 1.071983667881683
Ni 3.2883912178767027 9.343926539633902 7.179540141542595 1.0435686070740995 -0.6490647086539789 2.2307600651788935
Ni 9.091401782510461 8.732501957692309 8.631050217738023 -0.5627394057931728 0.03245889185965378 -0.18428304775421808
P 7.772193144129997 0.7118840448682557 4.624393379160593 -1.5715878357772675 -0.6842962781627634 0.8508446276413797
P 2.5309004871354603 1.2202594043817176 3.4708690139753093 0.37746262666711766 2.028278492138778 0.5517042310249336
P 7.188615438548277 0.44173871261349995 9.408484881328205 0.7901794485508392 -0.7496712040241477 0.3503979092398417
P 5.285002970587416 4.416885882360521 8.2025341302494 1.7753714154582585 1.1807914681157212 1.0249823594314798
P 4.68080001191515 5.0673703495428954 11.951935027409847 -0.11867209462262789 -0.09342823245417459 0.6103989166526649
P 1.489185971681123 2.898423561333053 8.368482020540787 -0.17945348757605867 0.0013449440636686516 -0.6192496821750754
P 1.5954032404097955 7.616881832378871 11.60346478601768 0.7867668233248644 -1.2955274609087366 -0.2872228192432537
P 6.705119406603936 6.683176068032357 5.596644789764441 -0.513256982792329 0.4312261935418186 -0.203615686644559
Ni 7.40562614602076 0.7986660503561613 6.977427512922642 -1.4433162703916629 0.1952652577973347 0.5859783217164554
Ni 1.5089758184808721 4.503656749097884 6.6114731460933225 -1.1663974041775782 -2.320511620112429 -0.05439143026668697
Ni 3.0007979611240634 3.6038684801576943 12.60694925314676 0.7263844655820652 0.019650427241075834 -0.2905266868055061
Ni 2.7428430631104472 2.1373313012492674 6.024780303276144 -1.0026654411018345 -0.04982592238319161 -1.7866490452546069
Ni 7.2016941881452965 9.081738916413585 12.017973894697285 -0.041952947393018074 1.3966798014800463 0.24400206088140558
Ni 8.869917010236158 6.253851492900088 5.952532510789667 0.18710071970867134 -2.49020699986046 0.4718573367996196
Ni 1.8226430337984723 5.778004069662593 13.461903122918343 0.8973229737085772 1.332970693356859 1.767038213002215
Ni 2.4392192878666417 0.019926296493912518 12.526903407050309 -0.24072981788803702 1.8133142132506188 0.7055618724097591
Ni 2.1416475670850477 0.8227842299714466 9.491316343289856 -0.8608117661564209 -0.3060625776575761 0.16579141670793382
Ni 1.5476736943289744 3.6356696129606685 4.314872563732978 -0.3752064836430893 -0.36723966338752884 0.21243739870124706
Ni 0.0525377733989588 9.151328260436905 11.204809832278963 1.1358904938379728 0.009037684722236048 -1.3072380644774455
Ni 5.036497445951917 8.420839717472619 5.847624045249909 1.3986158421604946 -0.5841281558815941 0.40443324171869055
Ni 7.53435297314033 0.409917158767862 1.0909784244225873 0.7755714688296772 -1.317892201757182 -0.8031108119005265
Ni 2.2202592990489665 4.463185955454869 2.131916012026484 -1.9667823325065095 -0.83279368367694 -0.7818989537096018
Ni 0.945113701361941 4.559935286221185 12.0741373313983 -2.184634731575741 -1.7706205310368344 -3.1309194798950015
Ni 6.967316312116373 5.08362364304494 11.534341413058781 0.5242556478956778 -0.9461348530049576 0.48254438419982054
Ni 1.9933258213002485 7.513774131510384 8.959957100258167 -2.0400939967164673 1.505198609718756 2.201734367370505
Ni 3.5090405838602097 2.268109514927347 8.149577725475833 1.779421674268232 0.04287648764855197 1.7591930059261833
Ni 4.644162804917679 3.4709924684605045 6.492165060787874 0.41560108541005203 -0.6967740989148 -1.82329729260526
Ni 5.013124634393865 6.228715045839243 10.021316658755184 0.541313631819229 -2.4806548373956505 -1.3268136726165278
Ni 0.785460133357098 1.0563805370038701 4.900819110263712 0.1558237639722607 0.011893666113792419 0.11021445077357793
Ni 2.656721956821483 6.886866686312702 1.8066227258286378 1.6143293405098518 0.9004424931741654 0.10184576709390847
Ni 6.879654345335495 4.62434511124157 6.419400244630316 -0.7819336636022791 1.3769501842616028 2.478121015230203
Ni 8.672361987047104 7.979058306315368 3.2440719859207543 -1.2625965145086708 0.2799162582795115 0.31269705225495825
P 0.08530983395768034 2.934346031837288 1.6076215215272953 -0.0943394314145343 0.6513892430220976 -0.4705630434682283
P 1.4163199785394576 8.903556036878884 6.425582251182208 -2.465210734926438 -0.5820800151033136 1.1919487702841214
P 4.730005442443045 7.905988102747063 3.734388646114839 -2.2179860533426767 -1.4938538741298981 0.7371157359566402
P 8.657454625902453 4.00135479331851 5.520470587711223 2.2702516955156127 -0.0566966813610959 0.015698127461547157
P -0.01561281534576832 0.08783090449746077 13.317203327518751 0.08206627047413609 -0.3721183316360688 0.06055205055144411
P 3.5291924400526375 1.2418871450212183 11.126000387492887 -0.4392863448421338 1.0024129587713961 -0.24090670978553347
P 7.086185345004547 7.220936379709968 1.5298581910631404 0.6369887513260514 1.3223283831516646 -2.6841928767247385
P 3.257425491364525 8.99780843106493 1.0430103234342833 -0.05208180829690385 -0.7682034585003802 -0.4196711417143676
Ni 8.27885777720575 7.043505365836983 12.866949968343615 0.34637747522653894 -0.08637646781371575 0.2490684196607194
Ni 5.119453290627977 1.4006421871488495 4.591271376188949 -0.20535246683000763 -0.2814370657994121 0.6339257961300115
Ni 1.179909280536263 2.113847102185775 11.70302015369186 0.1269029671728524 -0.3746832641497676 0.1424224029646902
Ni 7.623964221266398 5.090473974629469 9.330679780549511 -1.0921544864026032 0.43825096159908394 -0.8774277774465469
Ni 6.485129083360947 5.198389902816094 0.44551196436026264 0.45175208140931233 0.5454741909548219 -0.031598343631571386
Ni 5.442077917841335 2.741877704729972 12.214462382521756 -0.1930782774483449 1.3409254294275614 0.2898630850795782
Ni 8.862556152585032 1.194501043748836 2.944482294832282 0.9571720846557259 0.22970698441497214 -2.713517336720469
Ni 5.979745406597746 7.033536184100148 12.383671142034881 -0.8518918379589716 -1.52377328739715 -0.39961268040159564
Ni 8.924626839991186 4.8832003915908215 0.3868840791013998 -0.2210757911025354 -0.652469877680786 0.7313621213023146
Ni 8.337605404032962 3.3781417003845706 7.679883533684657 1.3229120235692766 0.17754315792722328 -0.19386477790538223
Ni 0.6408754383797938 4.603385695634706 9.355663998019587 0.0759951245793917 -0.5649189299429949 -0.203159830054063
Ni 6.395787021706356 2.428015561277853 8.535937355072454 -0.04184290417771503 0.973684223378136 -1.621005981199079
Ni 6.952093353039643 7.544851245528002 10.290690632534771 1.434821345546774 0.06034481963664446 -0.456540246826575
Ni 1.4771189919251784 8.743928459291975 2.863037607313352 1.6207121041077444 1.8972303924493001 -0.6975611135924696
Ni 0.24997212679045236 6.6487666111436745 10.383860711459631 -1.8191156504237445 -0.0013374878645009223 1.2078811252436619
Ni 5.916885724361395 4.248616490809934 4.534484169457474 -1.8575060772764846 0.4235254824634513 -2.6524600643978316
Ni 4.816915543562205 7.15303641285248 1.027856981548453 1.5853892604367341 0.31870392057067043 0.9770634242630142
Ni 2.828342255827375 8.853181037543875 4.908698848044343 2.5247811382909036 0.6107521862270257 -1.8602345319512412
Ni 6.284269564177189 8.941687692907669 2.985932370293951 1.7688061035359148 -0.7554083636182409 0.4956264141947593
Ni 8.681709255211901 4.585415178090468 2.8286383609460013 0.3833525097889914 -0.23547345458510416 0.5835892526589885
Ni 7.621652930528529 2.8144466645237984 4.117392727110097 -0.2587360246574705 -0.42824397098504313 -0.2509633226905871
Ni 3.8630486407311446 1.8340788176902596 0.6846980677073244 0.6499375981772355 -0.008042924909134535 0.08228275736031636
Ni 7.219766810902854 7.0751951111345175 7.801854708599321 0.33402178187466347 -0.2735885162892708 -0.5462216106438077
Ni 8.323310674168228 2.0563525847947592 12.870835535825028 -0.5938870350405707 0.6026665810054136 0.5030522743451852
P 5.702863914951537 4.318512150473214 2.2364030615039967 1.8317724199558065 -1.815722308471479 1.4152737624321496
P 6.0266581109720105 1.5710557881791472 0.2113884231354255 0.5717416092917831 -0.04261500645704918 0.2066092220552442
P 3.697545372232304 7.007675718253948 8.164033038994242 3.9202478932994547 0.7505248102736946 -0.6121174420056684
P 0.0706150373025758 6.447015991916401 8.224896100195592 -0.1612161386324256 0.07886833236212869 -0.9493700721128037
P 8.582212365978078 3.443386931695751 11.048643621423587 -0.6462791754890418 2.5787689053612683 2.1588475953093083
P 0.9536905392807815 6.060622017838936 2.6086201908266515 -1.6434769086080858 0.41045759353589956 1.5746055395576688
P 5.259588054762973 1.3843517644783243 6.785681348142259 -0.7290627837451766 -1.0766260517497008 0.3151470564573476
P 3.3498771208793006 4.7420445753226295 5.113921972753693 -0.9287683367020519 -0.9550797209030714 -1.0956450160543647
