# total energy = -340862.6210264043 ev
CRYSTAL
PRIMVEC
9.35197042709809 0.00000000000000 0.00000000000000
0.00000000000000 9.35197042709809 0.00000000000000
0.00000000000000 0.00000000000000 13.68755403171457
PRIMCOORD
 96 1
Ni 6.932774693289227 1.9837586801461418 5.250983658059571 -0.06743335105230969 0.13942192557546956 -0.34376112064961445
Ni 2.0164251129996433 8.69156237179671 5.10021493092215 0.8637963027060415 0.07451854003386521 0.8148381276397836
Ni 7.020094041572406 0.22815815317500962 6.945065052881575 0.32309047967414034 -0.01891791995042548 0.2509386401002388
Ni 7.149197993917837 4.043371192778614 11.134687971060352 0.07271593960748766 -0.5868599529904602 0.5798547253172207
Ni 6.291697117535566 4.3250993032028155 8.967592326613229 -1.3336317239796258 1.5374530988770878 0.43062069874733583
Ni 8.495704054232759 3.0630976480594496 9.191000613986263 -0.21256261142520164 0.4272944625875802 0.5599057929991196
Ni 0.4608258265109006 3.7864351560717417 11.949741188674013 -0.308381712709056 -0.49320006414145384 -0.7575894304299597
Ni 2.5795446629111085 0.19198286100097156 8.13146070275608 0.11818101391882227 0.007981989764212058 -2.0276791679918817
Ni 7.581810795913294 4.60760362717607 5.759189372565231 -0.48890349364862895 0.16516663863974135 0.0022975377849250756
Ni 0.888684086719149 5.9212655671985495 10.72020209342789 -1.3104447443402012 0.3971397933810709 1.2528782587796423
Ni 5.6586435324456055 5.865574583046645 7.008274086094724 -3.2350499292580284 -2.9267157819574563 -0.20701751323725637
Ni 0.9696871141465437 1.0943956403708335 11.62126725385295 -0.2866111538011838 2.6124159039917525 1.75300024685191
Ni 8.060603628092144 2.9277372274692453 13.312939581081752 -1.2520213100959856 0.11172343121893663 -1.0294257399148141
Ni 0.2984260536993026 5.689037436474773 7.05945180929756 0.10888261933603183 0.36460582530910757 -0.38334093982476564
Ni 3.780552766645789 7.413297640005122 12.803899670810122 0.39250563704316915 0.8242128839864644 0.3369926915775293
Ni 8.990675795325595 6.900052148612902 4.664212039631131 0.39799159985840493 -0.4991560246145726 0.10032161713989819
Ni 2.939922844992324 4.850511708177172 5.780637181642306 0.2199846149208857 -0.2047999367606473 -0.27782595140938604
Ni 8.05870517808663 8.035315899939876 8.649713239138212 0.026356378506341704 -0.8770649947904895 -0.4084197371702643
Ni -0.024198223592452182 7.980691040421611 1.6331308624774832 -0.4171134082895203 -0.06270174990459525 -0.45270544646151706
Ni 3.72750839013704 2.9275127801779535 1.9341474119971178 0.5822113984748554 -1.233798616440372 0.6278394807266156
Ni 5.31394860484344 0.07944685954110137 5.165983598453079 -1.2326914994191223 1.5481216343345272 -0.5089285306203042
Ni 2.699418220402143 4.308312516208245 10.758841629820907 0.5313536923930398 0.369697380899402 -0.1320534010255403
Ni 5.520795487710245 2.711566430043339 13.118398020960047 -0.24078869615043047 1.0481258874274788 0.16726645859156353
Ni 5.939389685970403 0.847113642780672 11.854256634973027 0.5711080894728423 -1.1470051156938956 -0.4017230418763791
P 4.6733666835247165 3.7713317237618638 7.055961653917964 -0.363413090552587 0.6187945969155279 -0.4344812101440066
P 4.581867004441218 4.666418169465126 1.0078394128780483 -0.8763132042261296 0.1808933053463788 -1.2361984841311162
P 8.247091271244642 5.820498085378772 1.141517413980607 0.458403782397875 -0.096780179645543 0.3570046159230819
P 7.517347663460049 6.3295445420297325 7.299134395683382 3.138817394585839 0.7708254695042596 0.5744284120953269
P 8.23299785174558 6.20498564733297 11.972106426054243 2.3768324061913453 -0.7595820353799563 -2.7897585158723954
P 8.250598260171085 1.924252092042268 11.428026552823695 -0.3060736334011696 -0.8478698612837721 -1.4686457502953867
P 4.877903629685305 3.826050102984835 10.835218237456541 1.440435863520074 0.41754458228966806 -0.31262429003549386
P 3.053212615272117 2.08328234989334 11.092311387267316 0.1544091430129212 0.7583473916419068 0.9198283538999449
Ni 3.4302186008499045 8.38508894750753 1.2113158455872803 -0.6965115892820328 1.6285701666995824 0.7022322938158938
Ni 8.082150568056205 8.479001434972421 11.08869778587751 -0.5178489730383855 -0.3455899463282371 0.5191916031092091
Ni 8.546934148470228 2.5678734037639086 6.882280599127786 -3.2191121749818494 -0.3288554071823756 -0.6145720741937479
Ni 8.653181884985724 4.443850624237388 2.762148432727203 0.6684809083970615 1.5494331540570994 -0.13661582358524213
Ni 7.038087232757673 8.20345497702923 3.1032699724125847 1.3440032970219369 -0.3443193071459296 2.383644544017172
Ni 7.71829345295996 7.429037006306995 13.575945981821032 -1.539977665071154 1.5979357296431769 0.7842137178857075
Ni 6.563830106257021 3.165903859441798 1.6672122484631735 -0.1826419126063693 -2.715113734673311 -1.1971778798935448
Ni 6.7404140126812475 5.2290514169121245 13.157777298217283 0.23548759565249122 -2.0710220537538913 3.09974485406441
Ni 6.383496059674122 7.576498876686043 5.676885486045388 3.172369519509672 -0.8612030880575684 -0.2712562686116683
Ni 1.1819113800338934 8.356294230428821 11.710962002635641 -0.3608769543942946 -1.1977769469301243 0.056878458354598815
Ni 5.427808845321935 1.5571685471336947 3.0893355364115203 -0.14302481243537948 -1.3233552817542822 -0.1526841899020145
Ni 6.265913734948362 2.4914303971379357 7.85803807730674 -0.0008790601708436474 -1.4475521628498813 -2.2316129000974922
Ni 4.218028593285913 7.144353673214111 5.218886760207724 -2.408176724830582 0.030605383590682773 0.27126475325210053
Ni 3.306660366993488 5.239441456104864 8.235089887539832 -2.094439147126251 -1.0179647904630662 -0.97911850701983
Ni 4.82474702953091 7.875930267210926 7.701329913723496 -0.8620371539230895 1.301897111880506 -1.2886055369779228
Ni 3.1270464221368166 0.19687113596590863 10.216212247210336 0.7660617295670291 -0.866618859756501 1.4076782094730789
Ni 0.87615618707685 8.340405232599421 7.047940468845405 -1.5535967985164858 -0.387514611586481 0.9981151027269907
Ni 1.5531659037723153 3.587640319780049 2.578132515370061 0.044465686512542776 -0.6822455662813218 1.0485804584663942
Ni 0.1986442695671179 0.24626730879411085 9.597562567039061 0.8865870753483118 1.0513904171113635 -1.2151308648275396
Ni 8.503260446372932 2.1498683796433924 3.4098705835001626 0.5946606799818016 -0.9460705754259257 1.0865895907203158
Ni 6.163715401646597 5.199948084807888 2.212058983272303 1.7827939331745748 2.9356531936564023 0.8804495949920064
Ni 3.1629766926845275 3.374303169406708 13.395297709030324 -1.08071513421741 -0.08217734213070363 -1.143440795381405
Ni 0.6662175427724936 6.883087674179392 13.40879353761632 0.9186135076562372 -1.3705183125933298 -0.22540295772297955
Ni 1.433498089631632 1.9124592572789514 0.5651601498681309 -0.5924649578820635 -0.9144570622857026 -0.2382548739849832
P 0.7198894364998143 1.4567564401917976 7.666029030788451 1.1962782508974108 -2.7381006824867877 1.5374605550762555
P 1.5365006923938613 9.015131198105987 0.2337749466395997 -0.49716059145109864 0.04675293988482271 -0.33533227315597086
P 6.927696573323739 3.786930810506679 3.6960642598240345 -1.5206918202583488 -1.1600190114550604 3.0860853542994464
P 8.250448628643555 0.12427646518855211 4.932241383710125 -2.0123877890504507 0.14009838281720388 1.5913637328526142
P 4.902733111284516 0.6037052313593969 7.701261644339061 -0.44649880343017295 1.3530479237227087 -0.12629207306173088
P 1.3225276080285255 5.702700665332192 3.4045193859969354 -0.6385470969521068 -0.9327957126938904 0.8108241213843843
P 5.126993363167417 8.177718354294377 11.061404995256366 -4.445083582068318 3.8641009137942417 -1.87887528698088
P 2.622367335695587 3.087702682367369 4.385998399709749 0.21327275011834884 -0.3142659394039749 0.562975947284011
Ni 4.9302466084087655 3.194801448195683 4.759737742002185 -0.8841908072019933 0.992819144435374 0.5467754262647486
Ni 5.457099216835582 7.364480354149045 1.4463635954079168 0.28619977729537804 -0.35684572174771445 -0.21536048588531298
Ni 4.437285540967089 5.2377019895973485 12.521196149865844 -0.4582245765075334 -0.5841343265291811 -0.41032543883340944
Ni 7.274196431226713 0.9826302412777336 9.358194206861047 0.08325077770054048 -0.6021042807440404 1.1022069855425987
Ni 3.194109402380865 1.3991576540639086 5.7747108379551415 0.8433712020824701 0.4582865400937204 0.2436999562599545
Ni 4.790808728693418 6.388115933086555 9.260916880420865 1.4265863592314916 0.07060274991922678 3.313982024978557
Ni 6.262247762523922 6.852628306356931 11.711810226357315 0.6675961917992631 -2.734980391690251 0.14425020020204835
Ni 8.145042569470405 5.592478341366727 9.478453065535467 0.7143905264449826 0.675569696923043 -0.4396501559394557
Ni 2.8203111426744636 7.1757669420245636 10.757733421320152 1.9604139670863205 -0.5608020795611438 -1.994304449186178
Ni 8.462111776302676 0.30844762525550423 13.286276178073273 0.8350994489919812 1.095789769162345 0.19297234799809992
Ni 0.2609311984918751 8.996558184751548 3.5436121780019207 -0.41495573851656925 1.3196773186820627 0.2677778231447646
Ni 1.3761331027655057 2.4798433057249705 9.803286278252356 -0.019435483016792335 0.4222191049472019 -1.4543121072815341
Ni 0.8363373672075 1.6151788199622865 5.337310762275829 -0.10528667445465738 -1.042695974661159 -0.5595671787127782
Ni 5.026730887753048 1.8758275889459521 9.727717680865378 0.8210074896752892 -0.7773997802876675 2.215643264142113
Ni 0.4121787465173865 4.039116046214531 0.6884116390931148 -0.02048603576849375 1.94314540981386 -0.9646707070256161
Ni 2.049259881321614 7.640503762586233 3.1203101978069068 0.9833202038060032 -0.6910433670786099 -1.1694637018077279
Ni 1.1975104667787089 3.3528871570292336 7.087798566990731 3.0936659948601815 2.4291808378860744 0.6773383587876914
Ni 2.4889895328451317 5.609732726884823 1.454850508609907 -0.4843832371807723 0.4546391731491203 -1.9299523081623533
Ni 0.3041906082973267 3.8963769209230916 4.900897319481155 1.061796700046352 1.1079467162398533 -0.3724677445556876
Ni 6.835074657783778 0.1120057447341921 1.4124458689054604 -0.42021595847424403 1.8800945040999621 -2.194148070382815
Ni 3.3737326992080066 0.5946038936974938 12.735297356226626 -0.056776899779728024 0.30785360811972784 0.4737923490388034
Ni 3.394428609859252 2.484014284554819 8.466586694172817 -0.9152062817469012 1.0689297115467074 -2.1728683350684324
Ni 2.039935966762513 0.9822655144293836 2.68542954297235 -1.5184773291055333 1.1375306005445571 -1.0092256108178554
Ni 3.940686557012382 5.235205013481721 3.2250756470028272 -0.009118417361500424 0.36287110200618794 1.0478788044136793
P 4.823942760070445 0.9362257638030486 0.6691091720419761 0.7087574965289213 0.10896540885782524 0.7953717913850561
P 2.5235731196450883 6.965375662349435 6.711021704689472 0.4355687867812305 -0.4212153462730358 -0.23754653506404896
P 3.520661507270235 0.2326377470303853 3.743874338460438 2.7210776655662294 -1.0514742350744215 1.653225246244101
P 1.9214932607534667 5.191119824683724 12.80383046622864 0.7572366750762314 0.0028657515835692577 -0.029827881994709923
P 8.353395119582963 1.9437228945618759 1.4026047903793395 1.3371381944709875 -1.6303964212750437 -1.2313918067710923
P 0.9873716903062837 4.707248872539385 8.945569371352217 0.1728436955690249 -1.3165153760143133 0.05488482496333773
P 5.645943556546649 6.7849668000027705 3.746981998247789 -0.36620993657143386 -0.563493510350378 -0.9949770713186413
P 1.026303943375029 7.656448872238458 9.285828659360218 -0.09239850563807957 0.42233223348629845 0.3015037546423001
