# total energy = -381162.83064385713 ev
CRYSTAL
PRIMVEC
9.27297629367946 0.00000000000000 0.00000000000000

0.00000000000000 9.27297629367946 0.00000000000000

0.00000000000000 0.00000000000000 13.57193813261576

PRIMCOORD
 96 1
Ni 4.671428817583914 6.361762609015885 0.654896545828258 0.04247796665855265 -0.6338926288992308 0.5095304258703612
Ni 2.141269364890961 4.252976480749713 12.06062145700925 -0.9070306879146444 -0.12692276466719432 1.33153678912381
Ni 0.7315599516152339 9.188824222785765 6.486015857418355 0.986706603779733 -0.5434856997698834 -0.390413787511147
Ni 6.335176985435163 2.6262460350241144 2.615991050330037 0.8406509749378297 -0.13329601518338977 0.638049845600714
Ni 6.8578297590243595 5.919803276793777 9.14003538431084 1.277141245092065 0.05165809049592394 0.4080901217449875
Ni 6.589636733143077 1.6447478390347516 6.593153045825954 -0.1837487725173029 1.323282519534818 -0.5121215836363051
Ni 3.766302855919917 6.549623839612971 6.222435210040405 0.7500273018119857 0.5560684215309004 -0.8318562594643351
Ni 5.727036641636453 0.11753961342777806 1.523789279177182 -3.9599994621657797 3.629743317981136 0.8504044547801678
Ni 8.232372336280719 1.0535306773200386 9.503383058386603 0.045653279062740734 1.5261631277855652 -1.4652698918446185
Ni 1.2684689992515181 5.938683056915978 6.462060977266253 -1.574110087978489 -1.6197571963936426 -0.18700970265676178
Ni 2.667037858578909 4.049685017282617 5.1529800502037375 0.33248040552947256 1.2805381865887557 0.31834113791461305
Ni 2.1273135352819663 7.46423605622049 2.617090825341085 -1.6724370432858617 -0.9950822294379379 0.8250415505353468
Ni 6.236623791359157 0.7177413620582084 3.815899370646632 -0.5884504374060316 0.027478407925926873 1.94399747340151
Ni 2.9380591422879276 5.358009269464007 8.033977004397375 0.4685735238420252 -0.19143045743227677 1.1238590165947355
Ni 9.129467900309239 1.9890070910174158 6.837556250536555 -1.797346377067453 0.5531108815644733 1.213234162025459
Ni 4.239799581165407 3.4711440144220536 11.423229508890559 -1.471365463219395 -1.5842955131519232 -0.6159524994810425
Ni 1.3683667749177604 1.852879796226695 5.029027246239361 1.4472307749547204 -1.4235429444194774 -0.04942354473845036
Ni 5.223773661876099 8.872634270621324 5.995837974775111 2.3144929247221753 -0.30299010937983945 0.3580528546819382
Ni 7.4691136418512745 0.7906186115466114 11.770467240920006 -1.819936603663143 -0.8579591271989739 0.5238609835604203
Ni 2.452294269153602 0.7310721930521554 13.396657072116565 1.3831393437914503 -0.04654082387401662 2.488946645090797
Ni 8.55313386585196 6.176738909223021 11.462370742631132 -0.07038549170209814 1.545969106767899 -2.5507371960350333
Ni 0.5585141555472448 1.43194230169468 1.0728620513970288 -0.8582843717488767 -2.0070751185882854 1.1448237917718607
Ni 1.909138944557438 2.9745297588010007 3.0203939004927514 -1.5440294665430248 1.0186191362176134 -0.9236053044438739
Ni 8.91662527106323 4.284745698185204 13.320232909122884 -1.1796635251588652 -1.7524173777652463 -1.6549016055052594
P 0.6064090790890754 6.0502276910466035 8.630789480122763 1.120111376626845 2.0265702511984194 -0.4900898006472463
Ni 8.84371185696654 7.1255405901284545 1.7630218722000928 0.3899813279594187 1.6888077713344012 1.6016342615406869
P 7.090331098417258 8.682918444727363 0.2790442629633058 2.4012943958884514 0.49652758585278994 -3.7885737299902043
Ni 0.3474723383345024 0.3114690798362427 12.545818823982732 -0.476099142795109 -0.34952707659911414 0.12983402477671832
P 1.2135637054874948 8.49298934037426 0.8422282894680853 -0.19115817760749657 -0.5249794134355799 0.8734019441166055
P 2.8020060313090824 1.46747634758283 6.967657037910078 -0.9035571275437471 -0.5745225144710299 0.740386436288112
P 7.022619824128304 8.030499638215732 3.6383107433989443 0.4242230227511081 -0.02317463834425041 0.8370979674792487
Ni 6.083656771272798 3.438549502079452 4.878596385221482 -0.6077684210083533 0.4258168496007892 0.4514263226387774
Ni 5.704939138674173 5.133899973789474 2.9211563607521973 -0.45318161476698726 0.2766332166528655 0.5946483386866275
Ni 3.2722664877615224 3.1812336776143493 9.146902950695173 -0.31964802965149464 -0.9524165722486113 0.3767283196042544
Ni 9.150499010975818 8.227142377543528 8.50212693140197 1.0265016242894838 -0.04187452874659885 1.8001864176194096
Ni 6.155392517355975 3.6438161095377217 12.47538036730972 0.09454563388806943 -1.4136614236397074 4.313807425528435
Ni 2.40291566937427 6.428490947797495 0.5191494430733967 -0.149598094777523 -0.29264270470724435 -0.8326139635659661
Ni 2.5820324831465835 0.8974266092890146 2.546231375535683 -1.281018211548968 -0.3328308468903558 -0.9354231230144083
Ni 5.219452454834378 1.4917437270424567 8.54831284537773 0.1967261586135773 0.607369900018354 -0.11515533971862102
Ni 0.19505984224191075 6.50420480079247 13.288828119663231 1.4383342437960391 1.3687679055611266 0.6788941333105856
Ni 0.4798450049466972 9.241606004934866 3.534159453419316 -0.07875186138892244 0.06872918704559777 0.014440343795046098
Ni 8.197357577075694 5.013499647116265 5.155884346438645 -1.9339768559407142 -0.5864148950332416 0.5221699690112426
Ni 6.456884801792671 5.39103033872489 11.494848415470031 -1.0148041333468976 2.7558672624415896 -2.4830639610577756
Ni 3.1186318133682893 9.003707793228058 5.605346443934267 -0.936302183185252 1.9845643390802792 0.22844817230720654
Ni 6.474382908418699 7.362604233951669 1.718669225675296 -0.17725082349778506 -2.5763099022978144 1.9671389445149798
Ni 3.1476933216703413 4.849015590236305 2.5389975265802174 0.33227060351151166 0.8481333993578037 -0.032222350368815475
Ni 8.249824078024323 4.069686827559428 10.897343248401258 0.8948757977196652 -0.4966648827616027 0.15235765980053115
Ni 1.6889335719828296 3.121784625372979 0.4893358963784617 1.3400293999758535 1.1343879411505173 0.17981061380516128
Ni 6.240805903753612 6.5838225768873695 5.217718408231798 -0.23866830737331796 0.15900627546530036 -0.005004652303442993
Ni 5.220453936294691 7.2918421503993525 10.50145020875826 1.2401561832272834 0.6483627974909479 -2.66920411662539
Ni 8.087435713829835 0.17336478645905173 5.436565289751445 -1.320275614387694 -1.316402504585533 -0.7271884495405992
Ni 3.2504008092113508 8.59908146433207 11.704303626406293 0.4327829965059772 0.04787188398061433 -0.8947716680416332
Ni 5.416160104997563 4.951593256106533 7.065876404832647 1.0253091466432793 0.10153594916297352 0.33500934259891335
Ni 1.7979188646037658 7.479888840526126 4.897950014442034 -0.6436080564147819 -0.4634099773632148 -0.563777360139384
Ni 1.3422262542082888 1.0955743527002244 8.63868820149216 0.9099681732764135 -0.7049489214161084 -0.7662964712856545
Ni 6.897360457777277 5.948373317342156 -0.0008290040977037087 0.9836932708747058 0.03370047757623873 -0.5733932859625931
P 0.4308734888350299 3.6968482620518994 5.318815179757471 0.9897194224641277 0.010316294324343523 1.0306323586284056
Ni 3.6906910056662703 4.327049016906953 0.05855050082003341 1.4659188382825268 0.21381139623063825 1.1038648328609957
P 4.408688301875448 5.325266389497655 4.517243328387508 -0.7582298922274362 -0.9872164535366158 1.4338764651350016
Ni 8.777521350821024 3.0227399635433003 2.2387320569324043 -0.5729860232218454 -0.2820142784591208 0.3123800352351717
P 6.673269708055714 3.6307412126947436 8.468454899191883 -0.7957685126028424 -0.3054138883299837 -0.5648662223281885
P 7.527793037044441 8.546142041582735 10.117622238819092 -1.0642333345123025 -2.21167065264761 0.4734861306522943
P 2.0331279131301034 6.6828023278816575 11.79100132004702 -1.2849049481978838 -0.8010449305104334 1.5678458522363319
Ni 1.585790254547054 3.4823086781092485 7.394684096099386 0.3375431647643606 -0.16078702151480695 -0.15483877435117202
Ni 4.105758706083672 2.1874024229007585 0.9824208571495588 -0.23824356113107356 0.23798645081494496 1.5522695950646297
Ni 2.1981127107402196 7.7725717973026605 7.521921388334531 0.031959840736048184 0.1962024248996234 0.4738437711020291
Ni 6.905900869119393 2.0070801221854757 0.32654044851630804 0.9768582502307432 -0.057778601571365 0.24136847991330046
Ni 0.540226918622396 4.981378056574367 1.6113827423462985 3.097705712147194 0.33089326354801074 1.0961062719614993
Ni 3.68732491520244 8.425213155249915 1.3984659292884143 0.5254478684315661 0.42454029688121075 -1.350841660100009
Ni 0.34130859086533405 2.8263105026746462 9.676561458018321 1.0126811734666237 0.2382060230249188 -0.10466421037931008
Ni 7.651179262145621 5.091967574127101 1.9818965726491922 0.2693891334959425 -0.6978470202640046 0.006936836329149343
Ni 1.2139346245468703 8.77194829195391 10.575105460973703 -2.152431921590951 2.768460782835884 0.36451506536751416
Ni 8.332956312206804 2.2576452197699486 4.456128849569543 -1.1308485605386913 0.32010671445546807 -0.5518243015425658
Ni 2.31100192646108 7.220041493480787 9.801192116563705 1.770009636925713 -3.3561486310442774 -1.974840684034612
Ni 5.3903441384650455 0.28727124770024914 10.546536347722972 0.475663083698955 0.5058514343568772 0.04320301775003527
Ni 4.096272451140149 6.003380613847508 11.776208140661486 -1.6268596117663787 -1.1975969697088344 1.6990189075394482
Ni 4.933854052091911 1.140140277684162 12.775347247114738 -0.4003595858699492 0.3246421404319764 -1.1970596091481256
Ni 4.835124671462701 4.90883556153705 9.74002385448213 -0.21170180608680317 -0.14354366105332697 -1.0621908501609771
Ni 4.26530953947394 2.9445873177329327 6.784883889509972 0.2338166357079715 -0.12450258526147592 -0.3491475817725084
Ni 1.5215007085808367 4.787628485909698 10.135632213747058 -0.4969484754402925 1.1327424351272943 -2.280601671291369
Ni 5.245880437814866 8.108318456872663 12.662455249500931 1.5222244548527912 -0.557444990163453 1.2243714095892009
Ni 3.470624727738928 9.112563264178213 9.059336379157862 0.2603141677778678 0.8001861820545638 -0.07141907517293507
Ni 8.608354440816452 4.577827392950566 7.970120506432978 -0.4315560660774116 -1.4481579147546801 -0.7892109139899828
Ni 6.982402925115541 8.911988782821041 7.805655922803636 -0.7672367237117367 0.7047877132478959 0.7431668272467266
Ni 0.9154096925851757 5.366336402346981 3.9279632914603826 0.6656305834324602 0.0010716357976239608 -0.6215384782092522
Ni 6.4533054328697 2.8579498984393554 10.477821737378408 -1.0875838363127852 -1.8217844555051592 -2.035428472919998
Ni 3.778394817255551 2.242966097995173 4.234241359060669 1.4716989352994139 -0.3966309720654524 0.41184136125730364
Ni 7.8606558009278 0.551014172166677 2.016572868212537 1.6684801155206426 -0.1125495266646578 0.9253541688141805
P 5.882627914067891 7.052905365326294 7.696808797532317 -0.9293558337744059 0.6349377823342935 -1.8917364592142647
Ni 8.670770845532823 7.0938084645989 4.517650412055173 0.5705427038876755 1.356434323696438 -0.34385290903247234
P 5.571491734087438 3.8985540465401667 1.2591051475975894 -0.6688012678509578 0.6762762360717643 -2.8102252683671796
Ni 8.127124053182987 7.128517215579941 6.854643564304326 -0.338889651489926 -1.656696235511837 -0.6683024738376684
P 4.120771655011885 0.19431522223021494 3.690278358212715 0.8409713343917259 -1.3880673772206868 0.27157277141082264
P 8.79804244778096 2.337587550041802 12.235074890907567 0.3000343691856252 1.1073101110971189 0.25888000643450254
P 2.6413053488347504 1.614768306060746 11.614484648880927 0.9171703474518076 1.2525190756680107 -2.169805636982708
Ni 4.519296365381151 7.176439958051224 3.336891715476474 -0.2337626425415845 1.1527975540059565 0.34074084576605185
