# total energy = -340890.2265002252 ev
CRYSTAL
PRIMVEC
9.06298260154486 0.00000000000000 0.00000000000000

0.00000000000000 9.06298260154486 0.00000000000000

0.00000000000000 0.00000000000000 13.26459113768074

PRIMCOORD
 96 1
Ni 6.271520493142517 2.4444042161798567 11.430230890334432 1.7825548205805752 -0.26790097898619025 0.022284779540129362
Ni 4.603732315821254 0.5789415135671103 5.91095426334044 0.041770913289199026 -1.1025378865194562 0.11691140317777929
Ni 2.71667433835593 1.5385047310513174 4.565102258942109 -0.7427713915805207 0.2793125632572416 0.7026428989907512
Ni 3.4947676433723935 4.482714309649325 4.632976747957523 -1.3717143897839603 -0.10292100243595823 0.7711239745812848
Ni 3.7425314606964566 2.529804700876786 2.5671360323545658 -0.18892774561508105 0.9952362385172987 -0.022722381298180223
Ni 5.157915573621087 4.721940797398464 2.3342500072069305 0.20751784991244263 -0.7463387972168049 0.19039893084396886
Ni 5.319164159392895 4.6862145201327 11.15532253393409 -0.17556803647872346 0.13003817036772444 0.6573467461571132
Ni 6.0094099744202545 7.967367664480727 12.219832370610172 -0.7279716075635269 0.47305675642435946 -0.3241361473298353
Ni 2.105602739004298 6.337879651473295 0.15518091894547018 -0.8095395982450058 1.2101236414209353 -0.6161687292569066
Ni 2.7735989318379857 1.874387927841393 0.3974652570115723 1.2055967000848593 -2.699738537768822 -1.3896326648252777
Ni 7.692940552454513 8.991475631186477 6.9414135682267695 0.006289432553137556 0.21839027385057225 0.17267785941512198
Ni 8.692442521500052 2.5888862842089813 1.131079256202334 0.2798838623796792 -0.8602700347203377 1.3437644415382535
Ni 6.883054304604894 0.47059536961562504 4.70910217629885 -0.9737428445302133 1.7780674742331832 -0.4907616299032903
Ni 0.9166028675361669 7.260917236629627 2.2026917523135188 -0.023343045601314637 0.017200937259318767 0.2954614051029621
Ni 7.890305123742323 3.7765992121530796 3.8886475844818005 -1.7639786002402846 -0.421395580604642 -1.3955863113055513
Ni 8.049713924053718 3.9983794584672623 12.4731191695085 -0.3118663288235468 0.08397017236506828 -1.0968380079212012
Ni 8.500135094482738 7.321911109282746 9.005927463182413 -1.1146665514621898 0.24534649072444195 0.9465613990194152
Ni 6.938501631929081 0.9392331349975096 0.07862137373934612 0.5896920231226166 -0.2549917271236899 0.7259098399384918
Ni 1.8430118822061636 6.90105338797623 8.923461572239582 1.8819382421769202 -0.23245163703964486 0.7025706509919191
Ni 0.08789008600715352 4.919350683599091 1.2219211556304563 0.714611384206537 0.4258926971440472 0.8566033845020279
Ni 6.491823473298831 2.1911935463350627 6.6330918077108985 -0.31839564530163234 -1.60994226718575 1.4282981997162756
Ni 3.513074868150893 4.50549864781425 0.39521038694974525 0.27901688639369365 0.21918165940361609 -0.41582425716445165
Ni 5.8339868839189535 5.650769628412946 4.818455217613152 0.9857303559093927 0.3821852289537676 -0.3204532991616094
Ni 5.487590627355087 2.9970377039613103 9.388146970925476 -0.40017292378043984 -0.05815321130196436 -2.066662234123299
P 0.5890539895115902 5.708002363302164 12.037085483899217 0.3839389784200807 -0.4760292087891221 0.5932745982675525
P 4.491949488881647 6.173268699170384 12.517303928400887 -0.9257838001524313 0.5824386839943131 -0.43423181313736187
P 2.35421847668934 8.606588887674942 1.1699213868734684 1.1655463690311927 -0.25375785471658874 -0.6813312819971685
P 6.270487313130266 7.822532140131621 5.8360088353288955 -2.009895618756216 -0.7408335511278595 -0.31598626452919126
P 4.962852999904435 1.159010462165134 12.459589949137538 -0.3416024224353988 -0.3963116410528207 1.3839039898716166
P 4.00920972263078 6.351555692161787 8.152099344373115 0.20503956357527917 -0.5803617468606262 0.3100120492236274
P 4.736069987215137 0.9545858274602707 3.773723527785645 0.22106087870419994 0.07813865328495576 -0.8375980470441188
P 0.15296592600692308 5.676155042573627 3.5490739411918213 0.078021153870485 -0.21173343065568695 -0.8638922048539573
Ni 0.2077163099719679 0.04799574306038376 4.926522221701679 1.2240801036010274 0.07142061783483182 -0.472663891861315
Ni 1.8677447616222644 6.75520280958 4.5850779788105696 -0.11297658689974736 -0.8017524981004193 0.06781181743765095
Ni 6.314379337685844 5.827352780682389 9.151825169087973 -0.5009614532544275 0.386062966741619 -0.05059082557367416
Ni 8.730570489145174 2.4453105144362186 10.154123974552645 -0.1545916913373725 0.6095964753560275 -0.5538464741789172
Ni 2.4573824072109516 5.3852876801770195 6.784321266258634 -1.208347523357119 -1.0340485833988062 0.32010028669756485
Ni 1.0977447000351077 0.2259301860300617 8.925955705041089 -1.4918324728244952 0.1137908552709266 0.882288705083274
Ni 1.4764776783859475 1.044544992386697 11.314125927010238 1.351853389193975 1.1142016960106296 0.05570886352652986
Ni 4.009273163508726 6.851324802649684 1.3789998631247473 1.5331986944761078 1.3368792843826458 -0.04840204545247148
Ni 5.619538590498734 7.985874274875625 8.03933680901838 -0.027445497805462408 -0.13219609725099166 -0.0702188842172468
Ni 5.265910073849103 3.102675828722788 4.492292975920808 0.9510518306906007 -0.9564460051229786 0.014096073081749916
Ni 0.5512251002910679 7.840223082095795 7.062731559121556 1.3590406509710335 -0.5134472444262641 -1.5827150560386807
Ni 5.189608823646043 4.597025708724181 7.182444495804324 0.049771672106488474 0.5612965026990591 0.07114011047993554
Ni 0.8463629400716506 7.727443327074189 11.186401313741234 0.8433472908230701 -0.9642863271030039 -0.03158883054987463
Ni 4.814174770948357 0.5995317036533835 10.38703718864797 0.9016521972115503 -1.3600248692611738 0.23492889493554375
Ni 7.848724159740464 7.266200955464214 4.5144048407795125 1.2754749131332357 -0.9957268050004724 0.08945304985651045
Ni 7.304990520836479 6.281671033613764 6.869307572652405 0.6344690702279913 -0.6493611568484752 0.2857935429958949
Ni 2.583910706781558 5.362684601663368 2.464746986842144 -1.5767482969322844 -0.8557968294403325 0.44052921611029944
Ni 2.8300069353139157 5.213544160596546 11.085630010616418 -0.19338758115864757 0.50649678125036 1.1120769363581429
Ni 1.131839640439421 3.3675958720397707 3.4299183779367146 0.23317643102081131 0.3861372716229801 1.0587501999105444
Ni 1.2778261635741057 1.1913109320218522 2.1979427494501853 0.48124957664779694 0.28268507927390024 2.883480625417905
Ni 0.973799350495131 3.3625477907518384 8.131884361764975 1.1473087629772436 -0.40696834943571847 -0.5992464995802712
Ni 3.7943173430649435 2.739984329509544 6.7472065400641235 -0.7504219661472431 0.3087799765887392 -0.028597094911402363
Ni 4.075587006926685 6.901687796755684 5.981972701007171 0.5912773653318656 1.0743264570822466 -0.7467203489259399
Ni 0.5011919987503839 0.34134183118814 0.3199459419519615 -0.6672974296119217 -1.2934237843021723 -1.3864067016888122
P 0.42294401989265856 5.764510059586294 7.659505397180832 -0.8079568271389181 -0.6139418968089168 0.5033631207173848
P 8.595677056668352 1.5984019828142382 7.938260989679426 0.652279873157167 0.5859310134182878 0.6995277504005372
P 1.8493469070181292 2.9846304808317234 10.207208582322497 1.2480052469580571 1.197126457830319 -0.35130833686925306
P 4.180599785891273 6.280891617113293 3.633994087812879 -0.7846099248828616 1.1017791539765607 -0.46240184781367455
P 7.279360406146581 4.130517744244746 10.193121988523872 -0.5025164564463732 0.6936257830938055 1.0669980417416334
P 6.608083413624864 7.884060728755992 10.075066671351987 0.20814365642189958 -0.3284957098501117 0.5340821470677963
P 2.214385718715349 8.524224502136823 5.713801765844621 1.4169277530958049 -0.07810060095816872 -0.7647149857311476
P 6.958340500760831 3.8004348562953822 1.2799822471259892 -0.27813037002368235 1.623674272059862 0.5855173229196369
Ni 5.191956136130019 3.062943713163907 0.28428673075716826 1.0051162166351721 -0.7678861843702776 0.4551533937813774
Ni 1.77385226226323 1.1071883278663928 6.882120817400842 -0.5483242588091073 1.9920747885247114 -0.2064503278798767
Ni 6.938102860696281 0.7693565898251402 9.13558883582526 0.17350112664736572 0.6967226768515743 0.025781994060110433
Ni 3.215618717430538 1.5526067319202999 9.104404019122123 -1.1887629163569722 1.3679055575608312 -0.7024459524885966
Ni 6.2148859151024975 1.9316115997480479 2.428003842932742 1.6902532455316759 0.3437179261165048 0.2887819362002575
Ni 4.379532253162587 7.01331655299171 10.335504163493008 -0.034850789130598046 0.6004441194327981 -0.2605689641011512
Ni 8.653390129633442 7.130935940702283 13.454938353274173 -0.025149502682434106 0.5044985198734085 -0.22881121207358013
Ni 7.797282670709394 4.176458002859702 8.122559459005274 -0.15597623038972494 -0.49785118976022 -0.9435375245914266
Ni 3.446706646837552 8.690240216737093 12.342092005393317 -0.6359032315713564 -1.0243874061599585 0.6967476165522387
Ni 0.7058395828263122 5.085203264513217 9.913411157663072 -1.0448585295301165 -1.1709613693991767 0.04543396396308304
Ni 8.795180491841172 2.2942577840484737 5.89324519541114 0.04047816261970448 0.7200220136991471 -0.6504387061833702
Ni 3.6264980949345142 2.747832872409633 11.625539070878556 0.6561568396140699 0.21415103895824408 -1.517020799164665
Ni 1.5863300900395052 3.5961461663289733 12.510034510086612 -1.8725974243919687 0.5836661286435109 -0.6071374722925736
Ni 3.2876513028461374 8.506261670695741 7.764414858144193 -0.08317672992949547 -0.03999170990158919 0.2822060827549527
Ni 5.868734359067847 7.919551368475103 3.2145012516804448 -1.7407998481309763 0.05758654016521695 -0.44273136596794077
Ni 3.007614204613047 8.538054613528898 3.2562444430701913 0.7351370149637146 -0.5835673982821176 0.3607833662392238
Ni 3.49681587743177 4.360771879255907 8.992544156830727 -0.5292644139641789 -0.3475555546950402 -0.21048156052645683
Ni 7.673074494675073 6.227247823319266 11.318171642426634 -0.3223024365552062 -0.2592276195819084 -1.0508818529060613
Ni 8.111623157945761 8.728486003155542 2.5456739833456727 0.1481186820185191 0.7495637319120059 -0.6718164005281978
Ni 4.605191456013997 0.43479477589283944 1.386295564088456 -0.11364044573599139 -0.8336326346384675 -0.4824682795462465
Ni 6.487346359912406 5.871190427342587 0.18203634887796938 -0.7230592578635741 -1.296268195729503 -0.18041482304806347
Ni 8.244948694439078 9.309042540215488 11.129415998276002 -1.3761318021253655 -0.29962170712823877 0.5649950345965689
Ni -0.014423736749990703 4.9022669614666805 5.575638409258847 0.5119884004925506 0.24242288931974376 1.3290896131348982
Ni 7.211116147442572 6.1033659146572345 2.440114706532499 1.0268230121846444 -0.5409611335758167 0.4117197480777748
P 8.455699290973342 1.5961724891035893 3.5350000355687863 0.5304957152681186 0.7067535787250151 -0.3815229127794204
P 1.9544050008955358 3.345690643183517 1.4561602840748389 -1.4206478822598694 1.5519322663298694 1.3900023894598705
P 5.115092981008012 1.2154275286236276 7.994979853457288 -1.2439051087467545 -0.07445349112388468 0.5218043581417078
P 8.95825073710827 1.9982245215906065 12.354998598862158 -1.7402928265875708 -0.549231344004409 0.08285894157876052
P 6.7652264682953565 7.876819405687665 1.0448368204252454 -0.5238630404429493 0.5243322667698841 0.7068764774561245
P 1.67839186692069 3.3684931073135687 5.957857010703653 1.9890159470937292 -0.5545455571284708 -0.8970969737407002
P 6.805837693162908 4.001451809556327 5.873773377373216 1.2568249021322162 2.064382694060503 -0.9762211308673768
P 2.7019016767772404 8.69376571695434 10.234507192102358 0.6862436316971214 -1.1527397041848277 -0.45633507279430446
