# total energy = -381170.9121449961 ev
CRYSTAL
PRIMVEC
9.18548446341062 0.00000000000000 0.00000000000000

0.00000000000000 9.18548446341062 0.00000000000000

0.00000000000000 0.00000000000000 13.44388499519614

PRIMCOORD
 96 1
Ni 8.615166897975303 1.692811298685765 9.939064340683995 0.46639862767789353 -0.053790049237262196 1.3470793648440993
Ni 7.304683018196477 4.768258457438034 12.80075609099902 -0.09363263515549682 1.6276193727505386 0.9841869226816727
Ni 5.953084910057671 5.799016779521042 10.797658209332251 0.25246279005424904 -0.6056536886581956 0.9886554999759876
Ni 3.7548515154649453 5.887215801127953 1.8255048069271134 0.5519793390631913 -0.86663685747863 -1.2058772074397555
Ni 0.1413195966803245 8.43856677410377 10.555560070102436 0.4565536165630137 0.34098201524258054 -1.0658649565784548
Ni 3.3273498840749003 4.722422890075142 5.278942917381507 0.4596358550327632 0.08399588339668115 -1.2326670739390901
Ni 4.9969402780926515 4.352973520355132 12.560567613984585 -0.593679804125771 0.45133144893212596 0.48452310519274616
Ni 8.879883374093772 2.6055820731182044 12.65732383289716 0.24120110109750073 -0.5401851746417407 0.45383930295564423
Ni 4.812036476286037 7.637757869528301 11.557613753305878 -0.8473589830856244 0.42689825559042605 -0.20579932455943914
Ni 1.5279226674770952 8.242447495794131 13.033590669169623 1.0324416439230024 -0.4687933531623153 -0.3637326786755349
Ni 2.9907294357486722 2.107150130871196 4.310768056443506 -0.7956160461853782 1.0070838818845043 -0.2821901419153527
Ni 5.125132898957684 0.7936028920311429 7.578076102918351 1.0196349790766375 0.4246914777470944 -0.0635162753860906
Ni 0.718972668041159 2.524621213251166 1.9250295308503453 1.5128491842854783 -2.8468894565574323 -3.346730165943856
Ni 7.8430626322794 2.217963815172984 3.0700451753522455 -2.2858292382388954 -0.9247689857346718 1.004569857213399
Ni 3.7152345210689233 8.016705030160782 7.488997111901949 -0.3404886205459297 0.3025103415299435 -0.21644600564000788
Ni 6.726778264561946 3.64059327449761 11.049488369327797 -0.9558844761925538 -2.7010305171073674 -0.06685742394418163
Ni 7.3389816171008935 4.670662685247509 9.098203049749978 -0.8522065409859129 -0.11150257345738217 -0.9517318874767607
Ni 5.768171922766616 7.39931187891241 2.2339970782655545 0.09832181310105002 0.5419669491325118 0.3556375603722262
Ni 7.069268237446268 9.132034107496324 10.913382453616444 -0.11281615006248313 0.43983116160201025 0.5587197431108184
Ni 7.7940672582686465 3.4806923613406533 1.1878898116808643 -0.09627701475687934 0.023416579151727415 0.05214454321403923
Ni 7.354854134215738 7.677558573613153 0.5565135974672557 0.3347578887097396 -1.4752637698325368 0.14620938081094817
Ni 7.37605423230663 0.686598428127229 1.2321721136247046 0.5708124126092944 2.057540988548321 -0.6239887395219575
Ni 2.110622243990069 5.258460205625492 3.3449731545242876 -0.22890248623580578 0.6708398955475414 0.30639553551696264
Ni 5.823909442357402 4.999153979843043 6.328722540645893 -0.4803242366200502 -2.438307996998323 1.0426553512312107
P 7.107828901131523 0.18295739765346808 8.579416992529136 0.9083203532603453 -0.7910119717544635 -0.19999660183473297
Ni 8.609912800874786 1.763319077258421 7.613258345426035 -0.9873162123392738 -1.5189128739810551 -0.431478932982573
P 3.384566266660762 0.11149800289267661 11.810022598821233 -0.6861577568515344 0.26409626052811935 0.9182692369429412
Ni 0.13024098389547817 7.729300407471904 4.389186374217148 0.6230441162205012 2.46282706518561 0.5700020008928571
P 0.2685495787758917 5.884570381608812 5.2634956881963015 1.4156612276785554 -2.4989202113637417 1.1397664318536114
P 7.115765159688944 1.4163925153888735 12.438308816068735 -0.9280314585360274 1.7422571494027927 0.45919182551680915
P 8.60584363126722 2.247366550870101 5.437123389302578 -1.5667243370373791 -0.49932186076847546 -1.72380794155867
Ni 3.33765599761822 5.822935781006607 11.033329265098377 0.3294814708021487 -1.6062781880706012 -1.0820207404027107
Ni 0.2816995183022875 3.7612446126362022 3.480527941169151 -0.2082742684624929 1.3109121708949232 3.8957745907484385
Ni 5.689268611414464 4.187083671342343 2.063529183807141 -0.17481701724531182 -0.6833724807969134 -1.8037818482801515
Ni 7.302414203539436 7.285347573447201 9.654658778665253 1.076128800398308 -1.3848545267103438 -1.3418574543235278
Ni 0.6790617381430102 4.746571528671743 1.333209686835445 0.967601764629482 -0.6253581090656585 0.7533347689186639
Ni 7.4148996460095695 6.180884924205908 5.430885526818382 0.3983613244929978 1.5569418037293186 -0.1646516466765358
Ni 8.130935714674793 3.9597429314161783 6.538500634319984 -0.4221180605929633 0.04658298996586171 -0.3629641759406265
Ni 4.230494270812688 3.8436475935605503 9.90156919319395 2.0061562063184417 0.45957543410847307 0.4151388010616528
Ni 5.144119295298184 1.442038387949433 11.065352619506644 2.293653105158689 0.8538157944545617 3.6664594424552472
Ni 5.273065125887417 8.702116693698175 9.553815937724671 -0.9827026248266624 -0.34471628547403216 -0.8897212501019194
Ni 4.590721414153472 6.525744752076126 9.089316093552865 -0.03277308066596292 -0.21619789418494378 0.9197404221718289
Ni 2.6370515428146506 7.891231312690422 10.14362599774378 -0.005860315435518939 0.8389368204602002 -0.16842756877920026
Ni 1.4531068967013938 0.6655875510158308 8.874429033432433 -0.7074781155958655 -0.3403160995238074 -1.6750806515562957
Ni 1.4517474450040575 4.594349680507849 6.8348978462770535 0.08903961646817568 1.724136271432366 -0.10282818561183582
Ni 3.745482321334655 8.07791709847868 0.7672221807152664 0.07459387335649088 1.5999216497249542 0.37245514615019726
Ni 5.394295149545821 6.556525310439463 0.06004643034227592 0.012864000446861716 -1.4632667453716606 -0.39158081123605465
Ni 8.649731875928522 5.889640769020499 7.536386863232335 0.7373463639102075 1.3704311521961625 0.9127254243065764
Ni 3.1168828790677 1.2220276646075547 2.259486797590609 0.1359679055885981 -1.6825828734706119 -0.9026076191462843
Ni 1.8774211649902517 7.212286230199818 1.7844071124391274 -2.096518398252783 0.483429100797619 0.435875776498688
Ni 4.528278490920418 6.705146448702305 5.668466244799887 -0.04191232396306976 1.236492361222451 0.714195636825357
Ni 1.3073791860376123 2.4651176450393804 6.297115288682825 1.2069673551801408 -1.5260438285988818 0.27647560802907867
Ni 5.579529628792327 -0.027517874289729422 13.141102171814705 -0.054819518943041066 0.07311214660464183 -0.6545352448502469
Ni 4.8010506368940495 0.0987908037163592 5.217047449021165 -0.18449644931660483 0.6340715776792564 0.09679174960976877
Ni 1.6120708904453211 4.340876237345728 12.764524866168122 0.3051938018993776 -0.7791627857253614 -1.0427772215210558
Ni 5.281690295777948 2.3093961273032884 0.4170439573534415 0.8608773292870335 -0.1162693987184062 -0.0005378747813410092
P 2.4488777085468767 9.26402033343568 4.574725811547111 0.31250499084881017 -1.370470232964214 -0.7973561688049365
Ni 0.24210548761736908 3.61331238570647 8.793510426793825 0.7196877702881799 0.42858181394043604 -0.22982654071197195
P 6.107713355145228 7.60726206118265 4.5445175088644785 -0.017821344452137046 1.530441443445945 -1.0865016589921999
Ni 3.5370177519356933 1.0993279634385162 9.838248137648293 -2.1549125219209597 -0.28191374832551447 -2.0550963836625704
P 7.80924167856594 6.920904292747787 11.82409843517933 -0.14328243697214035 0.16636862936764252 -0.8731327496156187
P 5.679577925328722 3.4584083760856683 7.926648703599809 -0.7615964947068239 1.0360090495592866 -0.8913186764960264
P 3.785475920592777 3.9716381337678706 3.2143923077044754 0.4913835797580053 -1.311236387003561 -0.7675162026253685
Ni 0.4948385807335087 1.1270589409672875 3.8212359300718295 1.5313102192041432 -1.3177415351119304 0.8875702651971875
Ni 3.7617498142804826 7.82533464730738 3.420971097147605 -0.8841010757016646 0.46195293320171416 0.5522369635999521
Ni -0.11513453618305108 6.213677103661925 -0.055825700241424504 1.423474038854755 0.9442000978760899 -0.8592094546663073
Ni 7.62737827210945 0.2908767358077514 5.297670283060758 -0.13275428374730686 -0.22925935535459224 0.908189741219752
Ni 2.8922702280206494 6.262700034126002 13.054280972874013 -0.4321898430066686 0.06005222809689013 1.5809489652771933
Ni 8.45320843630346 8.267156448941662 7.407688122174578 -0.37064586085560036 -0.2224672721334233 0.7193255018527547
Ni 9.12698209105352 6.00745379246668 3.0801280816236374 -1.4493887018379876 0.19189968375921146 -0.8304274974376085
Ni 7.045799324698335 4.2994405170302965 4.070405055224682 0.5973991619588873 -0.8246134618589928 0.11172394543956889
Ni 1.3630891491750743 1.1832557347801471 11.27400181714288 0.7636328084105622 0.20511386845664029 -0.42801000059736605
Ni 3.8092112123895125 5.088097025689712 7.621244205599442 -0.39499215091044876 -0.9008523270180743 -0.5962120836293217
Ni 8.629569737579514 9.049162666865461 12.703153888969386 0.7829273949741161 1.009184730277591 0.36883503289910674
Ni 6.427882600836799 2.037698683009308 9.29498092729407 -0.4623704803551069 0.8929641825192494 -0.6476999670959684
Ni 6.202966828803181 7.271440750002829 7.508100163894856 -0.09635671895487921 0.27258835715953056 -0.6846156091753952
Ni 1.529171893361134 7.407450218127544 7.9636735542864505 -0.6271668801396231 0.0848587456176087 0.3078628640911085
Ni 5.336766460488949 2.0475271513616717 3.3990848433689353 0.10674243306457745 -0.08470653631046057 -0.09666550844454966
Ni 1.8927517385230506 5.5217253752022115 9.088671272545074 0.650974524082182 -1.3170823042613766 0.0023695286734410803
Ni 5.148638553643383 5.661950980685559 3.6437503255001396 -0.03696192193632989 0.6174445106455366 2.513069763391246
Ni 1.8202874517643635 1.3499263499704603 0.07251848111689192 0.30014261262871533 0.4052955897189859 0.4323063139798748
Ni 2.215851153751448 6.705284230968927 5.552915606171637 -0.5532767177183762 1.282769647022436 0.2411339953049912
Ni 2.6677953592402215 2.938923303498831 8.600563814810268 -1.6276718232550291 -0.05279914607890261 -1.4335285948772796
Ni 1.0764928491170438 8.795110538183527 6.2133464262220315 1.3721815592283657 2.4188200634770407 -0.3385479518797912
Ni 3.101662531348199 3.2190530225100726 1.051801348389952 -0.06537338319948742 1.3143265958931105 0.35444996782202826
Ni 3.7503138861508636 2.8340342566617855 6.230837425695462 1.985524389000703 -0.8353511599914711 2.5896446717335078
Ni 7.663569080808807 8.722673807878165 3.168333533069657 -0.27918272254759663 -0.7529596449674323 -0.6006552070023397
Ni 3.460346513302817 2.7832201567316224 12.04291137135004 -1.29796923758101 -0.5742474064327723 0.007781186607315632
P 3.100009144148736 1.064368009654315 7.2270289327283646 -2.2536441688659186 -0.5381609451228603 0.9667512437037286
Ni 8.926674231838577 4.263176224455408 11.04618159492887 1.0094688371769132 0.406149710189165 -0.46519046630240524
P 0.680318312414602 9.343750338387563 1.6151213898283303 -0.09521977713695859 -0.22326020034836389 -0.5077288538852481
Ni 0.9273389527565971 6.365678500199224 10.94732832991831 -0.4177870373177773 -0.368083756555379 1.5689725096416074
P 1.9678890012542032 3.7133147548206575 10.597962103381109 -0.25195602562115965 0.09852827268490127 -0.018755683340948345
P 5.267030262609376 0.4107620045439262 1.807234878373047 -0.9500997511899767 0.38504275300722074 0.7668405167145825
P 7.3949304028338325 5.660334335423862 1.871751883992982 -0.4310984097147027 -0.09003411917096107 -0.7681656632839093
Ni 6.282255930501874 2.1920607490480633 6.100270357102312 0.4651732399112246 1.1358066758749148 -0.6106066617880967
