# total energy = -340860.9543954023 ev
CRYSTAL
PRIMVEC
9.37631191986883 0.00000000000000 0.00000000000000
0.00000000000000 9.37631191986883 0.00000000000000
0.00000000000000 0.00000000000000 13.72318026686499
PRIMCOORD
 96 1
Ni 7.666682227457411 8.862527695476333 11.281044260412017 1.360486896499257 0.4463905599870829 0.397862016259076
Ni 2.1144146348260118 2.4015173111112214 1.8109109134278665 -0.28504715174817363 -0.9893388991962575 2.285542560236412
Ni 0.3388777340311044 6.221520620887748 4.077527471933411 -2.2150208000667657 -0.6027586264985877 0.22201192976355955
Ni 0.5726854523801569 7.591127904612661 11.280317596224814 0.7850909782843383 -1.2993689461420137 -3.661090207723534
Ni 7.192193953995195 4.451544810795151 7.612591220624565 -1.6272311361731844 -1.5599217122932487 -0.5236511815424594
Ni -0.3179423043900327 5.2067504920072984 6.4614360689341295 1.7741959070929185 -0.41298164550933386 -0.9844288634891497
Ni 3.92321775329539 3.727665388285451 2.4978654812844394 -0.8107516162752361 1.0002344630628386 -0.48402019741439867
Ni 2.2263396722791975 6.31211454832954 5.3585998663521375 1.3216943491120914 -0.6779528524432388 1.0301687887284259
Ni 8.631598504939806 3.0564995923621465 11.72367182538249 -0.06323602514151044 -0.6631880354292385 0.37448220388255504
Ni 2.3956196108047743 -0.02417025731312911 3.0028652119282255 1.6070685451823805 0.7223380634268335 -0.8390293801740065
Ni 4.823784400884074 7.186540037803165 13.614108867457666 -3.3878986697623654 0.07485226922420012 1.4236329330301223
Ni 5.936293207021123 8.062822037071186 10.367547678447195 -1.8227892426205896 -1.790016161954627 -1.4189589245932208
Ni 5.37964031068865 0.341133674720661 1.4955114648774337 1.5833393198862409 1.0849430562558282 -0.3396951781103569
Ni 2.015035102953153 6.981986413184023 2.681591503851578 1.2927234158010381 0.2254644070885343 -1.4592802499200868
Ni 8.183082615974978 8.67259174141005 4.601725201587451 -1.034658191958347 -1.6545730185212473 -1.09342846801902
Ni 4.809869953738182 3.286191109702407 4.621116352626819 0.6045362872243009 0.060342505643799296 1.608942622276642
Ni 8.635227137719765 5.672659439904491 8.794637570136334 1.0605155193410831 1.2054432052261306 1.2933386807875338
Ni 4.3915364134004635 7.731922606999948 4.07076152512716 -3.3570631724387474 0.37397492522883335 3.0599968847425107
Ni 4.942694790846486 7.111604551556548 2.1484600240354044 -1.4664178894061326 -0.3879298447470287 -1.8739745072451535
Ni 8.011364836305242 0.06819673074543485 1.8296157184220325 -0.9561778390632565 -0.4722481444801351 1.351299059352402
Ni 4.742894956458454 5.88567987434354 11.705337384715992 -0.1777377904365326 -0.9659670572395365 -0.9231664171342424
Ni 3.230748976296971 5.286214736994794 0.6763715243972939 -0.7000625398580848 -0.122853222583511 0.1514577736940811
Ni 2.3662248723934702 8.821721985247944 9.768392897028724 -2.782867959400149 -0.016258370840391355 2.220579525101466
Ni 7.7822452740026495 7.127731808356371 6.691752048659778 -1.0900387256111808 0.3865270508622311 0.7375872762764201
P 7.083081810169886 0.8639371467664836 5.837141519532121 0.39504151609114546 0.5758417475030856 -0.7610660761246506
P 3.844728644765557 7.883359423612699 11.239723790649728 -0.4243258668775596 0.6688778867251641 -0.16692990118775122
P 5.655397649341426 7.455030734583929 7.886890542746892 1.6381022745597336 -1.925826716029754 0.5567227672854477
P 0.42839619847583926 3.78212300892113 8.074651192407615 -1.014381443987182 0.24373877991768986 -0.5974618968760226
P 0.9318132076383405 5.666189784560377 0.25097480815997963 1.3930494038163106 0.04133871084778687 0.04043291120406585
P 1.7852967040524277 1.7478289609291193 13.597050542867017 0.7201965916037983 -1.4243309875384116 -1.3605722571242116
P 7.1129922457463 1.4522032169514456 11.701509036488455 -0.7530524617915546 1.1827403643119758 -0.30376709675518004
P 0.3116733021247064 8.347158701288985 3.070190883280228 0.838738331296149 1.0464333302164042 0.426734219208736
Ni 3.8823182799460727 0.9649631590428592 5.156485020508364 -1.4403065370310615 0.05150613829909194 -1.029439623871885
Ni 3.7688836562459267 1.017132959527866 11.206445383769536 -0.3335134747796772 -1.0663346971260215 -0.5746526122909911
Ni 7.887869429729393 5.029594451323668 0.4581978688319761 1.4204612201703601 -0.41643335150336025 0.7291607427756217
Ni 8.86422480796515 8.036174558103108 12.98413227292735 -0.35475695753948583 0.036529719494917734 4.064651845470548
Ni 1.5218504631776553 7.120202629745756 7.911193943691741 -1.0415189236339222 -0.2712922640559263 0.04188481315924399
Ni 1.2476589686443962 0.1584690506824405 12.199166177132275 -0.021732506581085154 2.147529856303643 -1.1231689325062462
Ni 3.848713577405048 2.0321937540831967 14.005466757904053 1.4041961644617496 -0.7156197708663933 0.17809543088626748
Ni 5.393170329038733 8.894369651343888 6.118384000759256 -0.7252909754075703 -1.2991935969064141 0.3404577673079943
Ni 3.104431299781153 2.5364705710646187 9.277309488793252 -0.9544618848134143 0.31150688860159903 0.5652745135102006
Ni 2.471295825706732 6.337664998782748 12.25087560069352 -0.7190840752659099 -0.11062299906590625 0.02216830856692311
Ni 9.06716570690431 2.5690063740270506 5.831899223440971 1.0373735340069812 0.41123175269776274 -0.5095214270092967
Ni 6.1839309857072315 4.028016793557956 2.7995970796970227 0.354155576510061 -0.49066572775537437 -1.9443425154457548
Ni 6.358817958864375 2.4766965814722535 13.705697621612519 0.12675204341728494 0.32511573763428525 -0.12343094946385194
Ni 2.8370470078273544 6.413031795385639 9.71628591783474 0.8390664040595291 -0.685115174519633 0.680754583558092
Ni 5.019843086747032 5.764312890612785 5.16983782655989 1.2044350756765902 -0.4046808389531224 -0.7607524015389736
Ni 5.135968712017846 3.0106400499156742 10.846349055472153 0.3155435205648178 -0.156930109662562 -0.14436975649904812
Ni 5.746216608273449 5.3913607008048 9.467676753215805 0.22578682342495954 0.34567762094603693 -0.10823598689096843
Ni 5.629744059455197 5.065983918556291 0.5229900606564718 -0.8003692445996474 -0.6670089518372254 0.14147340878785958
Ni 5.927648247271451 -0.2500306135322226 3.7970529106666864 1.6211170528556467 2.3475295434621697 -0.5803897718850843
Ni 0.81255776939091 4.013736670240439 10.310349361786754 1.0353824717188813 0.0215728410747693 -0.9638312418434561
Ni 7.27640261290171 2.772172304456441 9.720554015099438 -0.8503661453430645 0.6544804803529116 1.5839566417552657
Ni 9.253529286063188 6.917477385984733 1.6278299811327206 -1.5072305525471201 -0.09729054362305825 -1.235548766362259
Ni 7.478949706732967 4.135009890850267 4.545392318533188 1.4545669036048177 1.4926621678146423 1.8575808963784786
Ni 6.7089388287261 4.585476052730421 11.984920258702683 0.7563478447133748 -0.14712315087446923 -0.6990125013270155
P 4.544895373992263 3.6837654950663996 12.857329841076327 1.3645471826115596 1.5861922159540038 1.0710593562952007
P 3.447154259401564 4.362769887899385 10.296639318244488 0.23856443480560202 2.4834604251652452 -0.42191700032575086
P 1.4393107878236806 1.828474621240324 10.583015330342496 -1.316538773053081 -1.8002954323934477 -1.0115020655568578
P 7.895998692313955 6.409468796790329 10.789795829083706 -0.7410235556514786 -0.11191009330844598 0.27305244128014267
P 7.481668837239914 6.375601557510702 4.676517230259045 0.5437032150973281 -0.32041961771019656 1.0755621292615607
P 3.467528985579479 5.794654636545473 3.5781685306447257 0.6873155246050615 -2.0774225579635965 -0.090673809637489
P 3.640475062133388 8.731428099793124 1.2529003271043386 -0.5181078831267271 -0.6691293406143379 0.38001496077532615
P 0.5096803856405718 3.4609655671144353 3.830084720538834 -1.5641015547025514 -0.4867306543670263 0.7692640385544106
Ni 6.7408557950904 7.007649379382345 12.707514188824444 2.044295950612957 -0.7117541172633999 -1.0009271182544892
Ni 7.501734145118763 1.9467380456683239 3.850162217623404 0.08394420422313931 -1.0091052831899072 -0.6541143552627444
Ni 5.568751149290753 2.0074777954062597 6.927255941866439 0.6750624182693212 1.0776642632062279 -0.3055853809108415
Ni 1.6426829971191148 8.604172792068015 5.128627059649089 0.031523010308945706 -0.15920065086429355 0.5681690614491763
Ni 8.787076512064605 0.6905072525085799 9.543113872159394 0.5238046764011882 -0.7758224084982187 0.9999909795934647
Ni 7.881802955805274 1.9411497636609434 7.831270259411691 0.9127364800501699 0.8216345817363269 -1.764540900501658
Ni 4.1700866743898795 8.685540428410375 8.718144678451084 1.9502735362182086 -0.35964359620782577 -0.6913696400697771
Ni 8.378184918004457 1.0832922176555093 13.424797375776775 -0.012832118767661771 0.35733474556899103 -0.35787904810823523
Ni 6.690786288514207 9.243018440207024 8.058841792587742 1.2857914645678952 0.8790226327374927 1.2634663187081336
Ni 3.544452249989795 1.1606749213583778 7.528962017805393 -0.48585853617471814 -0.33470903774967514 -1.4284624932082817
Ni 0.5029772601253434 0.8637121152762536 4.070157690628376 -0.8295864895935519 3.20764402644125 -0.05943850577229119
Ni 1.350817154290702 0.8186711248754938 8.171756030966732 -1.066567381962118 0.14544756294425917 0.5859888632394167
Ni 0.40192593180631686 3.1446744312839656 0.14249462776973273 -2.302715986691905 2.2426524457411054 0.372586529521739
Ni 2.3886061293592706 3.7580352631544187 4.803332788946997 0.10769039880014356 0.4099264036227779 -0.778256214750692
Ni 0.7965570928043421 0.28041924102537624 1.0192773221035167 -0.4617302756679467 0.48206358790866005 1.4488248589147177
Ni 6.881744260598615 6.321472107798275 2.6569036741109198 1.6921049540284343 -2.1999014279268243 1.5244628572650067
Ni 2.6777340890565506 3.010002460693356 11.937410485327858 -0.6128535488407446 0.976347372032596 0.4292071062292608
Ni 4.24924150107831 6.003952675083633 7.379502665413039 -2.1195500832612657 0.6364537047581877 0.7706349507600082
Ni 2.0583442885103502 8.200860103703155 0.09672322265693459 0.4843061040859336 -3.2683493147411067 -0.671384969417734
Ni 1.1506516437310463 4.467222004614514 2.0454265433399343 0.05449401728282228 1.3878799438002292 0.5861896663963131
Ni 8.97234306270861 9.44363401374714 6.572222822099234 1.1934639213770672 0.3140018871093108 1.2510396629090068
Ni 2.4567344130264273 3.5266278807011537 7.0847151637364725 0.06554307600813228 0.0040924249018187584 0.7513809876264028
Ni 9.406972633463823 5.383803393257907 12.12431976585054 -0.8719880944882143 -0.4239589704564441 -0.5277135245372913
Ni 5.239276918657637 9.024278455391293 12.525173985184637 0.9743995042776058 2.116503840235774 -0.4518065887963316
P 4.425103610693117 1.66948049708068 3.168517455305052 0.10033447265570462 -0.673702047586685 -0.7445071433247048
P 5.05358843396945 1.4862017246003736 9.084238095963098 0.9259509218579149 -0.4664639336981901 0.45836547296077185
P 8.95021496616932 8.069835518516692 8.360943755327996 0.16283439096213892 0.6824283717160893 0.5623347141555863
P 2.8666761540409813 8.25254233595933 6.787772985540952 1.6560886838348252 -0.040343179703736964 0.28453087423338735
P 5.097675853430361 4.202153661747666 6.768999733468508 0.4173640908477458 -1.3815334327569109 -0.3757273891435658
P 7.869163687104018 2.8436104262923982 1.7237965354037563 -0.4874356508538508 -0.12744212750577405 -1.0772821972764608
P 1.7409279952287304 1.5265479955362082 6.191871784418725 -0.2460831117801504 0.09974414736987339 -1.502191447461316
P 7.0064117061860784 7.609383584257577 1.123744440917994 0.008262240008792221 1.4963434733209715 -2.3098803656508284
