# total energy = -340854.8278116458 ev
CRYSTAL
PRIMVEC
9.40566475735231 0.00000000000000 0.00000000000000
0.00000000000000 9.40566475735231 0.00000000000000
0.00000000000000 0.00000000000000 13.76614111154550
PRIMCOORD
 96 1
Ni 8.540249304191198 2.811503607982044 11.52861984902365 2.199646374493225 0.1605121705868655 -1.691888467142254
Ni 0.04876742983656311 0.201284041877645 2.0385178828459245 1.9453688998277399 -0.19021432563698853 -1.2421521306113896
Ni 6.3491245149250455 6.153383231133899 11.548966182457749 -0.6441127639653423 -0.8106171475799007 -1.3177754736736595
Ni 4.3910156578410025 2.7423343512908662 13.197612688049254 0.5512781992311088 0.743291782860365 -1.3160914011030171
Ni 2.4899427502504734 0.38318300923251103 3.0291017749250746 3.1828058843516476 -1.2523761223322432 2.1137812990982887
Ni 6.814723718722525 1.1619757916274194 1.0095786315254152 0.36648787282316886 -0.0861232141523291 0.3922336143287051
Ni 1.9033302670691645 7.154409291934636 5.602075850198443 0.3284417166837247 0.3643039777979726 1.3078044785038767
Ni 3.4914767169339025 1.1091723911563467 9.9380109961943 -0.7244466251294039 -3.832018945658033 -1.6677874603289924
Ni 5.75329448053931 1.4173677996414984 6.120068367495043 1.3611993491852492 -0.7909001287669475 0.44011141184659036
Ni 2.084756129499967 7.174810178222801 13.075741612063542 1.9384706300460102 2.3934062513896266 0.4830969142691809
Ni 2.33180531310759 6.5516754998100755 9.642052357216249 1.8780705316913977 0.22784113485082697 -1.0588905821431507
Ni 4.608991932496704 4.500996092773004 5.700614294273112 -1.1248905431830434 -1.783288099202174 -0.09265124507883397
Ni 1.869413440902672 3.3443439072493657 5.492538422064125 0.5861863239622034 -0.756416236057465 1.0059803644076803
Ni 9.152915478021752 4.422844426489758 7.5210486778881 -0.2942820400828803 -2.976363526891571 0.20026605344603576
Ni 5.766641118456739 8.224134326201833 7.209107933801312 1.9877787322525189 0.13740386670417623 2.2362375433536976
Ni 7.613819568494857 0.26648598928512107 3.1962498386535096 -1.8384922551781433 1.4318483789613794 -1.8315860149766134
Ni 8.48298761874982 6.707941209718589 9.848324222975227 2.3901828593563224 -1.6797636588542617 0.879839472211833
Ni 8.965545235630545 5.966558517283361 6.0241324707859505 -1.0422288052167537 0.8664728210969401 -3.3824867547181747
Ni 1.8955235655388847 9.100949181690673 11.088309655352031 1.1001097366939376 -0.15815729720144375 0.9112753221236112
Ni 3.448869056774665 1.296674312850475 7.3415650851753735 1.940317710557078 -1.5371612786682818 2.7963348835383326
Ni 5.236152235312997 3.7044115554206534 1.432794029978621 1.0754153192710512 0.6764238173932222 0.9221968541321214
Ni 4.058722936921421 2.221956557478509 4.814102198690636 -1.1707186572607515 -1.4550502709991393 0.5056467745452389
Ni 5.749362912780687 9.053271868369002 11.716472602003417 0.9088489720703058 1.7979868388649294 -4.876273523055564
Ni 2.649782612666827 3.8668473812374375 0.8622915689431714 1.1305752522726464 -0.6591686298572003 0.971716558128804
P 1.9343501485714085 2.6387215512215154 2.5703169750537254 0.6566533196345142 0.7551725934583511 -1.209315800807659
P 2.1904663927515498 4.706284126025878 7.6798266407830456 0.5764012195509816 0.23859014583721488 -1.3062682443650082
P 3.9543764950215134 8.18044501462575 11.937859370604755 -2.9552894798300913 -1.1858388007316416 1.2923606331449808
P 2.501944378145217 1.795626002944787 12.931761581117499 -1.0265612738828256 -0.6936517512357345 0.7782906675330532
P 5.6772590887672845 4.879922098255388 13.51496357035317 1.2468058273333171 0.41800635241743495 -0.7649836660115019
P 4.622141051459755 5.521858699992246 9.964070330242244 -0.6827268767931145 0.23702485823262404 0.9879656729978148
P 3.591816345759233 8.068263654202081 7.693235356086139 -0.8747862260586419 -0.07034461116183369 0.21435364188735342
P 2.586962179509311 6.155048033749393 1.6333115101999796 -0.39446610320364967 -1.5404283794553277 0.5832935757954406
Ni 4.42718984348613 5.930318491986774 7.783926654273203 -1.1262385725705055 -0.02738276288832704 0.5368072593084432
Ni 7.711121167688524 3.502123929141465 0.06812240623296026 -0.777864378628912 -0.623155702097701 -0.2121350369694798
Ni 7.938117474594272 8.084836435041058 0.9485189387612346 -0.3270769751257141 0.9691747655435566 -0.48175865507373156
Ni 4.196948582329844 8.999791260054339 5.769169361072811 -2.06544481677643 0.3945951725823462 -1.2999027071582967
Ni 0.08085485425891167 9.11230181873531 4.749236033505607 -0.03629240667313104 -0.6671485627388832 1.6181062910537811
Ni 1.0412446821784185 4.570108915477215 9.437928745227772 -0.40047554262252316 -0.0010731784595207324 2.221476068773806
Ni 7.951520546498668 4.890202489547672 3.568789397944256 -0.6762397264068741 -0.44304478344330145 0.234915268088789
Ni 8.465022799565682 5.271620996121051 12.221827668485457 0.7290118759025831 -0.1659639377300561 -0.10642618737573929
Ni 0.4817882335250901 1.8992952370011043 7.068128309828955 -0.3854207051719298 -0.7699389531342482 -0.6480702059511936
Ni 8.181893486957875 1.904487163801965 9.105200542042104 0.6247837246194272 -0.4465484257211858 -0.6428655218218025
Ni 0.4123236389687914 6.290282677848625 1.8695799211642214 -0.4774278889088617 0.27992062915488564 1.5704760907703275
Ni 6.169344643780748 2.5775659206794925 3.6532447405715907 0.03834646098868234 0.457056010120729 -0.7046087644678704
Ni 1.0696403832867494 5.040758961108139 4.1764677478934775 -0.11602977190377436 0.9790987095254878 -1.0262568552685294
Ni 5.021298641269406 0.5557572008077153 13.493984235698607 -1.982656580534605 0.2684355113334216 1.527110322190183
Ni 5.926189405273771 7.519377291307461 13.196965578332046 0.243325089419039 -1.3104876817629947 2.8017560545539038
Ni 0.2927926923092649 0.9161032566480345 12.47362389096336 -0.10257930282582332 -1.3783051556276005 -0.5746916930590424
Ni 4.285719243827169 8.178620315713854 9.77097297874045 0.27942054959001555 -0.7663982869708413 -0.32731454505781693
Ni 6.889893789361073 3.254698518954069 7.418738562351211 1.6765070995901774 0.2034555069176109 -2.0106062716699955
Ni 6.560338116809337 3.6696294081206844 11.624294268259801 -1.8539679822162394 1.0243861206083777 2.082432095363046
Ni 6.5747946231370955 5.543614001967592 6.095261867957742 3.201172045563661 -0.9878738846149568 1.1385556993749617
Ni 7.14770305315019 8.717329749625627 5.090333396958315 -1.3129842229326034 -0.03881800130846218 2.5268932995378997
Ni 5.68991911317663 0.7386588119976751 9.295338871493987 0.6456176306456429 0.7691524526772109 -0.6817478007092969
Ni 4.400806954579583 1.7044757083304005 2.1672447476815404 -0.3036776223651673 -1.6162149875683391 -0.23928408658044592
Ni 2.3713749436351645 2.680576758221208 8.67956506611451 -1.486043376946544 1.1460427517806262 -1.1096971232720567
P 7.726471212143243 0.9561704468273582 7.0002617376702405 0.31448962537900677 0.05580348012286518 0.2804227656022848
P 1.868867912362002 4.906257958839465 11.505823339988783 0.046591217495977826 0.3263177283621864 0.1502580969590251
P 7.740024774679547 6.801442920456555 7.784903902814161 0.7249371916125773 1.9648810017187388 -2.818937194318881
P 7.773734676227165 2.6325044069907744 2.076939081738743 -0.33601567237624064 0.3397895375963761 1.5814292473477216
P 9.050318489717787 3.5945251771335953 5.258074017549892 0.19361409534715687 1.1588159922858947 0.5597538408022875
P 2.32428078151214 1.018078530528926 5.821012443199016 -3.471982227776846 -0.03135768837567503 -4.0116302989681945
P 8.291911544547853 4.36401199507783 9.651758062407932 -1.4365411564513582 -0.6216166397453553 0.5958788686596188
P 0.2276199024617212 7.1368018880012825 4.327330844116459 -0.6226085713449793 -1.657450082958726 -1.905432211533802
Ni 1.2010751389302783 5.20708873202557 13.625918432126781 -1.1991928534410443 -0.05634366889705135 -0.6773339879123174
Ni 6.891417507009152 8.1737481815058 9.760290025007809 -1.5078028801108228 0.76498777977656 -0.3092222063324804
Ni 0.8461599137689753 6.911479789375521 11.284174153348053 -1.4355906196126307 -0.11062814127222884 0.10591865161170147
Ni 3.5095544040919724 3.737970966336362 3.288703758366808 0.6638994596739662 2.332679108712899 0.1883880710615272
Ni 3.9158132705948305 7.481303161434481 0.7849422058412902 -0.7842371149244751 0.8928713656951268 -0.46576922162401074
Ni 3.338070329031659 6.988841379841245 3.8111696096969023 0.5306132146825894 -0.5362061353893346 -1.5886064818224512
Ni 0.6735001306468728 2.993108178038238 13.28263237054625 0.6061177727788079 0.19429363791268472 -0.13681277008739662
Ni 0.15682534694592665 3.6837190935331647 1.6981080734677507 0.5396444716469222 0.6361063487210981 0.7383773762778831
Ni 9.040959853545946 9.037790144611362 10.084606742436213 0.3443439897362779 0.5134953240553801 0.5628057402547338
Ni 0.9338884276403309 1.4372231573889929 3.8517249538634815 -2.7670803575485894 3.612848084887694 2.6439296583293173
Ni 6.5751238213943966 5.859042366448871 9.123909349287741 -2.1081449267481176 -2.6999323989471824 0.08191431827730408
Ni 1.7176906669449103 9.050440763356214 8.779796529798157 0.9440178066619548 -0.30384988627697346 -1.1698187711543013
Ni 7.988955091186034 1.7762879567444796 4.8580294735784255 0.589354694387856 0.3088833349358229 1.8032542579114557
Ni 5.752805385985606 6.354504555015793 1.9471926428719435 -1.0060886078507705 -0.9630326572015607 0.6994081941035374
Ni 7.5322160233421975 5.738997870507955 0.7697774529771093 1.0300407477909939 -0.20846992941306677 -0.6180320077178904
Ni 0.5270623995684653 6.559181220076536 7.86856070452593 2.552495830597352 0.6426667755474351 2.2151138740012044
Ni 2.710091733404362 2.850490087310971 10.863109830364696 -1.2586598984584259 2.7220161182200995 3.111795100360725
Ni 7.189708750781793 1.229113424787825 12.544836057982701 0.1003388435310788 0.5060756345525413 -0.005506531640526001
Ni 7.615822975032145 7.404515316502912 3.223410576013737 0.9470144273964334 -1.6381896920672172 -0.14143535646107255
Ni 3.7749634447924945 5.385203800554374 12.635417309895182 -0.08291756273083785 0.19329373589326065 -0.4496126664688063
Ni 5.689477046945397 8.573291403559718 1.5118251258920854 0.6045504282916879 1.952757221872011 2.613087219027164
Ni 9.185383831856122 8.636328167000604 7.369304270902001 -1.3924678202812277 1.2133850857810264 -0.4749578301018143
Ni 4.945018702220529 6.789949198444504 5.6735636031874686 -2.181738898085184 1.3994383380617899 -2.114823110099242
Ni 6.160484507827106 3.145414103194647 9.518680137177247 -0.6021978688991113 0.9216774912935417 -0.4996185660732879
P 4.887013969284101 2.750094024498675 7.684149484184632 -0.07410639219711108 1.176787746272967 -0.003319808401852347
P 0.7358897843705493 1.7008451218355958 10.246372884941003 0.0894633342691556 -1.0250713196008605 -0.08223802016530998
P -0.02812293683799566 7.018535062649791 13.6140663542975 -0.818085688042804 -0.3034624210305677 -0.8483712264002228
P 4.881925504792677 2.1557124624450634 10.917884658113778 1.9282443243323113 0.6905710554278817 2.191064032140852
P 5.4754417457128115 5.442126882073956 3.8891547957185995 0.08898922284621448 -0.20758264171210702 0.1938586072577952
P 5.213202413946873 0.2872583993208112 4.003359314574996 0.8353421611304065 0.7149147743795687 -1.5814868400585345
P 7.8244782361739835 8.569886553012777 12.046625534250541 0.9048030841357062 0.15393734558282518 -0.20760989540561667
P 2.3095421052495513 9.291639623648374 1.1882213578323502 -0.07925348361568932 -1.2654671511882463 -3.663881654425741
