# total energy = -340861.16313542455 ev
CRYSTAL
PRIMVEC
9.36517961703987 0.00000000000000 0.00000000000000

0.00000000000000 9.36517961703987 0.00000000000000

0.00000000000000 0.00000000000000 13.70688701640245

PRIMCOORD
 96 1
Ni 8.662847498667505 5.664866143656357 0.5624511583932681 -1.1356256702123604 -0.05367177849184305 -0.2600948526782101
Ni 9.364533594582193 7.076517154421851 2.7328521785819926 0.9855521784603155 0.5167086887863552 -0.3796251815360753
Ni 5.613413845879176 7.488416492033061 9.136682516315044 0.24209353100478306 1.422554612364279 1.4370497206566604
Ni 4.598752806496044 8.647413682370308 2.8257435239027617 0.7238017924565535 -0.7900048706461879 -0.6791119057483465
Ni 8.137161226583643 9.205306807758816 7.884585137147669 1.5250734942658122 -1.2469528944341428 0.05671056531816685
Ni 7.60417011426203 7.9215092315135385 12.59202366468367 1.2538799605712792 -1.7344412529028002 0.5521176644132685
Ni 6.246996354346529 0.10732027782628464 12.748446516677326 -2.1689504880712644 2.91231863269552 0.11857182159933771
Ni 4.469532055726197 2.218863952576303 1.461689166394086 -0.01832399512016844 -1.5963390745800186 2.4658769077555274
Ni 4.166886905568318 2.868320440791076 7.890095608937274 -0.35077946094897655 -0.0002720227144640477 -0.523576362440466
Ni 1.7639222486411177 1.7881780643023661 7.60481443863172 1.4827114843598335 0.42761919291685063 -0.374298112896207
Ni 3.8098487911785734 0.9632087416059494 4.367371055447318 -0.13158237492639274 -3.548653552487656 -0.7889098378097962
Ni 4.916063828208177 0.8949384539583164 6.408696485152969 0.42579113856917644 0.738488962155083 1.585610889529237
Ni 8.338980851100981 1.0617491633772453 11.457683119702768 -0.020330741137552084 -0.46198995708723656 0.29060690522413823
Ni 2.340573829152977 2.8654172350555593 1.900926400336087 -1.3333213918280586 1.188472895920379 0.9358229295559883
Ni 6.798577348555236 5.5440553243397135 10.298903201536694 0.2985845241129761 0.0765589675026617 2.4246292139596504
Ni 4.943812855931836 6.357561666970737 4.529015931692987 0.07860016630240656 1.89247462293187 0.22548986100983104
Ni 7.852038327816572 0.951886239237436 0.8654746618147434 0.73289655566897 -0.5311318061902207 0.6265274467834113
Ni 2.428569058478495 8.184108872880877 10.524476668078432 1.1264789707160858 -0.6640465267747919 0.038244388193179296
Ni 1.3575109063880133 1.1993798456002986 4.057554050604735 -0.3355479887112028 0.0379530822050056 0.2129333645010591
Ni 3.3519383252493276 8.455942581523116 5.8741413878060955 -0.4179551874645253 -1.1121144744642977 0.5751331514718353
Ni 3.585187493148577 7.158631050838001 8.002258621233995 -2.296103880692026 -1.8631913005867202 -1.0265399337265868
Ni 9.49694787166111 3.2515342326994263 0.8278416233386194 -0.7122125449570573 0.33325662157386476 -0.08729820829703674
Ni 3.4969487691484673 5.819419705763532 11.83665073909343 -0.9190377396778494 -0.06530396341413269 0.3328560437013365
Ni 5.855241518467886 4.223771007624852 3.952106808736848 -0.08848271552344117 1.0060988922634155 -0.9678969272723975
P 3.40999307477986 5.968138760860299 9.694155145130892 -1.643129552570996 1.1803379255180704 2.1326912486289142
P 1.3657897253241307 6.789521219696384 12.496843469421739 0.325781139132426 -0.07523999158092204 -0.08110262100928613
P 8.932499120418209 4.962234164582677 2.728040349204869 -0.4922904078429909 -0.41193212119889694 -1.401213941904974
P 5.718950056955086 8.720415258848853 5.1230998578696525 -0.17742540140243634 0.1470241634027597 -3.1120131299088016
P 0.5916592811285197 2.27825792281709 12.223336203150671 -0.4516952600294479 -0.10979793206144962 -0.027685124620094256
P 8.870567186453794 4.9999571087848045 9.437863888871437 -0.5229022191915769 0.9625955696641423 -0.4970248372041828
P 9.225376388053045 1.676629407799999 8.416042233019352 -0.35179736069052964 -1.606681079935975 1.7141979292727318
P 7.054686920326728 1.3342571649645076 7.008851857388781 -1.7553931725641185 1.5082865046154605 -0.29684748681721135
Ni 7.2900900795781345 6.634087330688762 3.8031264651238845 0.20685861906188893 -0.7535417427231473 -0.012506359997126848
Ni 4.842987330291296 6.932696088356295 0.39213225262426044 0.2115547389859776 0.032866154600401466 -0.8054659423962643
Ni 3.2707422164527933 8.072307356524126 12.835595133749647 0.5073843260616357 1.1445160307234548 -0.5634708846425586
Ni 1.276090033276471 8.573859560284035 7.732014183602457 0.32312544667713383 0.6880092082379764 -0.6690663485868865
Ni 0.022409002206268503 8.18246996641728 10.806030496826775 0.044677288302716604 -0.08966568008794881 -0.49206569342669443
Ni 4.459614330326481 9.65793531228538 10.673539425273564 -0.12264676299965972 0.17285860796736036 -0.09059821920454719
Ni 1.3139534551754781 6.7063584231435325 9.190221376149882 -1.0833286605808568 1.421090883334559 -1.513967871270954
Ni 8.153194414387526 3.82005683715184 12.491539031587557 -1.3433525508118154 -0.8955180592893545 -0.04474182299206488
Ni 1.569519846519034 0.9859286677813118 9.825370679196434 -0.5657380834101805 -0.3376046141299154 0.8971957041020935
Ni 5.669633020170479 6.142864920239416 2.315627799741059 -0.3038357452095864 -0.7020479457192297 -0.5126797701326202
Ni 1.2757622519837517 5.392442428687223 4.122003344897237 -0.2160559692904408 0.19748746225963407 0.4673257674778532
Ni 7.796231221436118 8.057744501947585 5.771764988392002 -1.693942007237173 1.2839646957718016 0.7598445450127237
Ni 6.263141924307916 2.625397042166703 0.3585805595014848 0.6858772494966382 -0.8996035422126378 -3.042107920277232
Ni 2.4973937647698135 0.4748960925179738 1.8630536132572881 0.2511692680538062 -0.6868419274027525 0.9128254402195506
Ni 7.3357359658842825 5.548597436538827 5.961385529712297 -0.9237382304773123 -0.7051517814555339 0.11267653916082529
Ni 0.18351631713187694 7.931473782812214 0.2698679574039008 -0.28242745473713937 0.8052844225130776 -0.2600632281093263
Ni 4.1518183312830095 1.8326345727749325 12.907707018147955 3.7295399158555 -4.689486735042885 1.6913112544825453
Ni 6.1953380226139245 0.9148572548578954 9.016952438746397 -0.4333491534220924 -0.11988436976317418 0.06129947024042992
Ni 3.122379038188122 6.117148136530617 2.646319790339983 -0.04293896545537121 2.2942778832268806 1.0161992139222111
Ni 5.034627004374743 5.102505827507072 8.920058415582533 1.2854279105808895 -1.0480412981334724 -1.1869518312901621
Ni 4.761660108977673 3.033662690018621 10.26798031438153 2.0110770406588268 -1.091222718616953 -0.723630814096328
Ni 2.66161219242232 4.941406004725296 7.881501183442166 -0.0038034329064902243 -0.5431123755908647 -0.03193284415285468
Ni 5.484183729929535 7.584166090226345 6.808416406444699 1.168208232134072 -1.0574222251277403 0.0605672200600957
Ni 3.805156836102787 4.18183373251633 0.18257886263469894 0.14122324045026644 0.8471982891380442 -0.1575731425631996
P 2.736159023566543 2.8262145924462985 9.833060428323636 -0.9909707783727257 0.18641423516460798 -1.3916633221020613
P 7.649338376398788 8.148324520895692 9.645536750758767 -1.1124667155973937 -0.7564226638153683 0.46586666643382346
P 0.38893310720731744 1.4646298328487704 1.978397040611369 2.514780575434766 -1.2578841966346659 -1.3879604193291775
P 3.0219187545594686 2.2061366732389915 5.8824754613029855 0.8261463535637513 0.5636161519711712 0.32862400789785984
P 9.078399256397589 6.644941574067676 5.150568866717532 1.953947128415054 -2.2401461343794837 -0.8686492599229685
P 0.04605046207316261 3.0567197626664955 4.969116635211809 -0.2687124191438921 -0.14355317413502375 0.2097714218333097
P 6.336593029416476 2.2786325300087693 2.974038336354951 -1.9361198704256462 0.14287877377581845 -1.0874925621505593
P 3.996478094073307 9.078717672510516 8.128636103418996 0.8301863279610799 2.777811113702532 1.1505046442067217
Ni 2.16862912817208 7.588361690773156 1.1565079255485367 0.9445641660837281 0.2929082996638052 0.4463283392905797
Ni 6.9788195988318344 4.096788534825288 1.6824105332855932 1.754157757495121 1.459360468338719 1.6523906661579477
Ni 7.171798493625536 8.945394972991778 3.1631522214484997 -0.7273486292675474 1.3121128760712435 1.5933666222152558
Ni 8.95073312547321 3.29781695123143 7.194759104921553 -0.7460166379906957 0.9179877011467803 -1.1247912986010178
Ni 6.892238511654907 3.0232392449101386 5.565832176910023 1.0124209778267017 -0.6317832958657119 0.4714387612049623
Ni 4.266757182870076 4.515028099155673 5.806456423895463 -0.27912281584393867 -1.9113521765626629 0.8616738570463999
Ni 5.493399066844852 7.359261297521757 11.529918624474327 -0.5382231658193634 -0.013169961723054738 0.3725834441979454
Ni 3.81854904320533 2.974989838621817 3.876266646263351 -0.3754106292340954 2.5429747784807946 -0.6262484820904118
Ni 5.441637718134534 4.344694209098999 12.028575114642553 -0.013775970738169824 -1.3753499296540186 0.28357776629149867
Ni 3.177708520399186 3.2087166306904575 11.961466109289129 -3.6666882706366017 3.1953924627674066 -3.3690663675472106
Ni -0.040421052500198715 3.0085546429963017 10.133282806469326 0.06323242559708465 -0.603425056437993 0.4055035919647339
Ni 1.709763413904052 3.9129219599691916 6.0122927740255845 0.33740535363491564 0.016389239991300805 -0.49990318719324234
Ni 1.317765083350817 -0.044019154576280445 12.333497876525845 -0.4218979741623572 0.6264081475967277 -0.2073651263846622
Ni 1.9831049164928012 1.672799049265076 0.001829956131354424 -0.29186700288348444 0.9862661738082047 -0.5514203812359277
Ni 8.424232082747446 1.0110367148036312 5.408339821384122 1.3931784731950072 -0.45159807232995125 0.20775079185885514
Ni 2.4866893642675714 8.12414362667278 3.720720375098225 -1.6997020496494017 0.25641508983377775 0.24832999883279813
Ni 1.102197374898841 4.362150904231264 12.401539653786553 0.48092278943599753 0.6598417446648249 1.1059844503071596
Ni 1.6316578144388734 5.284106028853507 0.9967623077646833 0.06020469451435438 -0.4007005141491357 0.08876630820213101
Ni 8.358254391112892 2.0633364117707607 3.3292380659515284 -0.4751342077786785 0.4790736520424007 0.32343706438028164
Ni 0.37620020876213073 5.691847226637073 7.258413295449715 -0.527509121835969 0.3214647711452593 -0.44372458311914553
Ni 7.10727240485874 3.506829033829015 9.011222821749659 -0.4374284656977886 -0.30155671936742257 -0.23604166838374835
Ni 1.5469216676809674 4.862523095337383 10.194565733474159 1.131824037078083 -2.751348034414997 1.1618828041366764
Ni 7.38490315979222 6.164498485558909 8.246145696858964 0.5883360233153546 0.795867757184868 -1.3579636158567712
Ni 8.678271949784907 6.018148820949514 11.682613198392795 1.2089435050699051 -0.4282637684793851 -0.15925181581720316
P 7.747157679326101 8.065826652108072 1.428847353899543 0.14906690486440133 -0.6872283642078939 -1.304079978464438
P 0.7167893213652277 8.595230900569351 5.433821539080142 0.7855928576214213 1.5268632391763832 0.3684213424004558
P 3.9651609328488995 4.421348205696419 2.2274649336972647 1.6555621219073937 -2.032118177599842 0.4325719089364357
P 5.893039384108349 4.1641335427094734 7.157133558589262 1.1402911940088296 0.13460290692027138 0.23723208914742366
P 6.484693982646972 5.824870240402469 12.93790316735126 1.6475515928980913 1.3672689524180968 0.45389355323234737
P 6.392437596516101 1.9896886378865686 11.370863220441144 -0.9195355052498745 0.1570110994121425 0.24710178285265186
P 4.730005801280755 -0.1497801299671991 0.6120070072625717 -1.108238536448659 0.3679197201736889 0.3047790829594622
P 3.0025421975698454 6.145440344682213 5.471761755453442 -1.371471677645535 1.151656755533294 0.09958731007703495
