# total energy = -340885.1686164947 ev
CRYSTAL
PRIMVEC
9.12333882415599 0.00000000000000 0.00000000000000
0.00000000000000 9.12333882415599 0.00000000000000
0.00000000000000 0.00000000000000 13.35292857037874
PRIMCOORD
 96 1
Ni 6.285068187820616 2.3298179388235782 11.328384259436648 1.896431807807405 0.24898742991113895 -0.14855165579087964
Ni 5.165169211012417 0.8187038024254827 5.745138042027251 -0.44290388699006306 -1.658353311499286 0.6280225432716992
Ni 3.214435128005553 1.4183872565308397 4.7134106619593235 -1.445634377001878 1.1799219210265746 -0.400747051116355
Ni 3.864217573168799 4.593710630550056 5.121061516628853 0.2697866260446773 -0.005698850156990185 -1.9545703638213499
Ni 3.713189820546963 2.938846428993364 2.820618904487151 1.7333001973198214 0.28420357280095565 -0.1418665304612202
Ni 5.3019280615501305 4.952221357083078 2.333945337354816 0.0049797126027785205 -1.367910699767154 0.7178957113847636
Ni 5.503708948631026 2.882500687771154 0.7813336938405907 -0.35971995797171596 0.9937126027839209 -0.6560794494089153
Ni 6.472890366340957 8.249058482290542 12.31294945124776 -1.8339367745969772 -0.11289945380490879 0.11382145139854591
Ni 1.9352609001841847 6.652328196386038 0.21294876626323092 0.8678681587825698 0.6016929042382347 0.38842478210557624
Ni 0.3002937884965841 0.4698510424821352 0.5476129095050272 0.9245419573255302 -1.5212106688762963 0.17167692895443334
Ni 8.099070790306552 8.974117596952565 6.563859178796698 -0.30490378146278463 -0.5745543961502299 0.25771092582706584
Ni 0.049849923905141307 2.662673836289752 1.3236368200892503 -0.09964027480215742 1.486843504250336 0.20467909491206687
Ni 7.174265293144681 0.9823737658004942 4.627591061994811 1.3064865310234015 -0.3314360234253582 -1.3256775021295555
Ni 0.9839977201297614 7.460427941974963 2.360143917421801 0.7249161085666548 0.9999336439929682 -0.8540176260527228
Ni 7.980941797860766 4.308551549001906 3.542158234990572 0.7789930929167165 -1.3157013647534501 -0.2714118203529261
Ni 8.008311814646166 4.190094116354696 12.615152754582072 0.7170580459748167 -0.198413059397697 0.17440358385697707
Ni 8.252954148012998 7.826374189734686 8.898378374170115 -0.3799116024282425 1.3361688885791827 0.6689992427943768
Ni 6.848288393230571 0.9807589348101556 0.17229790499966247 1.460432104136343 0.20930785193332985 -0.3586141265020469
Ni 1.9653496719702672 6.759636908862662 9.485666860007257 0.570501823347411 0.5067934865551723 -0.5745603096875007
Ni 0.45323379295782623 5.144158161460158 1.290521836780595 -1.4764971280190056 -0.591306418797588 -0.30541054589587396
Ni 6.765329872354025 2.2442592663524183 6.6653681847164945 0.7725301109001922 0.5762736928341817 0.7362991535926158
Ni 3.8401593284144324 4.497432034837949 0.2559525366364509 -2.1314566048908645 -0.36596131089573747 1.3584611243184799
Ni 6.20722786008294 5.75124338043818 4.439475111960973 -0.18828239872159833 0.48314550811892926 0.8586229860352181
Ni 5.309473062843972 3.1892273425462 9.005295695406707 0.8915151087775485 -0.8433313499834701 0.09252731790646
P 0.37756755688680305 5.918711389809113 12.238506654927045 0.233707620933933 -1.0345370929994506 -0.9558155706278313
P 4.256621503821074 6.3182406481645215 12.60404326476888 0.4835573988453672 0.8240048817407163 0.22427450054549117
P 2.600425294780825 8.5670707073201 1.2625150109379886 -0.7366148850608217 1.5952936640346398 -0.7533350260289801
P 6.625578566647773 7.729529947009014 5.393968866329966 1.1611263855866263 0.25996038398287485 1.7833094393584126
P 4.72458492747891 1.4442701690708994 12.425473976589789 -0.5187737988455001 -0.10432739586518161 1.3748580776192645
P 4.553905502805157 6.199546008705171 7.8150019477603525 -0.03362360159171629 1.3123105939043462 -0.5467492010125036
P 5.068543928421027 1.2842559276045244 3.497012304636948 0.45101726012581683 -0.1325714783125394 -0.6438649096205943
P 0.3847503616251848 5.897472256783643 3.5937808236495146 0.36789812290713414 -1.4796788681810968 0.5161993532501046
Ni 0.7245865257055287 0.2593655777295903 4.589615163705068 1.264233021670829 0.630911691894036 -0.07823326988129108
Ni 2.088140690608499 6.783184246637034 4.711207375608099 -0.0009047712024565063 -0.7733289526524036 0.6918388663967118
Ni 6.279065030805685 5.846171721988875 9.128929710561929 -1.1005607081884272 -0.13704211248938333 1.661699088043067
Ni 8.840360324922317 2.6993405354432594 9.882555824076768 -0.16943929787316628 -0.5931421864547463 1.551249895550864
Ni 2.686659094332691 5.317091050849243 6.942187622150135 -1.1192847669604917 0.8422836254452463 1.0373915317291103
Ni 1.1719932420897432 0.22819112861102003 8.870857822292395 -1.2364077719284448 -0.179913972152245 0.5371471591463652
Ni 1.1716374318715332 1.4663212792610032 11.185641410895753 1.715138181698814 -0.2967906654373469 0.2857673177436498
Ni 4.092301046380463 6.936556697363486 1.492643936737415 0.4851437694958806 0.6839481507947253 -0.7401792053733123
Ni 5.817533561092419 8.130418582864763 7.422025071423369 0.25594740616873984 0.1092644281554828 1.1524039181119636
Ni 5.799286883235486 3.131011316843655 4.438820968559801 -0.34900668531926987 0.3800527559917971 0.06800902105012158
Ni 1.1724950257308089 7.752256184279823 6.976290663064743 0.2576746732724917 0.9020003245795885 -0.6275247776996742
Ni 5.596411195483174 4.458429760918754 6.907189581686644 0.3292978940364329 0.7586253278936418 -0.05358256121214643
Ni 0.4419172033509563 7.915281127592593 11.0913836347563 0.7256912961697825 -0.5006480357790668 0.29464148030482806
Ni 4.932779521826516 0.6781970842559548 10.336515834813298 -1.0834916685212823 -0.8472615382758117 -0.4918440643341917
Ni 8.772008269670245 7.500871703444856 4.850892080940172 -1.4828066151768011 -1.957016254258681 0.04464052152751022
Ni 7.45718003331643 6.215119548256063 7.345165502620503 0.4750478187124593 -0.42666917029875556 -3.713161474497476
Ni 2.3268437303328984 5.347699852954247 2.653226618829325 1.615536987664708 0.08597846104434871 -0.24209790188015723
Ni 2.5196563752471106 5.539271723774188 11.546437533830355 -0.04654622319065532 -0.013323456581783506 -1.5487813794057135
Ni 1.52887089095457 3.354286790440017 3.6520123590282383 -1.464931791778909 0.9936542387421596 1.8376101096835065
Ni 1.778877747611339 1.4001223319960496 2.4808940451417345 0.14327395233170812 -2.185620492527778 -0.4840304818270437
Ni 1.2026932775840333 3.6100413506217204 8.316965318602906 0.583372508662492 0.3040838566646505 -1.6896094413000902
Ni 3.9839066565713517 2.732458255753593 6.782914195804751 -0.11603080034503889 0.13600390103285612 0.4484734106580406
Ni 4.389986472277398 7.26625591956041 5.59135230404734 -0.20270757300799283 -0.29424578752830616 0.6546121208347694
Ni 8.601392708368993 7.347855062936614 0.05431762297841139 -0.7924008816821903 0.8706873733989199 1.0576528530813076
P 0.3213650520857705 6.254030588785973 8.056036000580974 0.8010775835205817 -1.8704173860215145 -1.2399265837149807
P 8.702889853948182 1.4282860792682261 7.734029577768533 1.3329316125888075 1.9070679473650125 1.0197704762132374
P 2.0609805106184536 3.7159541922422887 10.25932235180565 -0.6213240482056009 -0.5966273167898692 0.8219623973893908
P 4.116788088064467 6.347043029161689 3.598187396351964 -0.03953791019362223 -0.6488803605573148 0.3974506397532704
P 6.969765651063104 4.275753145554068 10.640601282968554 0.9156677947643521 0.11184041641277513 -2.932973847052026
P 6.462234306472509 8.235172760441417 10.071846860164591 0.26752714058653926 -0.8081884835337501 0.06687542166631064
P 2.668631376610041 8.693355964767935 5.686905594314634 0.037800358677225226 0.6009395710119779 0.5095895612430708
P 7.310896416937397 4.081243559599161 1.4125528812860855 -0.551628897702308 0.5737843507534247 -0.00983935468792499
Ni 2.7457874539280827 1.5195924552643194 0.10342034542531128 -0.2655013684057621 0.7443778168356922 0.12136609651502323
Ni 1.9668732695713211 1.3578630260793927 6.989564208871769 0.06473909204959818 -0.3441473003444395 -0.5961346934241669
Ni 6.997692191523139 1.3209226267580314 9.0084468966726 -0.6168793821706859 -0.9020985407203497 -0.012252077894475674
Ni 2.9448130926525806 1.9173882792233186 9.182262012936064 0.7480295546556666 -0.2887258861513415 0.2360254704338322
Ni 7.090522165120287 2.020199185608208 2.2854602649533735 -0.4630675064221315 -0.16645733242670685 1.9019735635612405
Ni 4.340811675452963 7.241732384520692 10.628797507062904 0.4284288333023396 -0.06872481617022358 -0.6043858776893655
Ni 7.232782389031866 6.405304671558877 11.335020576173214 1.1630385150076743 -1.2213117968272706 -0.4773810948313263
Ni 7.858679932880386 3.9154816146078524 8.301783170292042 -1.2337338246407072 0.5998807907301604 -1.19464122951462
Ni 3.1316681972465044 8.55535634013595 12.361940868959733 0.9965572713215677 -0.46133843954616677 0.9418639935437457
Ni 0.13294438253172194 5.372177771299324 9.87664025111555 -1.0021139394737386 -1.3829457397234055 2.4528794670545953
Ni 0.1758477961767288 2.3680447289338526 5.783247141065348 -1.1985858159846647 1.0595315581612592 -0.2358632338243551
Ni 4.063334445282582 3.325913206372486 11.13110847711863 -1.8983521647585695 -1.435101338681038 0.005549211953003346
Ni 1.4878432357932558 3.7646636987813715 12.676576546251866 -0.7423525588755473 -0.7558459653762918 -0.2128464612142076
Ni 3.435229053413372 8.145809655637086 8.259106927786355 0.618644958711541 1.0184376163344266 -0.5859320418595523
Ni 5.718162153483561 8.247443651300204 3.646911500233332 -0.6761106570281775 0.42878955907586797 -2.223722698716138
Ni 3.10260123942041 8.427483621714563 3.368689805606387 1.1263367887112665 0.6575555197338095 -0.27762566247312187
Ni 3.681641314532326 4.827952357538435 9.189258701560307 -0.30509250043482294 0.3689944412951065 0.6001150182281535
Ni 5.5718967837823845 4.517594613869861 12.15948394246424 0.8136772745624633 1.103713651995112 0.04308886076967418
Ni 8.232599978863588 8.682079517852351 2.6159860616572175 -1.0556887873764011 2.150566329137122 0.031978866899441696
Ni 4.750495210035754 0.6957759337033242 1.299228239120031 -0.3678832105087987 -1.5309422943417634 1.0954107885563715
Ni 6.2659730394433355 5.935872390333558 0.4847394192794998 0.2198979687443503 0.7104438830924087 -0.8130324418896127
Ni 8.016011912701792 0.5191754620649969 11.08841854960455 -0.09786981316529596 0.1854385015149 0.26141691392374333
Ni 0.3576713793516032 5.083688671042282 5.745698215037459 -0.19850356222897425 -0.23293937530934072 0.3108497146335743
Ni 7.696229759920111 6.421498598156905 2.466833155185182 -0.5801666001306847 -0.43260739016006144 -0.11771204470220371
P 8.937186320970133 1.9534254679907614 3.563630013158718 -0.5918129261203615 -0.8537931687467424 -0.5733261801700836
P 2.1639921304597696 3.3480829199686597 1.4300322863391346 0.07223462909569495 0.7745509979849629 -0.8944065713927306
P 4.995611957026866 1.1041429704787376 7.9968957806449765 -0.7012197933909795 0.410974385271318 0.07431413733254298
P 8.8194587554372 2.0276347068349088 12.6381061629922 -0.9131655971677886 0.06245235289795051 -1.344393076261188
P 6.680993727299279 7.931164860667053 1.180544547667395 -0.36288267197041374 1.5733744953640452 0.4991303135829597
P 2.070094726207992 3.492067454937719 5.834348787071476 0.5669395599174495 -0.45858581650169405 0.5824571959370742
P 7.409255133925194 4.187375361354013 5.655191955865392 -0.30316237329164564 -0.13540663376848935 1.4865984781190655
P 2.5257416423123975 8.812251317683712 10.400649258144847 0.2625201742902511 -0.2007836165124026 -1.1472779097393078
