# total energy = -381166.69429110753 ev
CRYSTAL
PRIMVEC
9.33696256309613 0.00000000000000 0.00000000000000

0.00000000000000 9.33696256309613 0.00000000000000

0.00000000000000 0.00000000000000 13.66558850573086

PRIMCOORD
 96 1
Ni 0.38215720564944167 0.6908988090486483 5.477140618734408 1.4020904309726563 1.8003599670827963 1.1672911196364413
Ni 3.524778030279125 4.346215978004382 6.204300455253711 0.22763956036298216 -0.43615371275042303 -0.829870596492874
Ni 8.943680279267559 0.09475522998846295 1.538636178979229 0.23095628344104094 1.6309777476998102 1.086845929705496
Ni 5.018327884855661 6.9567466535497235 7.460946362022882 -0.6747263750861412 1.0500709269689914 0.15792255548281836
Ni 4.007377609760982 4.772112184371272 8.648581845437855 1.4142363223065708 0.7367925482892665 0.48489180138607463
Ni 8.438765359468762 1.214850861639164 3.6595216031585447 0.4475547554985131 0.9904992380529459 -0.37296936678245446
Ni 3.932803290467512 3.0649419653130403 12.962944775956364 0.2716031104281258 0.8041791052640409 0.65348572053981
Ni 2.843207780439955 5.306634612180536 13.199701199756614 -0.42532782577951267 -1.5035379341868815 0.8526773099747443
Ni 0.029873611441023924 4.620143783116669 1.1188799591363638 0.9266173517973202 -1.0520884716196526 -0.3824518523515929
Ni 7.818100115858628 6.967792280158485 8.662424826004338 0.7902861493320325 -2.212688038168531 0.004285514749231329
Ni 5.250174000089936 0.49150890907617706 6.675448250259115 -0.39858423913708124 0.0025304797313375773 0.7299354161581171
Ni 6.920416532556748 8.814157935804554 8.244695660714948 -2.329716169429833 0.5884743486654317 -2.0549246339713965
Ni 3.4254234125751286 8.303706197257663 6.115077375532104 -0.2817574252533083 0.355379164504517 -0.818881444471222
Ni 2.080779435561164 3.8415251453050026 8.023490881614237 -0.34466846295523224 -1.7381796368993097 -0.12940593610036422
Ni 2.4070689262372142 6.048615009237528 7.3857315271035775 0.33500651438543594 1.0239860569564816 -0.2909149233828603
Ni 8.417028910825316 8.365796997721112 10.954800372582467 0.8547349638347215 -1.3689591956363263 -0.2678611268871903
Ni 6.312720329825371 7.982598720755631 10.181149932504121 -1.480219056955283 -1.2038982293365137 0.9493374191026553
Ni 5.939764700695739 3.2230540878766596 6.268856213810748 -0.4004146074776007 0.5834781810024209 0.047030104805609325
Ni 8.350008194174693 7.7324241481815426 0.4399474011965814 0.30980738941198904 -0.10610557081152694 -2.6183536096324262
Ni 2.2780694526728493 7.091497695999124 11.71433332539754 -0.7826898250420133 0.18400973948817342 0.3416057648695085
Ni 1.4731952763794955 2.8158411434236585 4.5355677096192215 0.30996602647704036 -0.9670983426305021 0.05091838411642199
Ni 4.017592246709405 7.5581964283848535 1.8295759297222534 0.7606760397750835 0.2599673259614103 -0.5046250181489439
Ni 6.117521792308245 3.436618430583501 9.199633497917862 0.2529502712136289 -0.4594970154620538 0.9449382615936951
Ni 9.130456876631598 1.0932369253930827 11.317963395467576 -0.6092581181800024 0.6472734210815111 -0.3481569357244649
P 2.059509835041504 8.422164240186955 1.1251469283500584 -1.4502736755461023 -0.2893879452153726 0.31136830614120564
Ni 1.794694905305508 4.502273968823346 10.286567039943595 0.4238160171206765 0.6166212434132928 1.3372778053726453
P 1.8049935749162123 2.8240203225523777 -0.17544152491853088 -0.38287994102794703 0.7991330581997012 0.4576856732849279
Ni 0.8801151547075894 9.436587865322597 13.074565361264696 0.6105223296044066 -0.5029592004107467 0.6550862322577105
P 7.233634275766809 6.99274998085605 3.6786399675238024 1.0448186774311168 -4.369705008027003 1.1124296917118712
P 2.1611800194394757 5.836880711175926 4.877125935031795 0.29493561450647915 0.2783121470171852 0.30356603648796754
P 8.259010157886454 6.249873235401388 6.556434658062518 0.037900117479883116 0.8396161059154119 0.9024968046000328
Ni 5.029261467914714 5.938709623935984 13.380483467211247 0.4062700378171132 -1.2358889233104975 0.9960476786750007
Ni 0.32691786825066504 5.295196833147795 8.690890423504026 -1.2890811910627604 -0.7832251287201931 -0.7802272224341337
Ni 0.9276365589239468 6.3992926459001245 13.54575517260124 -1.9233900815638036 1.2427195730790854 -0.884439947098322
Ni 6.171974957466567 3.7394254606331483 0.5410508319722773 -0.701814746662501 -0.2287975852268253 -0.6282927662139501
Ni 4.174145096539582 2.4338473346175418 4.511980675013091 -0.5114962913474804 0.41267671267440537 0.3425444746336939
Ni 4.436971253268252 2.436807151722341 7.867019263357599 -0.3922642104563244 -0.2767383747721621 1.0844000392681648
Ni 3.0197417299681435 6.940341610479907 9.581299579341081 0.3158651655702947 0.13887402349179953 -0.9672875758231728
Ni 2.144578900157669 7.684002660782526 3.6127854374863944 0.7323882485739838 0.2986027789454212 1.3425614223690878
Ni 4.456690918016945 7.86872512640191 4.07779791444901 1.0893825800844208 -0.301029643219359 -0.1406822803451319
Ni 0.32352108130200297 2.528430764496451 7.481172090137758 1.0429420292336942 -0.7704215491976215 -1.518124830862121
Ni 7.634824879422979 5.590151477755373 13.730909939583249 -0.9396109358435109 -0.3073057060360579 -0.21180644998546752
Ni 6.860295831175672 1.017560844527479 9.697525154542431 0.11677333493801823 1.5832629581223507 2.2147472346904054
Ni 6.325577327154419 1.29802452337276 4.852760197755191 0.8441924124321848 -0.3636912839146382 -0.08489371262060218
Ni 8.396058093104878 8.664411731619168 6.60591775809502 -0.8128918025466904 -0.8610817319883557 -0.8527094487642605
Ni 5.39605470181038 5.606901988436791 5.209076426056866 0.31312205560751877 1.5636960917340168 1.038676826199437
Ni 5.685556560332144 0.4821523389792713 0.7789015477746801 0.21741891107623845 0.04871237760403868 -1.0609837172267536
Ni 6.869380695664535 8.751497580630087 3.1524601156865826 -1.0398073402594543 5.0431527735110375 -1.4055475362833214
Ni 6.332299940136929 8.029871761770135 5.490081648725738 0.3217033695186266 -0.518335682866817 0.40797082255830386
Ni 0.6472401062084908 4.784128855077507 5.970672847579071 -0.008626308216430305 -0.12634683755906628 1.3347128728589464
Ni 7.433305218309799 0.18248252832146136 12.742300214604192 0.234181475246558 1.5212649191529994 0.35125048704812406
Ni -0.059989983906416224 2.7328168730896736 9.7303221689346 0.12287533407069806 0.5443673310438882 0.4689833576859343
Ni 9.300566995976501 0.40413828270975066 8.451373993595956 0.20323362071479192 -0.1828900240614334 1.1390346958939093
Ni 2.2511509898553865 1.3332528827936019 8.747083064771571 -0.37725333886978896 -0.028913340600240527 0.4138519639294292
Ni 1.783201104497913 2.2859498490023458 11.443946096456042 0.7185012061792464 0.47078055879567304 -0.43081481703601293
Ni 7.4573292227597925 4.203649897962815 2.460899315998407 -0.057941352401474404 0.4012281045178316 0.8311165530848331
P 3.1753982314006515 0.5916525001093704 4.394320008679224 -1.1925743196832623 -1.3661703200372795 1.4059823098278945
Ni 7.380943532746035 1.5327090751996506 7.3489569666967585 -0.20749368154272652 0.6342674957401464 -0.002234031536841314
P 5.5905342932168764 5.576015316567153 9.925220989956257 3.3061093070986995 0.611271034844973 -1.3240008857580812
Ni 2.7725176375363785 1.7627718306010662 6.5147273803797825 -0.8255629702564555 -0.6227579524386501 -1.9212900045016652
P 5.754304615040774 3.8332992813639044 4.177761302106423 1.580634262250252 -0.6786226248167538 -1.6983337085469652
P 4.006471924400839 5.369350989129859 1.6071685498546697 0.47629171842188944 -0.6018476846485441 -0.9873308676272932
P 2.3135405731180594 8.366497269906791 7.859899829469872 -1.484992052863894 0.04254610089232672 1.5081283817710414
Ni 4.415832370223252 3.1642498982046576 1.942604528971922 -0.18122009255817823 -0.08453298684707378 0.13295200158040976
Ni 4.572553285377991 0.5868953177279979 2.782641705948788 -0.4487575175573626 0.238830286872479 0.299734064336387
Ni 3.702628491516388 4.746220787426137 3.709113945652014 -0.8126927991620068 0.49071355027417424 -0.20064426272106092
Ni 3.028070300496474 1.3010403622524134 0.8021580539091707 0.308273726376282 0.07231998972064964 -0.23845979090693775
Ni 3.521528767337579 8.55783964192145 13.311882002813489 0.6069166145310192 0.12252335004791803 -0.4158278567088774
Ni 2.0490431001062372 6.220387107903107 1.8918095857115818 -0.7439481854974412 -0.9843275620245949 -0.18946716305831884
Ni 2.0983235880530176 3.637783287122604 2.00565703657037 -0.35274044133008925 -0.7768904447514169 -0.5327960812665211
Ni 4.087684824014537 5.517481898806947 11.196968499833634 -1.610920314828303 -0.1988935985785413 1.2417885766243841
Ni 5.970305904953775 4.076181686244466 11.89901003990079 0.5370923946490299 0.21694557098424574 -0.9067229268662383
Ni 4.323022963214727 8.431193082900963 11.210934728304796 -0.5597250444468812 -0.2569023138828414 -0.79717130648764
Ni 0.456296422491544 4.700404312557843 3.6054605904242027 0.22244516064623623 0.47960407062457405 -0.8174814787999017
Ni 9.004837383483439 6.644780063311408 2.3429650766640018 -0.708788863987489 0.06359495114282596 0.49537676007779846
Ni 0.6609897171502167 7.518710414075088 9.264626226318763 1.1479674796071648 0.9530115255201329 0.006853789697039809
Ni 7.397796750014686 6.048120150226316 11.433314097284953 0.30525088038955817 -0.1679395733991882 -0.8067615212792364
Ni 6.359601218415895 7.35424915702799 1.318655475659082 -0.7120955597632188 -0.603814835677244 0.8169585164168962
Ni 9.42407633560515 8.382211377753405 4.007501791361909 -2.13491036776742 -0.6491277006814306 -0.47766031663464187
Ni 2.0596032046662613 0.05470993162640403 10.7628258882082 0.17899917364745946 -1.0792799444327799 0.09925203822480326
Ni 6.080948910290901 7.6925459814477986 12.596843410980146 0.4037585842491691 1.1014814202304837 -0.08998243999741923
Ni 8.25771232010233 3.0638588776658584 5.749605321826751 0.40375807002853686 -1.4443650233711514 -0.9116836133056234
Ni 7.796933221926201 5.034434145126255 4.819278784013553 -1.3156334876299922 1.4912362340013932 -0.558738769274212
Ni 4.164303938090186 8.880963902318236 8.804848050520027 0.6788167431054309 1.2176533741390771 -0.06892381955490712
Ni 8.064614599142239 2.3967515827015586 0.49645283070706386 0.39339215341318057 -0.6195944671090039 -0.0819845093936072
Ni 9.242210980503332 3.959749764172402 12.19534842234727 0.4715225791680202 0.44110025812242093 0.10778732938932403
Ni 6.387350670893695 5.227550540011299 7.656802221698298 1.0418153718284189 -0.45176493692511877 -0.3572290732290622
Ni 6.397490612142313 2.0596312155536887 2.585296600758496 0.5995612026072127 0.03962969857648013 -0.1379160304539044
P 8.032159317576681 3.6875773080055487 8.231494129470548 -0.5786085116149454 0.0037988049207999097 -0.41739031609999083
Ni 0.8555570760039853 7.371559885457949 6.195404197406858 0.9062657847241619 -0.01609536289996583 -0.687434566681429
P 9.275301175517237 2.8105190748125053 2.373247647061462 0.10372601483575686 -0.5437260979154636 0.6041557639564304
Ni 4.322481419391136 1.4990213145873004 11.353931242316493 -0.4291783098738544 -0.7196823709715412 -1.555984839132688
P 0.26231635857749724 6.1550190336106825 11.012263774442957 0.18562130694966741 -0.2911180405326018 0.27657253861825914
P 6.098623780257414 1.9847020916861413 12.431011487841612 0.804777400969672 -0.3232411463193917 1.1318690313834054
P 3.368953463522054 2.958509930052458 9.809883359886346 0.07510835109906419 -0.5063355730821473 0.17392150201423595
Ni 1.7588596433237451 0.615702648054296 2.668479599454568 -0.44853665979580815 0.5004279493484608 0.9493690436715392
