# total energy = -381170.4328281702 ev
CRYSTAL
PRIMVEC
9.19744373141304 0.00000000000000 0.00000000000000

0.00000000000000 9.19744373141304 0.00000000000000

0.00000000000000 0.00000000000000 13.46138859277899

PRIMCOORD
 96 1
Ni 0.1547893009568682 0.6143239470862053 8.128699951677403 0.8991271167968515 1.2777701369253154 -1.299875196354471
Ni 4.319883018094591 5.840855109524947 4.874207440249001 0.1362234732428299 0.20256050590716726 -0.6826708267441984
Ni 4.44277006532594 6.921039704618024 1.9693070101879693 0.00034118538950263824 0.9166908367122277 0.08847525932427343
Ni 4.026043082090762 3.4405246093870034 11.097219100823777 2.1185182995626417 -1.0835973408612112 0.876342257691852
Ni 4.269011956180318 8.232438840564994 9.850209429756472 -1.3941027847814893 -0.664948469763771 -0.758225778462378
Ni 8.887857886501164 4.18640971299607 10.582011407347975 0.6497560782940488 -0.7502833836868498 0.5820956988325975
Ni 4.251030953460665 3.1582734526296017 8.537118883886153 0.3477113635466141 -0.6766850414744088 0.43466710090256755
Ni 7.4169474819265995 1.1254452162610624 4.418849353370301 0.9916806599555565 0.39671787535230385 -0.2516472361314892
Ni 5.714151123097355 7.766450348088659 3.8060733360834393 -0.7388910826895082 -0.49679369502998316 -0.9392478960771373
Ni 7.3009953073554135 4.566586054385772 4.865753149865418 -0.5490210277658157 1.2601372543349008 0.40980864709799103
Ni 0.5268038306773025 4.569198128438142 5.5679126856844565 0.12277711792993692 0.3315524943985645 0.14003796189291368
Ni 0.6702977508464438 8.725817320815818 1.2543979777090926 -1.9716432601432368 0.9968300653669802 1.8058680413852188
Ni 2.126550189163049 0.8071152465275049 4.54387848527347 0.2676394977946875 0.8305020594292858 -0.12713282379547136
Ni 1.0855742971870486 7.602653070628656 4.0897850469236445 0.5815146295181469 1.3176230072561952 -0.09725351973753574
Ni 2.8593841199541163 9.052749659778886 2.1227663607646523 1.0643947997908314 0.8815410282839722 -0.4420693069039096
Ni 4.803990474948274 1.2621928113688912 10.094251645542899 -0.8794188397346466 1.3437261321011504 0.6917537628820731
Ni 2.246199736160476 4.344973644907488 7.463828692700317 0.7831017157684512 -0.4974421272472595 -0.3667097590259878
Ni 8.45715998606335 3.737583650737061 0.5141049199586195 0.4894300555760603 -0.19575248184639835 0.938565782408448
Ni 4.894217399081164 0.47153731034885 7.965184115999098 -0.5318265182644002 -1.3940094537367347 -0.8628203119460172
Ni 1.298384752904357 7.561034637223832 12.806088531824779 0.8826242340458218 -0.05852962080477662 1.1248789732188176
Ni 2.1481089975389405 6.489118544148643 6.212700406278609 -1.0935487956469683 -0.13153738062107023 -1.7375047223194722
Ni 2.038319110344822 3.2546810590272517 0.5021813537561854 0.9776195538768002 1.0920948368092611 -0.051695628602078714
Ni 6.436371203689711 8.844363174551681 9.816933077920305 1.198994107166677 -0.16981467893471397 -0.8496500931126464
Ni 6.007356435475784 7.070571746672306 8.456471097519259 0.11137530385089851 -0.6740853990680327 -1.428615473846378
P 8.041113613672806 8.021118370750797 11.90626213158148 -0.6528434589701207 0.7591477760560151 0.22644425450330036
Ni 5.999832926409452 6.794206953976581 13.354464967043741 0.6270493807251524 1.3806379175258352 2.209616855442375
P 6.462675893090329 1.770360781324679 7.604661792364703 1.4697091585628945 0.5418363370919184 0.19265044588230693
Ni 8.708967603689269 6.696456520777361 1.151414198961288 0.20945234793099413 -0.7184695816103627 -0.6916627458301636
P 2.6027846340842404 6.428709732965685 10.081651147473371 1.1559839221537382 0.594497672041376 2.3291384425494916
P 6.196566250283306 6.0592392162131565 6.066482203242172 1.1439755848389526 0.7148088449293237 -0.26873067397633715
P 9.094947532146032 0.2848991008407718 3.1847492144857616 1.468992077891212 0.4526396262205882 0.9602895472387849
Ni 2.122724052522959 4.896995027122768 11.837675873074714 -0.9965428731438645 1.9574119470352034 1.0922653009488543
Ni 1.080193792536922 5.642015571010275 9.064023886445765 -2.7869521567718523 1.4402106348831454 -2.07517824201411
Ni 5.36565077831455 0.09015150509334925 0.7848381177872122 -1.7820822518195307 -1.035021745945353 0.2607710528096283
Ni 3.9099713407495735 2.415294741275988 2.108995947837867 -0.6897344184591992 0.4865879581415749 -0.981824078876451
Ni 5.837911927494109 3.1516880828356 3.5973134346360722 -0.9450704162961854 0.5452402205671449 -0.013212899145848212
Ni 5.9635398129916775 2.4831994691937376 0.791986371144611 0.12551302880386125 0.5233099961529568 -0.4070416258758151
Ni 6.492751534467958 3.9784830999611835 8.287100169088356 1.2231938443413322 -0.08893137302508555 -0.3864383478031667
Ni 5.5825908863188785 1.039375536746732 2.9096251569649123 0.018673665150103325 -1.9837778386232416 -0.3448463832939932
Ni 2.3832876366906204 8.845255326604779 6.860838755665993 -0.14632302357067703 0.1733463462370563 -0.38816355802438957
Ni 3.707121716717883 4.70946834453913 3.1111291949618782 -0.14846089584928623 -1.5375996517572807 -1.672837106937758
Ni 7.3486196715919165 8.52623278934959 2.2512822436299804 0.23279565064262486 0.9741616772351868 -0.2653147063162527
Ni 1.456038137874985 1.1969829344981282 0.08248083692547668 0.9076485240043013 -1.1278984767714317 0.6645604902967328
Ni 2.8433897651052784 3.7017412120677573 5.3137486829451 0.2066092220552442 -0.08644640181970273 -1.2679523795039453
Ni 0.22218908920745203 3.6936014742637195 8.303186498375657 -1.0978638780825543 -1.9368624050186258 -0.8671996719606355
Ni 4.816057521274712 5.385811575225793 12.235352190870906 0.36828584526385605 -3.590376900368372 -0.1394134409350373
Ni 1.8380263757024227 2.6068958914835676 11.785957726582192 -0.609843301259511 0.23429897466102872 -1.870324569197392
Ni 5.458443789280576 4.821925490448695 1.6314931754102617 -0.12804350853519883 -0.2609929390124473 -1.5439711025012635
Ni 1.2925351786180657 4.655065464187851 2.1193476708869565 -0.6926580198638974 -0.7361178908197451 2.962917428688994
Ni 3.193830770539668 5.511273906734126 0.349176356905513 -0.21253355795947912 0.26824396414790574 1.518902846678726
Ni 8.00083800706955 2.811888519931462 6.005071790424345 0.7795062851077091 -1.3757142549719727 1.8812615278248697
Ni 5.463759911823779 0.4770373817689792 5.340267672787338 -1.414144791034029 -1.5726908390334593 0.7963110153698737
Ni 1.801908013717728 8.449654871884713 9.18500154433461 0.2909192942582345 -1.7560575456209948 0.9609994288216159
Ni 1.599628631204513 1.9817088434704144 2.4357443379240076 -0.7314973613285982 -0.6627326930593747 -0.3306495229683209
Ni 2.340473535585768 0.4166230521197134 11.464701130216717 0.1932196881222156 -2.015026769335194 -1.356972455588095
Ni 3.535911299517706 8.17336365873976 4.307576838228147 -0.4315398681274955 -0.5086593361193176 0.4736054298389779
P 0.8256324602234016 5.182778002317175 0.20815746887542996 0.3863473307512572 1.547229461537561 -2.1936076244983127
Ni 0.07577773985024225 9.151898104442754 5.51591217766585 0.9074865445051403 1.337981002087257 1.1303489951944532
P 0.13201275101571758 7.6810612794189606 7.2221290658615604 1.9676323392116304 0.4092643445587468 -0.3035146144247418
Ni 7.93879205088194 1.7664058804707399 2.0776308248329762 0.2827843238559259 0.3769689748601508 -0.21415900937804408
P 2.138782789478721 5.749404925360491 3.9006120218915075 -1.2548924609961936 0.44083851982060207 1.2886651865712646
P 7.813384904036685 3.01147305139769 12.201685867415652 0.10203962827226942 -0.03203388850709322 -0.4562245153583691
P 3.243037095117747 8.676068347050803 13.335942234881538 0.15357533425771613 0.910489335887206 1.1195742731764526
Ni 8.71431131856401 6.047687226742116 3.667717108046881 -0.6761553942231839 -0.9712396184923854 -0.8930076341626749
Ni 1.998944853238512 6.959843720205859 1.7973911490447758 -0.18409998520913456 -1.06805090848618 0.7014956727601854
Ni 3.647126790508012 7.174705205900907 11.81340473850853 -0.7075987003341297 0.9807125909798271 0.565083223435001
Ni 6.396233558744153 3.8320046092638953 10.76203021651982 -0.0012122751405462993 0.8303737613815377 -0.2796167247612217
Ni 8.0271886836894 5.971881894560335 7.386789063554353 0.14753529871122334 -0.7568430391822385 0.024963354813557007
Ni 7.417526920888921 8.654012876707208 7.252161479253112 -1.3272178500334821 1.023638958029708 -0.0627696270280532
Ni 7.420994357219002 4.148746180445184 2.561917631841664 2.151848024063023 1.1349499843015745 -0.45461269078655897
Ni 4.510003379842905 7.386080860378183 6.501783424325094 1.0537036386255723 2.327235311989508 -0.4232801992218645
Ni -0.02124609528511465 0.8337721980274391 11.819489767357286 -0.7451910567656069 -0.028626919708073278 -0.9927664368205676
Ni 7.525909599174545 7.889337395320008 4.966323519347935 0.07918483516128298 -1.5497077478747248 0.6684431131805907
Ni 0.3361141471548984 6.679772357640046 11.049242474487956 0.7326091063355383 -0.8224614485129965 -1.1825665577382731
Ni 8.642856377321563 8.08977728906395 9.458200576858413 -1.0474334893461443 -0.7328235363391896 0.1854546994648161
Ni 5.767634259063995 8.726847434526611 11.925902353171018 -0.9033627521447539 -1.253687384944499 0.8975551443240413
Ni 7.356547868187488 0.6427008205854107 13.365799896840008 1.6458124987197977 -0.7872566184770893 1.0392180434148877
Ni 3.2156287124555645 6.665176014255857 8.132779018023268 0.33080121805483675 -0.07928742217741828 0.52614360894701
Ni 2.415018817960597 4.0074274557457095 9.854059479750562 -1.4001351070184984 -0.7329834589558215 -2.593606484594733
Ni 3.4070735061177557 1.8999067779008 6.760241713596321 0.5026920627922891 -0.22127608003879956 -0.9281574425909305
Ni 1.1685812279005376 2.0224075324906017 6.471091554209757 -0.6895927506750124 1.1437518988639206 -0.1859637778907507
Ni 4.641020967434445 4.874847582340709 6.947328758364103 -0.375907623475172 -0.31156936640841826 0.43458611115298706
Ni 2.570336052194247 1.4011293981121562 9.059501503306507 1.9045590649002295 0.5048548747715629 -1.334453962770605
Ni 7.721861140321457 1.5279713461974445 9.613706358690916 1.8262918564572095 1.2942982164873258 -2.8709287568948234
Ni 4.776269379195315 5.3673707003138205 9.427010205286603 -2.2100477723322065 -1.793839906576091 -0.14965594459865195
Ni 4.1756579011396635 1.4397494648230638 12.419921895257934 0.5760572059480015 0.5864681168686803 1.2887109522075355
Ni 0.08264915014786527 2.8795909040845906 3.8965872204643355 -0.6243327531249377 0.25574943122532084 0.5223502033428488
Ni 5.628808041646888 2.6997072973372873 5.853590810019016 -0.8315233016049485 1.514789595841301 0.9092006989827697
P 4.051749937641366 1.977294070424157 4.2343063215704255 -0.8410127291526226 -0.08887352320395663 1.1374778929297507
Ni 6.665911809763566 1.504940946806134 11.401270958730228 -1.8157536759300472 0.8438648538894371 1.8242946235215227
P 7.652797534479065 5.718621080806691 9.685711307075376 0.4134395589823589 -0.3402950164778849 -0.9752693084770687
Ni 5.990801036552317 6.497644574594228 10.756794111738083 1.271146975181843 2.4527102884665823 0.6615602700178284
P 6.78493593057944 6.520408248113994 2.097216781503821 -1.0682838504325922 -1.5807975273009935 0.46360820941694997
P 0.8218578292688514 1.6645074000968068 9.963622190081674 -1.9906051459577203 0.8759095410298077 0.6643460602930816
P 4.153859959223766 3.5744577866778426 13.351193436267588 0.6439456422598587 -0.5395351997625676 0.4732207928060495
Ni 7.722394592064547 5.826663453669998 12.172245769407807 0.19509607920932207 -1.2081608612676096 1.1124844562092067
