# total energy = -340890.38458952174 ev
CRYSTAL
PRIMVEC
9.10840684387475 0.00000000000000 0.00000000000000
0.00000000000000 9.10840684387475 0.00000000000000
0.00000000000000 0.00000000000000 13.33107410788424
PRIMCOORD
 96 1
Ni 6.351273709551456 1.94641184126283 11.570638443449852 1.4440968573114292 0.7618093820485783 -0.625779255763477
Ni 4.495536056051368 0.47266983073050733 6.211507031863688 0.04288060141361002 0.06179029383391938 -0.0784358728104004
Ni 2.6245236046730165 1.5279989670029506 4.7734308090784845 0.4812328644772486 0.44934192930592287 0.6988458938421642
Ni 3.324340701025304 4.295998192533699 4.769871243776859 0.17511500810170488 -0.30618521927836945 0.05872605308629886
Ni 5.140347484910014 4.123475863009429 2.9409277899896455 -0.6956389568690923 2.2233619729426097 0.07753804358647937
Ni 7.24988178007972 6.174197176724186 2.7619986072587146 -0.08302452062234734 0.003637082531955026 -1.0006268134052507
Ni 5.163610355381741 4.663640808371727 11.754580893176724 1.2026769553349028 -0.8747903398236999 -0.5548445764261283
Ni 5.584027079094941 7.922045753976189 12.557005100786279 0.5025300832931281 0.3367607780723813 0.13799110666621398
Ni 1.9486980513209362 6.612502811011572 0.23691603170671657 -0.10510129791672866 -0.607492027418515 1.242916262470924
Ni 2.971408161855968 1.5798166921844916 0.08358056069798862 -0.24114042306289438 0.5362758122850055 1.8896361250418099
Ni 0.5796744806971493 9.22371903363322 4.72613267525484 -0.6724586620978871 -1.0014410817764303 0.5898974542652035
Ni 8.685239143493032 2.456336876693203 1.478909209599907 0.537656494682616 1.60363972200649 -0.2788086270376295
Ni 7.013846531291804 0.7408085694419356 4.75255434113753 -0.9256732427164962 -0.36549054190690605 0.49546829135034026
Ni 0.8578215365872518 7.275540161488826 2.5124273554136196 -0.06221169764205415 0.3682580773497141 0.10305675668287413
Ni 7.867686783351573 4.07336140986321 3.8592792426770783 -0.6890551330039875 -1.0583439656110611 -0.9860046926167018
Ni 7.558911799408131 4.131099599338652 12.880643182629393 -0.07154865877226388 -0.983665502960564 -0.4483106598279311
Ni 8.120836728152165 8.67462784979704 6.947595625002394 -0.81346695832387 0.8032625069870424 -0.4183025435016151
Ni 7.0743992184085 0.9102203781102558 0.5760702842031546 -1.0632928249759044 -0.06923055216204851 -1.1383047597064204
Ni 1.8648460601060888 6.513886092688396 9.421669301879463 -0.12448921552503722 0.16302028172069988 -0.4334717950428857
Ni 0.09632504322110556 5.046749498626745 1.424758821486569 0.055819935183097406 -0.4061617943740231 -0.1484225864121831
Ni 6.422146221352752 1.9279673178856773 7.095436905146382 0.7394508118477201 -0.08455766943742211 -0.655321231086652
Ni 3.463198359733793 4.026790126886726 0.11395982925098457 -0.8026991782844047 1.1885459152501594 -0.14111371145559568
Ni 5.922185782749343 5.666084714208406 4.910740949504613 -0.2965073298689732 0.2234471195481894 -0.1864288904526273
Ni 5.44592541813475 2.679583922606294 9.129839597585827 0.24452836569852082 0.5587444257011668 0.6169783696423955
P 0.01931619788934684 5.681241102800792 12.29170363073262 1.1131873958135021 0.6918748618409698 0.7482383282323629
P 4.117546290308923 6.123062582038095 12.877404233240298 -1.4634428659382086 0.8519252623000682 -0.05213682990455537
P 2.2932781816325694 8.702016828461286 1.3424789412519174 1.199266386991457 -1.05794955838612 -0.5589953653697083
P 6.442813195941768 7.877032008529331 5.736414364975984 -0.6754398562133981 -0.5707293659771848 0.43266858241530004
P 4.868507089753907 0.9675222749092701 12.715164383933544 0.42428652899919184 0.42570937748864746 0.6852329310444198
P 4.150582481068889 6.119182400823938 8.19594373818459 -0.18896091284586164 1.0690880915014427 1.0762519562397335
P 4.657000779955952 0.995849419453934 4.004508231806465 0.427831823148289 1.0549521663206929 -0.7251297672393576
P 0.3984335843696154 5.460599061177018 3.637076931001696 0.5513411912585601 1.1213694174036621 -0.22032657164133668
Ni 1.2671797438401051 0.9656186179286159 2.670493732813505 1.001980756329984 0.7355188237831656 0.0705001629030915
Ni 2.062006629499592 6.2329190741130756 5.0185097947854995 -0.2129523906644526 0.8562146337040417 -0.812751163203768
Ni 6.221278530470606 5.716217384167837 9.389621373236247 -0.9661758308162328 -0.3816406693042072 -0.5830308090523573
Ni 8.868837295450199 2.363503996564839 9.98646702206703 -0.6276268504951772 -1.7592341435767638 1.5679810922626156
Ni 2.519066472988734 4.920224622462783 7.386628110136939 -1.1952361827861417 2.1131254106818442 -1.1076916628062536
Ni 0.6746560339438697 9.120156450522986 9.23071520074729 -1.6584206744021115 -0.7450542740774266 -0.44053050166188
Ni 1.6715747803333483 1.366434050625701 11.571918174577995 -0.7413868525281683 -0.6017625811339056 -0.8220971231950422
Ni 3.894390328461892 7.029257955269158 1.6779023904025374 0.8499910213918329 0.8309620297848398 -1.17548651096304
Ni 5.714568762572151 7.911571086379286 7.920310602517745 -0.016666919132719685 0.3467263739255254 0.6548509763184529
Ni 5.076206085590553 2.927687810147162 5.267213926321702 0.005300586277307 -1.4181202307420093 -0.6524955887123988
Ni 0.8168036491184464 7.311272440604169 6.950648762896725 0.43696849534223453 -1.0058348399687518 0.5633528710074556
Ni 5.318125365045947 4.546069495901463 7.287911199341097 0.10539723189059268 -0.6016869907009638 -0.1011831938092451
Ni 8.191144518743888 7.191852121592886 9.003594349504667 0.3252234668567431 0.18913240542671944 0.6788617374107534
Ni 4.446997357247987 0.30221602034646067 10.63867720961173 0.3269700172342046 -0.5220362716468557 -1.4942678217388652
Ni 8.212194046410358 7.1189211098986345 4.717333954473444 0.6752907322300435 0.5206121376058195 0.3448049885330965
Ni 7.296607905968507 6.046989170064772 7.024022443152029 -0.2383808580398862 0.2238332992430145 -0.3980813313587338
Ni 2.6478593423975916 5.168528894948982 2.4283886418633496 -1.8311844086628208 -0.8353159358781614 -0.2504498733892784
Ni 2.2496398055832176 5.317669944715647 11.542630093136399 0.4314773903206763 0.2468899239521619 -0.4949982936924572
Ni 1.2447821719959482 3.302917728687989 3.708105196555955 -0.39959751089294404 0.2622669206288644 -0.3911828044666876
Ni 3.55782559596354 2.429248475446956 2.343336162657831 -0.1073435569836861 0.15447419192290168 1.145974360436536
Ni 1.0332121033517512 3.1063036636908463 8.082123267554678 -0.05182546931172365 0.6371905829242123 -0.023700428940733376
Ni 3.539517698685478 2.8491278031704015 7.3109873474774005 0.4732894412604558 -1.8005443151794602 -0.4800265028739733
Ni 4.1362913911040735 7.150263137029885 6.19065697830189 0.5968440607863656 -1.0762375580620303 -0.8950601458163294
Ni 0.8382038504392464 7.73566953800419 11.892837397049218 -0.3792102054858437 0.2851150288716316 -1.097355313877252
P 0.15876499218656528 5.401913597414551 8.037104057063857 1.1683005347375621 1.571119123670965 0.01868703488654201
P 8.574444485537633 1.56715600700215 7.858227703091241 0.2353076184312012 0.5571017478914212 -0.6677517435405209
P 1.9744201915762836 3.348614604630298 10.528069273991756 -0.597590709144403 -0.47976065080709634 -0.13028833870531756
P 4.134351300496995 6.063493602834847 3.555357217773314 1.081679297902892 0.4965437838027061 2.290272361611914
P 6.827807326364228 3.8142181335158694 10.359030909994283 0.7138426243613125 0.37271559890043554 0.9102078000910453
P 6.2688426297671445 7.778387964986337 10.229932908964123 0.5438471968743602 0.4709836759454147 0.2802589863309109
P 2.3574104725454244 8.30268606604098 5.77996712200324 -0.09627675764656322 1.053648617017921 -0.058590041729066844
P 6.9819124577311635 4.036864024592964 1.6698505589628325 0.30419415699026964 1.1968950585458031 0.14078820979537687
Ni 5.406649968849673 2.94249807928852 0.5961297280715513 0.2404688509171665 -0.6387237317392871 -0.8501974809756842
Ni 1.3487364165902405 0.8613483116250955 6.9753908386012675 0.5330025408503724 0.22018593229841432 -0.343874249188711
Ni 7.219277533883557 0.6364207646931977 9.053145903122635 -1.8950297852535558 -0.9184939513592375 1.1573466068292195
Ni 2.5138200307836773 1.5020946586154833 9.268682682843746 0.3122604789381719 0.6294978422656449 0.3626530724581109
Ni 6.267767837787637 2.22774319610239 2.7082344155854705 1.2402140330484124 -2.387305794918843 0.8333259020313261
Ni 4.171030853899362 6.645857796002748 10.671804484437759 -0.007596324290019176 1.0496127563856505 -0.7773732979251063
Ni 7.9821339123559785 7.751172046047605 0.04331229509285712 0.46497732185033464 -0.6796592936113843 0.7524582798509815
Ni 7.762803481283469 3.887185578836545 8.323149012322023 -1.3150295354974062 -0.6957929659484533 -0.9352272049535183
Ni 3.2554264966442985 8.458530903069661 12.519677939674224 -0.9353495894639955 -0.6588130462899945 0.4103519211959707
Ni 0.20091505459649664 4.597313391466826 10.060094826866642 -0.09795337401803775 1.9009582349228484 1.4112620701695953
Ni 8.744817231102887 2.465017188188723 5.616314558831895 0.4185627391415372 -0.375749757741069 0.6591768573873164
Ni 3.93571516923332 2.722912612831042 11.292925858554856 -0.10742840338800855 -0.7378636698662583 0.1910933858078322
Ni 0.8957780885957801 3.653290805601039 12.545073998973077 -0.24654873856265927 -0.9276895018155766 0.5658789798634191
Ni 3.0535842062553114 8.336359845263367 8.180000383261447 0.3003452155578247 -0.25091292906862595 0.02593754580136823
Ni 5.53612596875398 8.029998589070516 3.576954160676803 0.047922020492259396 -0.636598200755852 1.2551881378597416
Ni 2.9892970724301544 8.515476661170382 3.490408813628561 -0.2040625443739905 -0.542803328990878 1.0355292817093908
Ni 3.586963388696138 4.21595351528016 9.391688070695151 0.38268942228369573 1.1032948192901386 0.46345548588916957
Ni 7.166694702547111 6.214620285241619 11.633414492619073 0.07531352513133481 0.31465494731227744 -0.8805007599449157
Ni 0.6239030814945703 0.5693428150839622 13.813792152688935 -0.79303645838366 -1.5938867563847838 -1.0597364750832137
Ni 4.5868205070567125 0.3065898771986625 1.825076935182966 0.3691211966809578 0.5401910881790115 -1.4899763934523629
Ni 6.027642914433625 5.836612302685961 0.5952207090922723 -0.04634362026154599 0.05761045142461691 0.22575854129018535
Ni 7.9702656585483584 9.144384812094948 11.201567629456003 0.10840593680992942 -0.41508480789526575 0.3765419146250612
Ni -0.010297053668084406 4.978755243312945 5.796897828202475 0.5342973484023961 -0.5467769689266454 0.6277389505930092
Ni 7.944607277139253 8.846567241298526 2.5366766663207767 1.2840343726674726 -0.14528558344509818 0.7739406180944736
P 8.522900012554272 1.653567460473284 3.4700515248641484 -0.7179088240108862 0.5710813499999648 1.0904745275970187
P 1.8788001390264828 3.3924442572183753 1.3925105078980216 -1.4348959075384513 -0.8335845550093514 -0.16679234716862243
P 4.400781302129137 1.0184109426169992 8.41357362974376 0.9777378246222194 -0.8241028407711614 -1.2278969062439564
P 8.731637366744003 1.7629229901849348 12.374649335490169 -1.54218881378986 0.4847773872953974 -0.14382288285664263
P 6.332373765844004 8.00258228518645 1.5213024664662187 -0.35737099812356515 -1.2470904484532717 -0.9786333398532951
P 1.7763214563023626 3.3316092094968934 6.044508950945958 0.11955269745536828 -0.8626963847736433 -1.3256008832553492
P 6.906358224934384 3.8088897156513584 5.827065781722212 0.5660787545790509 0.850777007628238 0.928482172920201
P 2.2598412209819387 8.571475144984076 10.437430609014775 1.4019796164264047 -0.8083450637162723 0.24083446178670137
