# total energy = -340894.03998274525 ev
CRYSTAL
PRIMVEC
9.03074867540187 0.00000000000000 0.00000000000000
0.00000000000000 9.03074867540187 0.00000000000000
0.00000000000000 0.00000000000000 13.21741352852141
PRIMCOORD
 96 1
Ni 6.398547411074367 1.9852024147695364 11.492725977281548 0.19876375786889638 0.1915430717507411 0.26998922897378663
Ni 4.813027876355371 0.32395643912741234 5.8862167767381735 -0.7247173622922873 0.10254562137441048 0.45225113253291793
Ni 2.592321594579689 1.5157479695495244 4.6661833856178365 0.3701018154266723 0.12875133323550084 0.5643715420799571
Ni 3.298300381419379 4.362854079806964 4.818315379773275 -0.39599770935682765 0.12272158210165314 -0.20770811154637778
Ni 4.811266880340869 4.644875333842355 2.6386981019277744 1.2584598666324778 1.005595727374752 0.19770446336644662
Ni 7.244331219967978 6.161354794044057 2.70775894716729 -0.37314703001089927 -0.38022219169012583 -0.5247235886710317
Ni 5.2751041998120565 4.580486094953107 11.429626329319845 -0.10840259437581976 0.6905581999120752 0.7186454450665947
Ni 5.331076780826862 7.902004531517543 12.577545579033982 1.0770862792155709 0.1645197490843618 0.011211809555419401
Ni 1.7346262280290072 6.337327965011224 0.2379502968539854 1.2120848789123642 0.5015250390673814 0.1558088515739252
Ni 2.5936039609081987 1.518403009694467 0.32061867437377056 -0.11911740969016262 -0.1685180716104775 0.07975150629803039
Ni 0.6530008021244184 -0.08801367772995994 4.660407318690268 -0.13079716002093605 0.34747327939387895 0.46356424355289194
Ni 8.356829163693995 2.266898561848404 1.4307189542954266 1.0423391055423725 1.3272906122529464 -0.009978451368950557
Ni 6.974257646584828 0.7037825087333974 4.9063832419959885 -0.879047572438157 -1.0958715302428739 -0.227037408002609
Ni 0.6542921992017203 7.291209836948916 2.3751167338514234 0.20839151076664758 0.576482209300562 0.16876566884490934
Ni 7.707933739970565 3.813721337992305 3.930118659176529 -0.7538399906898565 -0.25870311453700606 -0.4074825700679756
Ni 7.4511443980609195 4.174779705458088 12.759125941926301 0.8189688619787056 -0.911446814704469 0.009307650554171067
Ni 8.19369771750951 8.689196842246576 7.111550314324725 -1.7674501037286527 0.2620658603616519 -0.8913631565807165
Ni 6.905452371536135 0.6937917913444529 0.41301768371728154 -1.603052482044452 -0.9993443471484016 -0.08739179645210755
Ni 1.9294646332233318 6.408842464697613 9.223018852558733 0.487252074088135 0.3686529987952877 -0.7535263161041796
Ni 0.08371413822993592 4.891351560631171 1.4150162882953388 0.01982500514572715 -1.094699878532276 0.084397489710474
Ni 6.407948420567174 2.0561389465332174 7.045093033962035 -0.838174488372879 -0.351572132053601 0.5538950680286654
Ni 3.4457273554540184 4.082566729539699 0.41350173185254996 -0.3344694109350433 0.9055271067859243 -0.054075698798481064
Ni 6.15292007467203 5.7393569337276915 4.749492946301876 -1.152578496016615 -0.8518319312553136 0.7007485101815157
Ni 5.268520783942455 2.840206618180107 9.248594836213465 0.6682605648561394 -1.1233939040328589 -0.5699449224026765
P 0.2322139652211031 5.633028897446906 12.1435250828504 -0.32613569425836736 -0.5510727680885219 0.3306940030530111
P 3.9982375973170066 6.067245360879281 12.494421148700185 -0.26626652870656076 0.3905459422136371 1.1069527277577
P 2.226404684263637 8.414815601689488 1.3614865248288566 0.7242278242503786 0.3285396757141697 -0.6373021688014121
P 6.47910169030187 7.6985417612265525 5.826658988452817 -0.30513929451235833 0.8305956475843566 0.4686516853781284
P 4.6928918251711265 1.120029588218813 12.719236221435741 -0.1143510986497708 -0.09831435690188228 -1.1137741215549075
P 4.046985579297955 6.213877629020197 8.24370097357259 -0.38254672605824436 -0.9535789679878287 -0.8379150640639054
P 4.698147720968256 1.1571369350064598 3.830380360289499 -0.4890053093338159 -1.4249830193001138 -0.26536432860726555
P 0.15904954773035648 5.589527780514296 3.5610355683338892 0.8127087400016069 -0.9488748776439401 -0.03828295474059858
Ni 1.2493137879296796 1.0031626680973875 2.665965544831308 0.22297840744188693 0.2839099528199368 -1.608197002359869
Ni 1.8618243247688477 6.620712862114255 4.721762225985296 0.8756760848627628 -1.1470308267255085 -1.2883651388323425
Ni 6.034219912545763 5.485520646673136 9.1774054434836 -0.15507685850390712 0.6793237646488365 0.25987810868171374
Ni 8.640945551449205 2.438898203346948 10.375061542171444 0.1532061238437555 -0.3476319164589303 -0.25467856675864525
Ni 2.4651686515838103 5.371471320174915 6.866089143700166 -0.31465700419480647 -0.6601104249451792 0.7251721904415188
Ni 0.5084907599496985 8.782881830218113 9.022140682572106 1.7362561946243518 1.0379296636207673 0.5338350640539967
Ni 1.4644984701531032 0.9852456624934228 11.23993003248787 -0.28869991800941247 0.6712990945721472 0.7191031014293034
Ni 3.9644174430897645 6.912577632333276 1.6687649770866106 0.28649622548987436 0.6000065176747472 -0.9494814008796875
Ni 5.695837755297498 7.851134323570399 8.224958557529009 0.052711985681735025 0.05683474960085696 -0.38228395931516096
Ni 5.107231610511603 2.929656184968046 4.900065330140881 1.1776400669709333 0.3435389773364793 0.5041200534880673
Ni 0.9189057818650331 7.261607042407688 6.675111383614559 -0.1732105919901404 0.37067697120385196 1.5582047296021422
Ni 5.024329336598097 4.532614095605014 7.167419944803298 -0.5395544830362772 -0.41008838312193885 -0.6609912848882359
Ni 8.024335054658323 7.149183250692085 9.270508851232913 -0.44197109076314856 -0.6327130067688329 -0.18895397086732618
Ni 4.622587445822907 0.4392971627029355 10.373449553512017 0.08409435664775838 -0.16334295516744127 0.5101899138312309
Ni 8.28816838062598 7.10605239445996 4.838868460949718 -0.3889585431218592 0.7084577059003154 -0.4496527756781224
Ni 7.4056113626500375 5.992154684671132 6.922607181942027 -0.8178373194774238 0.6632713391716641 1.2556182834186247
Ni 2.3655324001581333 5.355956493749707 2.607927631567699 -0.9698568792122458 -0.8848736922016309 -0.29514618785538843
Ni 2.560181159627819 4.989271969786307 11.327865142703335 -0.5780348984996625 1.4892580272290998 0.2668864216787468
Ni 1.0456523411652576 3.2704947058878227 3.571952840548926 -0.1542772454207472 0.7242571348264171 0.6276841860956738
Ni 3.678106583378021 2.770100915305319 2.7595448730419756 -1.6621492882066082 -1.0540113996739784 -0.7241221519104497
Ni 1.3333358746934336 3.5487411069280235 8.397736649573451 -0.43941875665493996 -0.7794636047952318 -2.3788720623291937
Ni 3.5162394420244607 2.499494527743422 6.773421921117523 0.31372600774010484 0.436669476044577 0.9362852139043876
Ni 4.3701960785751215 6.999534712454534 6.1446298472806795 -0.31486372088897385 -0.8768665056264382 -0.48190289396107966
Ni 0.8789393000097375 7.512977935041942 11.108720477134478 0.5234814887338146 -1.0733651216102418 0.7459765287813798
P 0.2916110061779564 5.648579846867282 8.032196321482038 -0.09269443961194358 -0.15541238746645494 -0.7036155473166656
P 8.623489114033648 1.5553207107574747 8.125272636984972 -0.049181603930973365 0.9582699457055949 -0.35779805835865475
P 2.0237275891175774 3.1195457398241784 10.44116210795684 -2.125101609207114 -0.4060147272731975 -0.14202465330563926
P 3.985702917993265 6.259437756677455 3.8764299545313023 -0.48042270987112745 -0.6073904688436442 0.08724447224096588
P 6.888095272357294 3.840741338378929 10.283306425216827 1.316414845880707 -0.13510864291209634 0.392903129591904
P 6.22455197409272 7.867525132628462 10.449938189633215 0.6060038729087627 -0.029680557783568238 -0.47829872154958913
P 2.632156227502617 8.375658274925984 5.679284392761173 -0.5981684360247439 1.4376305328607952 0.905472342288589
P 6.798582490327808 4.066311381713522 1.8761723784500872 0.7442284357420215 0.7461945583294568 -1.008481019342347
Ni 5.431047169957855 2.8163293183732105 0.6699208130617109 -0.41702701922330115 0.6309371458153328 -1.542278545290189
Ni 1.5458564860231225 0.8846386055725713 6.927088239492776 -0.9953251986866796 1.01404154414926 -0.20745871453973305
Ni 6.869085546149458 0.8824459397657959 9.291629966508394 0.026830232818966696 -0.9405673862195091 -0.31318556185560253
Ni 2.6521232130824384 1.6505589875212914 9.082927555768096 1.1422719718842842 -1.4740013581803453 -0.4089038758955345
Ni 6.210617528706168 2.076467162064732 2.640720086582375 1.0585326845830996 -0.7787056435832846 1.4234789239507613
Ni 4.091308494370666 6.896493868734152 10.258563076600746 0.9079799392017911 0.49158361158395336 1.3343963700597923
Ni 8.014085154779039 6.901253073347704 13.722583116808492 0.1747555678797571 0.4649706369821154 -0.7075439358367944
Ni 7.83635098779737 3.9098085051425997 8.224945011405818 -0.3614526243921065 -1.0283060244880742 -0.6164271251246157
Ni 3.0310082786642636 8.254032150191007 12.301658009578336 -0.5696410180090125 0.1459602409146196 0.42910014833775134
Ni 0.25573364737582377 4.740519994301827 10.006388447323978 -0.677079191589034 1.324794071083338 2.64390626129055
Ni 8.410760795481735 2.3046199995539283 5.906162088520894 2.130381112438499 0.8366603657211978 -0.045188423611180244
Ni 3.892171452751197 2.799550187117078 11.283851079239321 0.06111152259933992 -1.8080966736054214 1.3275088989113395
Ni 1.2030492618666195 3.3366900945355353 12.459395389509169 -1.735191243694947 -0.012179315675011283 0.6302573461394887
Ni 3.12274262489666 8.427503803742699 8.008206137315238 0.764336005125174 -0.9255994520557672 -0.8858465976378613
Ni 5.419126581551992 7.837795907604141 3.6098214794597654 0.8893983195448617 1.180393204236038 0.40022203185082045
Ni 3.0414478242681864 8.503840723284188 3.4822865357899713 0.2208348787363229 -0.29708737074215935 -0.22411252104633014
Ni 3.5086716745364956 4.170435915288982 9.22860978913606 -0.037343987866096974 1.8094629578253287 -1.0447819106559104
Ni 7.248340872431768 6.218221419189303 11.480446868148631 -0.2469079216742909 -0.01626659837050747 -0.6139359832716459
Ni 0.3666944577870712 8.977142267489729 0.32285649392450766 0.595994825412193 -0.3774898803606273 -0.03940704104271278
Ni 4.4122522757009595 0.47399059033839486 1.579546597467755 0.45889614865326134 -0.7209172718199068 0.4779773336544284
Ni 5.814727563148403 5.650765288075023 0.541675149461961 -0.2760395489329246 0.24921805786470627 -0.12935220004429338
Ni 8.06580425311266 8.780795727247087 11.341294769232395 -1.2192649416005712 0.45986879697917576 0.01913903482229607
Ni 0.05435065853170438 4.971716194134035 5.645712584125721 1.3411995090245548 -1.5199860524405757 0.6493992091752623
Ni 7.814541729463915 8.763718581280807 2.5168733007193644 0.15371134561494817 0.12258788473726631 0.5701536959793728
P 8.35003804060217 1.552620516868571 3.5808752203557392 0.847941852172288 0.8779800504055912 0.34667495186229974
P 1.7150746568936324 3.231608301588089 1.5151383940060428 0.3841120136628352 -0.14429673716926764 -0.43314655049298306
P 4.786585843891455 0.8987681151330368 8.126568549436671 0.2643150614071448 1.5535253218486018 -0.19579181972476603
P 8.449015047366007 1.598009060298776 12.468845165045455 0.8868583267318274 1.1066701635202747 -0.6244569374076276
P 6.183308544358191 7.827834991686211 1.4932505681580945 -0.4395992480968622 -0.7168217615942944 -0.54286297858422
P 1.6165853105645802 3.178661021418711 5.835659935774124 0.26264615834515415 -0.010364888174091827 0.6552117020919813
P 6.803946755110447 3.994733666785586 6.092566677418071 0.726050222171098 -0.07398632167947904 -0.7033090718198404
P 2.6020115880338492 8.582688190989943 10.060712013609304 -1.6662982773779755 -0.3009103440326753 0.9840141445492343
