# total energy = -340865.94532103295 ev
CRYSTAL
PRIMVEC
9.26718868509631 0.00000000000000 0.00000000000000

0.00000000000000 9.26718868509631 0.00000000000000

0.00000000000000 0.00000000000000 13.56346738242986

PRIMCOORD
 96 1
Ni 8.488541129745238 5.672816996873562 6.325146469007429 -0.09371362490507731 -0.008837910006604135 -0.7312533636385923
Ni 4.556408020501553 6.055338751994857 1.194832562211918 -1.513298098897439 1.0306992073105994 0.902563139061594
Ni 5.935152579497629 7.473654207479726 8.854869399029411 -0.23267917966941862 0.3254255555652202 -1.4023647676799653
Ni 4.781999199243169 5.322211440231752 3.835328054273677 1.1860231488283057 0.39034899571148257 -0.7687883844695729
Ni 8.062389449408665 3.1165648852641152 10.008510233418603 -1.4340109338303368 0.9028323335625806 0.6049746603133
Ni 7.591078757692724 5.563927527612829 13.501713135588387 -0.8027503432373143 1.5098080834663095 0.5135868553279219
Ni 1.809455696258291 8.264571709056442 4.256215971330244 0.03104658489315943 -1.1092183838634253 0.8902141305779379
Ni 4.649886154666064 7.66688436267594 10.862167530386134 -0.9062218188601038 1.1998253448187208 -1.1078587845117371
Ni 7.970143851364297 6.063373404747968 8.830265012570923 0.8211424725912567 -0.2673759597206557 -0.8342245025861956
Ni 7.132908939799059 7.504374938594562 10.719994952287113 -0.9741369946448384 -0.5574372768539689 -0.005144263205100817
Ni 3.7974252517820695 0.49543689122856893 11.95087965937265 -0.2378668945179452 -0.8243344971659933 0.2689957547122658
Ni 2.8848666290550242 3.8578936591800503 12.624143711171197 0.49472601386767695 1.338520933751127 0.7020317477693135
Ni 3.897038264980674 6.75929295318496 8.055804184995331 -0.988532344134562 -0.35219099658452246 0.43221915358270724
Ni 0.9270061701804475 4.431199031635021 11.119480296640898 -0.41206633278391613 0.19015030516827253 0.2225552038615393
Ni 6.501470491542166 0.8661355667853676 12.07807831369027 -3.5836089855169186 -0.23471755025568608 -0.7806216296590749
Ni 3.5105130842661327 2.628740062976037 5.902617332801409 1.5878318084399556 -0.2283039334198584 -1.6571983719592362
Ni 4.070955598565027 9.2285446956523 4.645230318976141 1.4675892840064144 -0.019886968731914135 -0.9177956397406322
Ni 1.770487167046259 8.153050358155706 8.931814868244038 2.1779724890642167 1.1244629687273213 -0.2120062247010994
Ni 3.0441232698418905 3.235138566897397 3.4876963385412947 -0.9780746391363477 0.4145885849851376 0.11589967408381331
Ni 6.818130335341248 1.9003390175382906 6.03490182037267 -0.6197680165723907 0.4460174929183802 -1.5637853090137133
Ni 7.308679711158062 4.835127993053533 4.2161363061723085 -0.12834792714949508 -0.5185614257243778 -0.2719296405296091
Ni 5.205945288627909 5.756184627977352 11.953009259375722 0.17213818486156804 -0.9148838654104761 -0.08933735021425258
Ni 6.962550206742034 3.500254306183441 12.515174544086156 1.2359457446903617 -1.7217705994136672 -1.8655628861426903
Ni 7.536365274585035 0.3210274699150457 0.2983349045211092 -0.3020226032602476 -1.2432574478604266 3.630566328103064
P 2.994553076558856 5.9796072845226265 12.977241214901026 0.6498008154890551 0.8645969442304658 1.2794552379372222
P 8.393339298450304 3.3305442763475446 5.702067951833099 -0.7767310363554171 1.158198927527186 -0.9094410971283499
P 5.912179218280833 8.877503581133446 5.845867848298266 -2.6725822890690036 5.569173226616622 0.8264577141565831
P 8.399288833706931 1.5507250501059193 1.7384023057292797 -0.4690306659841019 1.5734272029788514 0.7541135560662174
P 2.379980912051286 0.8881052914471902 0.0410175046719085 0.7577773780710497 0.7353409034444046 0.1799743930765352
P 4.209379598764819 8.888401795248393 8.4146529061399 -1.5649147946324662 -1.5006331018352608 1.3289572013220918
P 1.0283336133206042 4.868740087096825 3.2088178970595815 -0.22301723109962235 1.8056507831680901 -2.5823936465980495
P 9.064969544850497 3.763553676450327 12.98982791082868 -0.24238406566200837 1.1962186013040688 -1.3214035573445502
Ni 6.647919877306196 3.8091945816511017 7.8927989663092335 -1.3578985669467907 0.6129011142492284 0.4316190581048631
Ni 8.651337836681687 1.4780054190174967 12.263762196986992 1.9923732936017362 1.150268874046832 -0.1846049498700111
Ni 8.124544485181579 8.564179925328736 9.06492691578168 0.8414978963191572 0.8183682522802292 -0.5029782265741402
Ni 2.9141324115167597 1.306886776472866 9.219482311653143 0.598190290401615 -0.84550238949286 -0.8502913262410711
Ni 8.922069492424924 3.8046443919143345 7.701567743752979 1.5378588189559388 -0.5884746057757477 1.0697336955052414
Ni 2.1975377647035392 6.756030902701574 11.065416443473225 2.3792916663651154 -0.11819412654494484 1.4032302010040545
Ni 5.117906994331999 1.126519479432728 7.435981231272175 -0.29347239969739136 1.3741422824991625 -0.9215448223704193
Ni 7.986361431892491 9.087878035745181 6.354606862435502 0.38996564423013486 1.5940978439543256 0.5258903552856233
Ni 3.971361119744169 2.5904573057406255 11.010660331296716 0.13914244666183778 1.6313616134017905 -3.8842552772549297
Ni 0.9867888056018076 9.170745238649815 10.930513975045267 -0.2581847801396908 -1.393460008991168 1.3529448224859408
Ni 6.505409046813299 7.640296797798575 2.034032117818286 -0.16428500736573642 -0.977033342356027 -0.7514997725924543
Ni 2.961710159192045 9.16737198189995 2.494091515523209 1.0114275035651807 1.388031638886745 -1.1163508811431484
Ni 1.9540145754921767 6.835636055122824 1.9852440752761544 -0.17998210638601905 -0.20968991786309696 0.1873488311637354
Ni 8.357753293177009 8.017869874061553 12.44172836539007 1.8807989863661543 -0.7371005664479886 1.1188008853455378
Ni 2.0357697157320214 6.9460824121142615 6.490946671857699 1.6511511373238916 1.0895299042955622 -0.6620341243304533
Ni 4.844719533537351 7.075406032840519 5.861574806719543 -3.361912273000933 -0.13662610799788727 -0.1519128589536287
Ni 7.320411972271601 1.6243714000816667 8.249477311819687 1.2492961978553385 -1.418529550365286 1.1797967083026197
Ni 8.652014341469435 6.760933245615525 3.1930164133117964 0.14284612076567013 -0.24146772449532608 -0.4597533544472341
Ni 2.9098046343129504 5.424827022625291 5.058576597727654 -0.9134903274970589 0.30977550773278906 -0.9461533649477188
Ni 6.380116653246908 2.5151150602010723 1.413245376452312 0.28645945871466794 -1.0745843387293235 -1.132291720743121
Ni 4.967954611173879 2.1386725809806313 3.169633442346803 0.3467240599326803 -1.8497729702982855 0.42371831520054776
Ni 8.358244454187291 4.01044085522268 1.5474426118070128 0.09121502685293968 -0.05211394708641992 1.0867806236851993
Ni 1.2088862541382075 3.886408799343052 4.931201866821443 -0.8202886092313937 -1.2528803156621715 3.4098456063471017
Ni 3.7074779165782683 2.875645776126137 1.1968435421974142 0.6019356163766602 -1.8557479569347977 -0.6899041112678441
P 5.745008398196208 3.899772085698284 10.081617233001927 0.44123138438364656 0.3264118307378895 0.24088228430550127
P 5.269824021531248 0.31369434335963997 1.8037517415068032 0.5484756967853069 0.347411315807692 0.5459308188762663
P 6.018751890323251 7.7466192557414155 12.542314433420367 -0.36334392787754843 0.3683560363801592 1.0164954050063915
P 2.2462739109879806 3.4425567882585626 9.768205538902922 0.11559088459414285 -0.322468015598793 -0.4815748211976996
P 6.30430178107482 5.22918739832203 2.2040359175414643 1.4367612428819643 -0.3007090266551466 -0.9621163160348786
P 3.7396813979128254 7.3488622421124905 3.4843054741325714 -0.3951168494137712 -1.287248508729396 0.1141443819556034
P 1.7306197205135212 1.149020214016988 4.116906027874169 1.8772644908503346 0.5439865506657018 0.4963008145539646
P 5.367259245344638 3.3876486941845343 4.815464871702264 0.1722798526457549 0.31953284422986905 0.7846338361422616
Ni 9.00744810351421 0.24917895458070927 3.8042273684150376 0.15705352261430372 -0.21642235149092404 -0.22465399537209696
Ni 6.909115595698854 7.361993848745891 5.314207369201922 4.612015540138599 -4.990256439732638 -2.9050164426071516
Ni 9.51749564472035 7.643178893538157 7.355305718536065 -2.0837544137188955 -1.0970300693273494 -0.25466493991189043
Ni 3.9703324617792384 8.361024610849267 0.4415667223083448 1.00951820235761 -0.35437489160971875 -0.16532681836668944
Ni 1.6763417952828739 8.237011089347385 13.370893790577988 -0.46729979933592425 -1.9718448346310817 -1.2633025394367599
Ni 1.7375701121684615 2.062570425953471 11.813983818618059 0.17284420978965714 -0.5156761337567829 0.6312387362161517
Ni 7.683064874448641 2.194247912653534 3.7214630313068953 -1.90069315418692 1.2743248586891924 0.4209098992174751
Ni 0.8496965004431026 0.29003243000956114 1.5135200669364672 -0.9030423926908577 -1.4104907392212096 0.8173506096489923
Ni 0.791846073901816 5.893552168645593 13.225669527183001 -0.5866136413076092 -0.2386320548187438 -0.06571996790562876
Ni 2.0748772527771524 4.383380337049031 1.3193974814517586 -0.545416341133693 1.733961227942588 0.8083820876017949
Ni 4.174145746668708 3.5642535125421313 8.429667605552345 1.1466880986741088 -1.8382703689753246 -1.0331463832995111
Ni 0.9496829813532995 2.438039850342221 0.5735351987390277 0.24092007952197217 0.10265386481750062 0.08505852033324061
Ni 5.34336843242939 4.237097760684721 0.11611324298743309 -1.2771088491922329 0.05647942314396725 1.48116033782263
Ni 3.6759972759758255 5.100095457317605 9.917363723974603 0.16073405678968447 1.4509136231229462 1.9640214819319206
Ni 7.901436913057993 5.353636477700955 11.036227578679137 -0.03475771519615949 -0.40896403970950856 0.86045052616226
Ni 0.7304861629342283 1.8372201941225594 9.828142936378466 -1.6184883569835478 0.41806111691477027 -2.6844859824851253
Ni 2.8131756559315337 0.3781439350975707 6.429585834171224 -1.436958703604751 -0.14548895770515588 1.8274113147736335
Ni 4.654640222558043 4.865431700669073 6.4098235538990105 0.5533044856325181 -1.7701204514719642 0.5437983459142958
Ni 0.5639279040341255 2.6145705311888316 3.0267009547601735 1.5175077661034122 0.18268536424979506 -0.5284241774510706
Ni 5.224618674207516 0.8920058512439427 9.99669642104298 1.0364155409690863 -0.7192170012993484 -0.8267333364154729
Ni 1.421846254445579 5.673020875028772 8.790265971956185 -0.24297079140341382 0.25501486705214144 2.0989372921069207
Ni 0.47956312340757257 1.6207108604767315 5.9225556896622145 0.2705232471003857 0.07245805796041069 0.15755437351012222
Ni 6.587701684007793 0.029395523105960948 3.6661101121669506 -0.7452525061311617 0.4580775094067079 0.8664221703646626
Ni 2.088518554798582 3.0344483246582135 7.4756410927741515 -1.4860148377014537 -1.2648372309137315 1.7519340103709244
P 1.6929856664992375 4.961504647718095 6.959469793160564 -0.20192724319854255 -0.4847552758082103 -3.1821296842202296
P 7.7656818632536995 0.9216200800073125 10.42592573480436 0.022654247064406146 0.58516379623496 -1.691765054190512
P 8.497141081019619 7.508202287599216 1.0798665972069939 1.1554010530670746 -0.2152131616741713 -0.6713723710122437
P 0.3436876001479258 0.42214362114889226 7.831939483540801 1.0916595490440553 1.648286414181587 0.1578485077117733
P 9.694962311643161 7.074516382708686 10.267979474524173 -4.249789527915578 -0.012879427065829433 -0.4366303952765254
P 6.312670052627368 5.904450382760539 7.310464571735051 0.3489825169495538 0.7976323052844585 -0.23270720469387665
P 9.176009001929822 7.767831851072293 5.049679169690442 -0.5490228275380287 -1.439423877315792 1.5032823665326496
P 4.792146771059382 2.271527000667597 12.770180707030367 1.7828517829957036 0.5717359528648284 2.8680316378526864
