# total energy = -381166.33135369694 ev
CRYSTAL
PRIMVEC
9.30528573271418 0.00000000000000 0.00000000000000

0.00000000000000 9.30528573271418 0.00000000000000

0.00000000000000 0.00000000000000 13.61922626252122

PRIMCOORD
 96 1
Ni 5.398517462853332 5.505751577887774 9.401651469085282 1.5605238646536221 -0.0825537516335159 0.8066640764694236
Ni 2.6957785544895887 4.256377362762873 12.869093191841722 1.245189888996449 1.8603065228397573 0.31524707237032157
Ni 2.909297645393815 6.504543748257166 0.25040896643724847 1.2271394592526415 -0.2709881025519462 0.9349269001042801
Ni 3.3381596632441597 5.973146784766027 10.220956770774976 0.859300728828533 1.4023848222846236 1.2079865404732744
Ni 1.2907362110749276 1.6215763469595643 6.944661439966038 0.1385778324076194 0.9806215739279175 -0.7821169832576789
Ni 9.231197241455908 4.138107178617805 7.65837687064477 0.5387594979388076 1.2741510521154895 -1.2584529246539424
Ni 2.0751904253784277 0.40116204269983 2.081889300718006 0.44144581438729774 -0.1896329992122218 -1.1383944912067492
Ni 2.0137010959661064 1.216089207360393 9.202252219048225 -1.336843031828072 0.3773523263414985 0.34530712498049565
Ni 4.890914115480127 5.562141610611544 11.98028857061287 0.5078070154213512 -0.696186087621814 -0.12954760388455108
Ni 8.769980744433857 2.0584316054220735 8.479425982917373 0.707771221356252 0.45844543426908785 -0.5617600725990389
Ni 0.14800894744241 1.7464718946853786 12.464098301868143 -3.4520368950031712 -1.1423794439964259 1.076834568216081
Ni 4.604543941045472 1.0838703996092314 10.658815139060525 -0.07182608080336662 0.5177952369823147 0.9376851795757077
Ni 0.23344729124766314 4.112713053320252 2.2327363603684605 2.38376821407923 2.113909854256353 3.3773882571493443
Ni 8.150583691921483 7.556413269559955 5.591510023528952 -0.14925279562296231 0.36085638556900435 0.5095430242758515
Ni 2.423896710244853 7.627273021901788 2.812833468292457 -0.912824668888602 -0.30070054201471436 0.7784518757012657
Ni 5.426023888056544 6.696744429100311 0.4871456762604648 0.0991813328878679 0.41858073686366626 -1.0796920922695339
Ni 2.7847929196769776 -0.08464646397277908 6.49402877515851 -0.687882452852125 3.374503736512698 1.3857035049742006
Ni 0.38508623073059167 0.44879580136533753 10.48676319383731 -1.2255469179545408 1.0564284937559032 -0.04627702868966869
Ni 0.7272192616174673 5.219158076590847 13.465547131369984 -0.8448318457883968 -0.13901234884187672 0.7053024481007852
Ni 4.004771736555281 1.97309282817625 1.3444695846662487 1.1112824654813054 0.28153913859491514 0.9004882588104363
Ni 4.234482024974254 6.39039580577821 2.44239003549819 0.3213506141648982 -1.0058903757970352 0.465835813195888
Ni 7.816272684385695 4.710921969774537 9.532587077906971 -0.026793208933444182 0.7304879462274774 -0.07006487513788578
Ni 6.802796772821896 7.393338133671496 10.054652700669497 1.0151640877894776 0.851644754945172 0.010443049710194918
Ni 4.732575370129028 4.4260499463742935 0.47669211804893297 0.2500390111041048 -0.8167425437513482 0.9505288683075951
P 4.1468169262464265 5.242011858830051 5.43432978627589 -2.2677831793704617 -1.2527229641487005 1.0279301292058942
Ni 3.822732427945528 9.245006285773082 4.378309176920614 -0.044931056184735516 1.4284817764819913 -0.2977509724680872
P 8.781184308691186 0.6695879037509006 0.7858537293070739 0.03626026788361497 0.04797395677611738 0.2766252462330655
Ni 2.215681632319595 0.595227502842949 12.356261204305566 0.48404976510075337 -1.6034990826635673 -0.43435162654467774
P 5.02129978190347 1.6188033717530161 3.3662504604036503 -0.6294477057539998 0.17678391116369555 0.013466152807234873
P 8.981648083438408 6.413956789747943 8.107157783552623 -0.8867516259506342 -0.5336358035589971 0.19291089863254518
P 7.450640084416211 2.282512195854597 6.027324951024708 0.2994185899784972 0.7361448874029387 -0.10530055841172832
Ni 0.11427356383898528 9.157303965901542 8.079496890603005 0.14204933589598762 -1.358091913904519 -0.8235755075127816
Ni 9.17485373516178 8.525065618808508 2.469016180652611 -0.7185557135662658 -0.013529401945002507 0.9764368464226086
Ni 6.415129255774873 3.233745049845906 12.557294462551582 -0.9527677849404431 -0.39778745426739875 -0.00022831396072218744
Ni 7.007717779528637 8.393609844503443 0.9497896041438739 1.140475284995178 0.4562165449385691 -1.6260386585269802
Ni 7.896456333227398 6.224352283678714 0.16896538188089205 0.10202265899140493 0.7385121020835346 1.1161901871955682
Ni 5.12150840606226 1.6206551236526907 6.6770162924043275 -0.752451337872446 1.2905652318074547 -2.142097115323846
Ni 3.2121567864929115 3.1281672757066503 5.545353944268812 0.45652893397266536 -0.6887710261046655 1.1016287444416255
Ni 1.7201658513668807 5.501433925217175 8.990569061057595 -2.5033970161881727 -1.9631815025291288 -0.9087831518293769
Ni 1.7925051441712676 2.3384462695678936 0.8251573960098225 -1.500019636620978 -0.09726586103270991 -1.2680122862076033
Ni 6.050445794970046 8.410992118616974 4.600343534977567 0.5375914457726355 0.7553577128859637 -0.3061847050577372
Ni 4.438286397369633 3.981424774161892 3.573671797439249 -0.26415668145240956 -0.3338711152294121 -1.5561712441118811
Ni 4.0901384296588885 3.957203114891269 8.254735896256566 -0.7308409586915219 -1.2753625559250876 -0.6060846055480271
Ni 9.119301178171531 8.453117148013098 12.252074570412548 -0.9264463734370948 -0.48809616725598526 1.0447425727775428
Ni 0.1787917638208756 1.626433706213988 2.9628216500517564 -0.9239477753849571 0.9236605831618415 -1.7231808494976324
Ni 6.906476268631836 0.5782444254957293 2.6818708741415778 0.38319901493026265 0.40795282483617484 1.360013299296948
Ni 6.392647684972789 2.476704207886337 8.34420063728287 -0.40030610692419444 0.7968874566986339 0.9312857038072672
Ni 1.7288197672799346 6.713177564049185 11.895999429619728 1.8557721253045134 2.529674461827463 0.6518296729936257
Ni 1.305485089270831 0.3617522957375019 4.460800536672465 1.3663919491297825 -0.544634725772662 0.8843689846510705
Ni 2.756756093175869 7.379650058071387 5.32344241598611 1.6439399642874333 -2.655217829648627 -1.0857488399865753
Ni 6.727349514517552 4.804672725499286 7.38434457482207 -0.4476051491204743 0.2330833570863728 0.017532609567124643
Ni 4.731775115539218 7.995697207649676 11.310794650249845 -0.2698269923643095 -0.1665385792866035 1.2074268113150626
Ni 7.582840281595517 5.01515829319098 11.95567888091905 0.14825957847175755 0.22482343107042574 -1.1336821733327445
Ni 2.282623859285733 7.499269508676017 8.126170343760743 -0.2055581550829105 0.913066609696079 -0.3196318317015786
Ni 2.1511308638369564 5.175627949019594 6.581504976581999 1.2239078396892211 -0.8104939917384751 0.6561103026468507
Ni 6.302284053325837 5.0841383777753535 2.366558468885019 0.3447155141430837 0.7616669429334431 -0.6818035936478968
P 7.631758169719091 0.5675535824930331 9.454003938244886 -0.7600209226895879 -1.2765357502975823 0.46003026225770455
Ni 3.9963504527904274 1.0378743712670544 8.542863839203022 1.9118730820631396 -0.29576119573156806 -1.824488998920516
P 1.001071965421756 8.242054652593866 6.142066570745873 -2.4830889007584394 -0.4291968218166156 0.13198835211555976
Ni 2.5136461930205556 4.279947652018533 1.7152870899548225 1.3559658687004519 1.3794744933453533 -0.8013753172666586
P 5.498763308155835 3.6318065712745216 10.566327110636209 -0.11759325973615233 -0.3653532449980934 -0.1753176110308142
P 6.696818871387735 7.148115933610524 12.081942305676284 0.011510314632444693 -0.33770308738099264 2.628727239557266
P 2.9371855873200756 8.813324766286549 10.283578553484737 -0.3198519181321846 -0.4977660862455814 -0.11053223912431286
Ni 6.405340094978602 2.886090262289346 2.1151882664114066 -1.0730810147109198 -0.10850672405385184 0.20320456724906938
Ni 0.3530174238368744 5.491207415982287 11.00218298139005 -1.623707439290642 -1.501407260997124 -0.6575634901536095
Ni 4.490879873434772 6.185549241358892 7.4007423496844185 -0.5512434893384313 0.45867914754644873 -1.4193178505945363
Ni 8.345445684540039 0.5264270102769864 4.768527272840505 -1.0437688960103637 0.4582669997096946 0.7356903163640234
Ni 0.9043388655570785 7.649912782564647 0.6178337644764681 0.3276210205546422 -0.23419895874805471 -0.2580857926679813
Ni 4.991122739638918 0.2764712112644322 13.324819570166245 -0.14576689395689088 -0.83381775406608 -0.29263447717712826
Ni 0.700817373853911 6.139367107298155 5.2007056945955945 -0.019201769739431444 0.4829745297587037 -1.2550806657476
Ni 7.098416401468996 0.4681386992239018 7.1542751023662765 0.5271579091441373 -1.064209937473535 0.07078247003020066
Ni 6.595056264478966 0.40922042031349076 11.640598177282099 1.7940183411354846 -0.4414977506711558 -0.6328791000330519
Ni 7.95504241343018 3.4225772171831097 3.7283451906633034 -0.4660224752853975 -0.36621019368174995 0.7513221093640092
Ni 8.67551348169265 3.1294793210225005 0.7972201360681439 -2.977624910102498 -2.621293151876724 -3.8100067030529994
Ni 7.613687304446886 2.550848726160759 10.497400066181624 -0.6877636678860736 -0.2599860950144877 1.2998942225178645
Ni 2.1121510210845025 4.4398031589758995 3.927635568855002 -0.6539965987379576 2.4960426327056306 1.2545888137128458
Ni 4.583030119979902 8.93495415865163 2.1483513749302583 0.46379024352076903 -0.3545916356062151 -0.24513231783110687
Ni 5.745083531956313 6.075905057269094 4.548740141335168 1.6675969415847411 0.8833408004968724 -0.3068025411473942
Ni 6.7710657478073655 7.414209890008033 7.82548491745443 0.5108882254498363 -0.7849238565788546 -1.3884736115201701
Ni 0.6508358915487652 3.008836288965789 5.0657669517676736 -0.43089015035863854 -0.08999580973385791 0.17837285291737023
Ni 4.794939396418582 8.685051399768867 6.725855085597512 2.358207849111623 -1.6832297630259916 0.2624864928388383
Ni 4.5847702084484405 7.906803811179351 9.00939086290419 0.11048595926740973 0.41248182305477993 -0.13818985294058136
Ni 6.033472953437347 3.793811599281258 5.19275246671292 0.1421938318936519 -1.1578078627363544 1.2459378229060671
Ni 3.9817504591693726 2.229555813638265 12.664682114803837 0.0778864280648336 1.3646999061393401 -0.6493632137310043
Ni 2.95891342996199 3.5673302450793067 10.527811601651564 2.5154256652179323 0.10167016074799264 -1.6552551321899363
Ni 0.6335382955371786 3.3115372402041094 10.274303975000285 -1.5114996122361195 -0.2859138706238431 -0.9707876185566313
Ni 6.721803564104455 1.5328969720655836 0.43114925713145036 1.0614496011195782 -0.7290057052549961 -0.9332171165020251
Ni 8.02032829950113 5.126421597032253 5.354562083715169 -0.5054418576232843 -0.9964132895445355 1.280678311711046
P 1.8666403571597612 3.2174701047578083 8.402246080373233 0.5758893129115694 1.1738703155158559 -0.9491453576965072
Ni 9.492508280886417 7.572288087353148 9.925379015914551 0.24294482326148484 -1.0982459440123216 -0.06271100587597588
P 6.318949820422912 7.352553065449007 2.6316707176171237 -0.23104652916200205 -0.381995995761097 0.6428135855379445
Ni 8.27879192143767 5.98616487977932 3.27372148872125 -0.6473659807953174 1.3543077642717385 -0.30894272741884854
P 1.7443037630641511 2.7581146649213597 11.953840156419675 1.220468732100685 -0.9663025862020843 1.0678891860973352
P 0.9677218206557512 6.080427426230109 2.6343943748082537 0.9386218324573641 0.4514787731432676 -0.32354659337495245
P 3.2449579193891633 8.685181673771858 0.3772167504212696 -1.4270275605339682 -0.7692334424267914 0.6756450302456686
Ni 2.5536030907954506 2.3104280536386415 3.3325020493999267 0.42275517995632994 -0.7392561793384107 0.19689456587064155
