# total energy = -340863.7455184749 ev
CRYSTAL
PRIMVEC
9.32369403719463 0.00000000000000 0.00000000000000
0.00000000000000 9.32369403719463 0.00000000000000
0.00000000000000 0.00000000000000 13.64616867687129
PRIMCOORD
 96 1
Ni 0.751408611105783 4.9179315194757125 0.8698409679588055 -0.15199770535795112 -0.08082108521312532 -1.0092994014785843
Ni 0.3897052304773809 3.3835591876750666 2.602842477206822 -0.34631294053719064 0.29967570029462587 -0.10536252199791532
Ni 0.6300542085887677 7.54518995386281 10.442320843052531 0.7703233330568604 1.013903733019815 1.3853792888655625
Ni 6.264384800996277 4.967132652114163 2.9694883479643965 0.4877187293119084 -1.9153960076147334 -0.8674997196995576
Ni 7.637541141807449 1.1907289462301707 6.2768142173162165 -0.05473852919346056 0.46241753154295845 0.29180041131160717
Ni 3.0088212829934986 5.979601894930547 7.16863206413462 0.27368724665066413 -0.012384489707281898 -0.0935624440391937
Ni 2.4529146824055923 2.3542140589243257 4.128183879109116 0.4050443929401282 1.2750031157031396 1.368909059124681
Ni 8.885079354887361 0.5044267571636223 10.964028134465178 -0.5457860657682858 0.36973363345397614 -0.3668959068948649
Ni 2.9293647636937292 4.280414626300282 0.3061481506063798 0.33626738337573053 -1.564594692288886 -1.4106450054108868
Ni 7.773275477405435 4.635442242106033 -0.009840226527690251 -0.4890479896462932 -1.0821924900938844 1.7146406732371051
Ni 5.341096690203162 3.3918106567645165 11.05656206680999 -0.06466247317539187 0.561464138625175 -1.7837740376996571
Ni 4.8858953072820945 5.432683335249117 1.066226864657112 -0.5216968860295661 1.4314192618437607 -0.2313830865658144
Ni 8.651269083298494 4.223586712062768 4.493164538138583 -0.7163319664420695 0.21625471556480821 -1.0872156543400888
Ni 2.8719308093536005 6.776535306175381 4.735411820325237 0.6739406459600522 -1.0813720510751184 -1.259513761818289
Ni 0.3289884035198561 1.4057892694135166 5.245137232724491 0.9787153580441402 0.11582151254771021 -0.14694085966033404
Ni 2.589311000269512 4.4297149365029584 2.629562319146423 1.0540512517729783 0.18743779133311592 0.10075819045668452
Ni 1.8036872297088637 0.03832411135059505 9.569129871880346 -0.6700281982795234 1.247827326619296 0.19864034491715468
Ni 4.474058424626603 0.4094071280287001 7.839041084602437 -0.28525823931771516 -0.24029555856409582 -0.2640391820379388
Ni 3.7046392340404912 1.489273624472204 13.29947359759621 -0.6526807081400114 0.8424828859402457 -0.8130915772623223
Ni 8.97082936756044 7.784827534130665 4.209229155847125 2.927958910335938 1.5263749866860552 -0.53214996304209
Ni 0.44409966061054834 5.088377967412708 10.339974655261688 -0.33005148437300574 -0.48321287102175486 2.04023129362528
Ni 4.159514287675534 8.766025107652116 3.663805184295681 0.5052454253417621 -2.81447761588563 -1.477229635309656
Ni 5.528204579115126 1.2891125641193004 3.253532817474325 0.012940105100435778 -0.342612608867468 0.5267902413920734
Ni 7.007464556353353 8.925441625721518 4.082947181111155 -0.5049340647489304 -0.0728735482312745 0.986782965543623
P 5.185036701932857 6.360409524332153 4.119969704795211 -0.3712917219697154 3.04316798611063 0.10994448494164291
P 5.244941435152878 1.4378348053010204 1.0836118242776644 2.1057286039971417 -1.4322034483079529 -1.2434813909457745
P 1.4769197300727444 4.599303604602407 4.616908603398678 1.6194738608252688 -1.818946471835732 1.3029096123054207
P 2.262105287020733 6.424211561596681 11.551986797526308 -0.40884499763314097 0.4856896146970216 2.91242224815292
P 1.911180096524991 9.46895703713442 4.25345609779719 0.3611541193150813 -0.3685205869824814 0.43414028186482007
P 8.087735701111527 9.506531523496548 2.2178298618624583 0.4575905424679603 -0.14983180805488389 -0.319940621191249
P 3.2266227721794416 3.0898068880906346 11.691559697897318 -0.33194870139571864 -0.3351296702268615 -0.16722454961003458
P 7.559175494692386 7.585953143534083 11.98402439535604 -0.013662842199073244 0.5026187863521924 0.4062211868570488
Ni 1.0647378707434563 6.024243741258557 3.1444316134627956 -1.8063208126519215 0.5491138445899382 -0.37037743768556214
Ni 7.136168826761005 2.5396157118550824 1.2048133182149432 -0.756620124538155 -0.2458871937192604 1.1506617386098765
Ni 5.246209457521426 7.736418915472557 12.71161096858211 0.4596466536660407 -0.40969963232395246 -0.092259408957054
Ni 6.913472398284711 8.600054032780584 7.770059735384021 -0.47954750635502574 -0.4782046191738861 -1.1247650733487724
Ni 7.578121240669519 5.263514233374556 11.497046931300787 -0.23626818257225762 0.1906573267116781 -0.9732180823749949
Ni 5.739805811866624 4.324375842974586 7.005451570843283 -1.0037463328708391 1.1268481811300464 -0.23411385523341616
Ni 9.247267567597854 8.936285081711384 13.166641727905056 -1.3971523702410904 -0.4845421313561397 -0.3669146759479423
Ni 8.595131122408572 2.529182498396218 9.039917939258547 -0.03551464796684206 -0.6415725140419918 0.1449629099983568
Ni 5.566534284682053 6.048765056179748 10.392075456698803 0.10838742486716817 0.3467942510489834 0.08086530818749944
Ni 7.959245875663261 7.153771960818499 9.833469646730789 -2.3947679076238435 -1.087443968300811 -0.7397089506051132
Ni -0.09391850088694019 7.48162100894544 1.5128010336251065 -0.5837784858516591 0.25743941733323406 -0.17525256212083368
Ni 2.353514781882847 6.289819837918335 9.588998663552232 1.407179158349473 -0.22889503003663805 -2.9641579859643143
Ni 3.72514203689665 8.374821559567193 10.192213686919654 0.6789697237435274 -0.48070630254981733 1.359251224319943
Ni 6.085435144234898 2.2264141868236527 7.89631467140772 2.2925994670831935 -0.9345746589711841 1.64362140460575
Ni 7.6601977179513625 1.948614727478825 3.7104478953317086 2.0596531497953174 0.7146908312942207 -0.050155537808468466
Ni 0.44342835465072866 6.08648872164406 5.796400633756979 0.14836550792200254 -0.27212710125239586 -0.6478192662826521
Ni 2.6436308408515883 3.7219906283630526 9.437144593594075 -0.03635154204584062 0.04613227558168829 -0.07304915457719033
Ni 7.2469716049068 2.3582325709893577 12.207261598077745 2.3197130354705338 1.0456625134886506 1.6494074151599076
Ni 6.989591035173154 4.301336995381329 9.13801998159231 0.18577840135282198 0.559178685025108 -0.11816635863080294
Ni 0.816173785948776 1.203511730548404 2.7798332258826712 -1.0456059492191023 -1.5102919650812636 -1.5988582414574464
Ni 4.425220916049721 3.1257590517165337 2.050200101848539 2.2551336089272516 4.183503917314466 0.2698323916809482
Ni 4.916766057739913 7.546625802721312 6.153998791967205 0.09120911331566872 0.1286322911591333 -1.7560014955720793
Ni 5.491236132855612 3.5202258926616907 13.307538592807933 -0.9966416035052579 -0.27819773292650796 1.2962802799143611
Ni 7.323975992714449 6.445012722657205 4.4324933972811005 -0.7691642797517527 -0.8543930071142705 1.3936412717640385
P 8.403678392145553 5.327446802353494 2.218034983127959 -0.880475306023619 0.5427920161369685 0.2091283889326721
P 6.603888466481198 6.368129542870078 6.932240061708614 0.46725454792028565 -0.04538177056890894 0.21748601686874802
P 3.2964012972251435 6.729068380599798 2.2156872770073672 1.2944416840437254 -2.1479103795715138 -0.3512759409694208
P 1.6915231922556575 -0.34767122132939343 11.845570338251397 0.2532559753795058 0.4186540133037629 -0.9741117978338577
P 6.7550255443794915 1.4980565441131783 10.440137233944338 0.34385110926025947 -0.32657072491325695 -2.828027843766239
P 5.537798660124215 5.516503343287714 12.475600305236059 0.6622063882422595 -0.22921873192464395 1.0241953447538104
P 5.8742907724838345 3.096464005525513 4.301299700605784 1.0729604299726554 1.8958342834327222 -0.9650838833036346
P 9.543546588225496 4.016311673274553 12.448594225894146 -0.7409857604350077 0.2759909550831763 0.2926252212057477
Ni 1.7160911256462807 8.022693612560108 6.237417881168688 -0.3723649004292361 1.5347999775249566 0.28373203248117584
Ni 8.895195562754086 9.037409865603111 8.651697973217269 1.005489540814191 0.7511812129107709 -0.5432489011687289
Ni 4.7476528980286705 2.175189812611856 5.760647997180248 -0.34005076167756276 2.4341505231865237 1.3521863470533615
Ni 2.5093043830304462 3.454437908599362 6.644811091317929 -0.35194777022546486 0.10332260874975108 -0.5210206858981479
Ni 6.9302177525046575 9.374321544187618 13.896985317413332 0.39004354865592183 0.5957446570745998 -0.67085326528398
Ni 5.479553544415971 0.8150251068619735 12.006363033538427 -0.8030210804001977 -0.22455526501070358 0.38667257530115984
Ni 1.8594056243738977 8.119296404916938 2.5625044479767682 -0.38053766604801564 1.9816895886356451 0.4040465478032331
Ni 5.992738979616464 8.352500636403189 2.084220396101179 1.298739540088131 -0.5164189254600784 1.392752441401182
Ni 3.598647481940071 0.34245554696934993 5.476439430657919 -2.4108730407158223 -0.14004876052619106 2.8066658331506953
Ni 2.206787811192813 6.7307186744176875 0.10263056045437792 1.0851731699887632 0.39630392774333684 0.7147124285607755
Ni 9.170048734830818 2.175982326592199 0.2880350104933006 1.123198500192601 -0.004390158647895665 -0.9296713081322957
Ni 3.4838728101986773 1.2970190565349546 2.3143086490906 -4.484879116798702 -2.876332187298582 -0.2568933150217769
Ni 0.1829038353385943 6.415428641955707 12.658172217072298 -0.8629403824636493 -0.20668121294376018 -0.4402237690547386
Ni 7.036246799380622 6.808394368185157 0.8487619608204673 0.3208631330055184 -0.7848729487362611 -1.0065364940214665
Ni 6.114459803303214 8.58913598723963 10.318877933104964 0.6461948433053516 0.510365777287463 0.10417724344056252
Ni 2.064219207976107 9.227967521253039 0.2971060322753641 -0.4107589268264023 -0.004419983444566581 0.24396709387841212
Ni 4.323219704932674 4.631181313999956 4.721206240319942 -1.2537264657125504 -1.8087607895519815 0.5909294950741436
Ni 1.7941304434753194 1.0136067334705234 7.400303480345948 0.26917573193355576 0.17409762258078404 -0.18084188328315307
Ni 5.05714359289332 7.417529937170432 8.449271255249974 -0.36498814834919074 -1.558665985509277 0.736763494823544
Ni 8.331466382995504 4.313317942025334 6.703079516260888 -1.7936822979523046 0.10072605166716846 1.166402546383901
Ni 3.89800332155022 1.574156533613849 9.98278673958246 0.0336948211492839 0.12137072450071355 0.5928128281397854
Ni 4.029625908144311 8.56726260138217 1.2994823764597374 -0.6998241985950334 -0.6583836720620596 -2.21570857016241
Ni 0.35892864932781415 6.763407545183352 8.07179031982703 0.29641836969959273 0.30911062045528054 0.04669251896053249
Ni 0.9134469518960374 2.5839498762848407 10.977674292837289 0.5205985107590646 0.06607426592125394 0.27618507337185344
P 4.0875073997909865 2.646698336140209 8.021914151751206 -1.7755002277266387 0.056362180839812606 -0.038712071858217206
P 2.946828042342928 8.126829949577136 8.018202389215036 -0.1257840230770608 0.1981317807118523 0.3171664008802215
P 5.761268955193081 0.3442242516995971 5.767621187837875 0.23973634362651614 -1.619155558253902 0.5643250051127378
P 0.32757772863484613 2.6560313537204796 7.113761193243858 0.4987641884927927 -1.1475733294925397 -0.622503670335999
P 1.9584791956106198 2.033926526539244 0.8505698250650372 -0.6343945082363139 1.0883695654388739 1.0707945326695882
P 4.199718055713624 5.251402755016142 8.988294510948414 0.6148397260328379 -0.301907417838622 -1.0375370561680388
P 0.22773495265249716 4.6471061831579 8.409751846343145 -0.10252916631417826 -0.2567033104981579 -0.6804815324023635
P 8.947277716803432 8.683724861717 6.18886474525534 -0.6233562481442814 0.27433310776477915 1.164285500040898
