# total energy = -340886.74816984386 ev
CRYSTAL
PRIMVEC
9.10060115177191 0.00000000000000 0.00000000000000

0.00000000000000 9.10060115177191 0.00000000000000

0.00000000000000 0.00000000000000 13.31964968848232

PRIMCOORD
 96 1
Ni 6.3216598480690305 2.350676200253343 11.787996958211588 1.7054155550944112 0.1389951224506961 -0.7850159020720286
Ni 4.769124577957186 0.7407652795500619 5.571169666031578 0.4506015127446369 -1.7419424463758515 0.862833681682456
Ni 2.765772824111567 1.9504772606285639 4.9383529882358586 0.12802268259959243 -0.4398653572740554 1.971764101991817
Ni 4.003035965390639 5.076397278298084 5.364821723406309 -1.266357781323316 -1.085226648934518 0.0545652368403899
Ni 3.549343691664338 3.3756860187610966 3.277819063062838 0.704144166126626 0.4589768812925257 -0.44190964139759376
Ni 5.306760797541338 4.881899228550256 3.0402897304014944 0.12621056909151815 -0.25331665341411214 0.45159370145457706
Ni 5.5142636064642385 2.877810326004021 0.5863617486948969 -0.14178914025606548 0.21511828796751986 0.9793509347456102
Ni 5.7038382309400495 8.16661563729454 12.862346596413934 0.37501982155357994 -0.23882360200425964 -0.77883214185882
Ni 2.5832420649972025 5.682479119824658 11.645343213620198 -0.31375351854393063 -0.026009022469251977 0.4187481156794659
Ni 0.9828649341552272 8.055852219575993 11.859083574634488 0.4778140686036868 -1.3438706280988146 0.598184376864344
Ni 0.7697934673322372 0.41539148333847087 4.715835097323488 0.13479753942958075 -0.24564576713241565 -0.06164554072593899
Ni 8.617241008402228 2.4130426205659887 1.4079931507627044 -0.0844558537522352 1.6622215362054404 1.2731647769428205
Ni 1.9632818065763087 1.4905965780575816 2.815547652545536 -1.3562121803833032 0.7739843268482154 -1.7133036995932363
Ni 2.088542482073647 6.755976941750735 0.6209940867220053 0.6140465407075811 0.15679204142280095 -0.707719027962078
Ni 7.805585685416096 4.3884373273956365 4.148590981658034 -0.5424878546329883 -1.0106492306382595 -0.694216622600269
Ni 7.779585267667193 4.251791799744333 13.114420509980526 0.7383866322492639 -0.8805002457242835 -0.4240098782990375
Ni 8.298456047489973 8.939675310412596 6.985211076379834 0.7259985429975562 0.3352032037772743 0.3107137032763423
Ni 6.968111956705905 0.9517863809131892 0.41327104324904335 0.7851519134292607 -0.26204966241173583 -0.2954596053307492
Ni 1.7242636155517448 7.036976206305466 9.609674314703481 0.6190383374952177 -0.5438184005189537 -0.43021189334469134
Ni 0.22635379433594882 4.812033912814055 1.7863779492099825 -1.0094611238674291 0.6138832756568395 0.6989186560616285
Ni 6.777581769099665 1.8278557594914573 6.930626580189374 -1.7251767968817386 0.623595617848597 1.8872326578066403
Ni 3.8158730002440056 4.304065653279404 0.6714259785656591 -1.0076441252633486 1.7174272348433066 -0.050752547962519046
Ni 6.083742829794771 6.440732114721688 5.03320218456221 0.6580900520810409 -0.7144671453191889 -0.9184335304349471
Ni 5.361309801386952 2.998356890057911 9.650419526584962 -0.5689331933087105 0.9819467204972444 -0.5112294108393389
P 0.38979149204422403 6.021922445556656 12.30733004857747 0.12626944735391155 -0.19671201754619025 1.2242004312289756
P 4.290341946606199 6.488146247193436 12.801941355668976 -1.5685225665883826 -0.11569167183806525 0.7144224081241825
P 2.3069478112846773 8.962490517726737 1.26947016907514 -0.297818592481229 -0.607267827222851 0.4942133358973166
P 6.509550861315039 8.361040882232432 6.002154119538396 -1.0299664429096327 0.5827883540242479 -0.672584389042474
P 4.784204274215474 1.2155673079177194 12.8131705875417 0.07389453329662113 0.4747616549306082 -0.5924909260239926
P 4.03842820362147 6.443225679462045 8.747986616268227 -0.18429230372559874 0.8128385807112517 0.06767426341852216
P 4.4584209509479855 1.4114941520605702 3.4053685397725846 -0.4939210014678784 0.7675537407315233 1.3878179802140422
P 0.2222421426947328 6.008007626257365 3.8621786794844564 1.0537555749094303 -0.9062174479847296 -1.1025124325981595
Ni 0.8755988774940474 7.840149768933888 2.5953340338676845 -0.15226972807241518 0.15815395476733407 0.7498149286908635
Ni 1.905383781473572 7.051819286931458 4.983586616649981 0.6429791645815314 -0.672582589270261 -1.0253651966921953
Ni 6.033170788691987 5.758887767853984 9.682839508450096 -0.8826358040100477 2.0395805474151585 -0.8194799972871692
Ni 8.478575147275162 2.721434694859676 10.20648810392502 0.7240072235991403 -0.498664943910767 0.13381949178702762
Ni 2.4643518103693887 5.651173051551565 7.453636313457097 1.1792405786888336 -0.5922201888611092 -0.2802620716547044
Ni 0.8882796552648984 0.4851448616793928 9.072826207186901 -0.9672181560378181 -0.9616326915302407 0.6436412236455624
Ni 1.5217479361095572 1.1778453157688915 11.434679765885887 -0.20169404414181394 2.6542500664187196 0.2722111763257699
Ni 4.385452330188202 7.015107461520512 1.974038717244563 -0.08630216293235458 0.8032450234855457 -1.9919032959438536
Ni 5.7412052996404315 8.0515385345872 8.295264466634341 -0.4461396203185414 0.041434612995702835 0.4137707170695325
Ni 7.294650629876495 1.2738384576713853 4.845009031354962 -1.0390802322854427 -2.611674654950354 0.8666512556563332
Ni 1.3272953893679391 7.574057289213845 7.122855850047528 -1.450920822211798 1.8182206494133009 0.7521178657924273
Ni 5.2192312147940685 5.214753718982917 7.431991443462701 0.15887772030723604 -0.15665911538936245 -0.06368185442967743
Ni 8.260351830088975 7.375891697165418 9.27348627403581 0.17747013859744273 0.4043237127240198 0.4304067829643168
Ni 4.81824052286122 0.8535098981590329 10.527891307814649 -0.4064093916084549 -1.6963141070137753 0.42859698344908764
Ni 8.40708082391661 7.648400100761196 4.7793436430920275 -0.9387426743059446 0.7724609482251535 0.5072989654366812
Ni 7.242850007606018 6.658655112066883 7.151692925203617 1.0354943147063973 -1.1603031183543824 0.22102308348772903
Ni 2.3611327910806055 5.724478394557308 2.8021879699220182 0.2654993115232331 0.10678562759768707 0.5483785090858104
Ni 3.4139540469844554 4.433985836612738 9.722505389024255 0.3244601063281573 0.8127673611536841 -1.1190582527719823
Ni 1.37885939600612 3.902738239100595 4.236781268055485 -1.0781753985146916 0.07334251744789304 -0.02436531621824191
Ni 0.1793737605434532 0.3327971566448357 0.7332654740663831 1.3859125356612132 -0.6443415921466968 -0.9474718266488265
Ni 1.1794925245937258 3.763544543101482 8.136241470588647 -1.3160152964494432 -0.988382191709943 0.8371079947815777
Ni 5.207737155425198 2.952744676632115 5.309265283003184 1.1657497432912503 1.3742204440352654 -1.0312193414801272
Ni 4.244875342800278 7.341564229279923 6.303111002617223 -0.05044581535537764 0.4050186819085154 0.30390747898778625
Ni 8.716892592004077 7.056942925430805 0.7324901028405495 -1.0141544155780404 -0.3781239144002004 -0.8528822268966989
P 0.33956618384876774 5.9060353893387605 8.209140016718866 -0.6494783991526298 -0.46218818914097176 -0.17466609348974432
P 8.576115391388825 1.878810025846412 8.065474285269348 0.935432121875473 0.5593548055916561 -0.1967582974030934
P 1.7467330000186823 3.2237059780167234 10.4050841544122 -1.0459962426789857 0.9191231003028042 0.14488423424162145
P 4.155598444614512 6.600484068926882 3.9387666093582534 -0.49894776525850837 0.4891588041925447 1.216431071696202
P 6.875367729446869 4.122199238055718 10.614442575928383 1.5076478425901971 0.5038891684241839 1.3405899004650137
P 6.893578032532467 8.121904383391719 10.785986179163066 -2.048001424489002 -1.2547317670486133 -0.047234250396615426
P 2.7318002796745167 8.886718911784362 5.946531244746205 -0.6354733431227894 1.0510991111231898 -0.5546769405000125
P 6.805229395673403 4.130735602020881 1.721578028125178 1.853813716026562 0.4062666953830036 1.2339695948005975
Ni 2.540733156594989 1.8293846605001431 0.21657519830122854 0.03625358301539563 0.3929692069431491 1.79584896658632
Ni 1.365982045248438 1.2527978675994698 6.919984337096771 0.43057647577296165 0.8183224866439583 0.08598900256730997
Ni 7.142388470493614 0.6551759449876261 9.258781522548698 -0.4678019357833233 0.5908893858648274 0.018012891637652847
Ni 2.9307030204235596 1.9114811843058312 9.169606551096845 -0.14965594459865195 -0.4597070745903309 0.25756308739529193
Ni 6.444026532371357 2.32078982577403 3.0798491339411185 -0.8071330456860423 1.326052368970471 -1.8525088811722097
Ni 4.100812825136599 7.408772169453407 10.761157918854156 1.1110106998771576 -0.21364324608389013 -0.7171511199092552
Ni 7.098468968898864 6.085672157258113 11.86894043583989 1.219918258913854 1.374327144816459 -0.807604586005822
Ni 7.3519571158984895 4.255905271505798 8.377580314929967 1.4161029432016643 -0.6190997868607725 -0.5782989507943266
Ni 3.320663783650888 8.85382933889513 12.626708368690714 -0.6593105547517032 -1.4977966608277302 -0.3789096435262894
Ni 0.30717259372723504 5.108476897676762 10.421334187990235 -0.26279014012218616 -1.07996797163874 -1.0395736269820937
Ni 8.714917761534526 2.749664759912912 5.822271635385506 1.3396545331349379 1.1355279682922312 1.1264339764107634
Ni 3.411151061801865 3.048437498693617 11.734145060421124 0.7645730608366446 -0.40294765831209955 -0.18474584632324959
Ni 1.3867587178843304 4.02238384363151 13.046663803552137 -0.8330631352882426 -0.083815649065075 -0.7245782656112618
Ni 3.365729961002154 8.813413568778618 8.146817279292183 0.04803154948693018 -0.049694024791017644 0.5075074819030615
Ni 5.786735607655048 8.743630158453596 3.426919673574186 0.9703425605994127 -1.927411801128687 2.772521583168819
Ni 3.2010636821261844 8.60228872056133 3.4048352445397927 0.06601281655569921 0.10060572403922029 0.470748420006157
Ni 4.055500931551796 3.100092511344219 7.354911171061701 -0.29453323686173793 0.03167419117482932 -0.2727379953635174
Ni 5.096991938909134 4.753526147428093 11.791366910851565 -0.5493110482024088 -0.8618504918335802 0.11881556217902763
Ni 7.968504648853568 0.34767572961567256 2.8171329772819234 0.92020656317497 -1.1796619824969683 -1.1217088030209519
Ni 4.952474391183347 0.4261820662313213 1.5871430365155998 -1.6450591654935411 0.6879068783321571 -2.357666631896172
Ni 5.9707133623669195 5.882628642943878 0.6888964027702683 0.7879071075768946 -0.3414067614848249 -0.34738894721018887
Ni 8.347872312235001 0.3362562951769876 11.337273300610486 0.06013758872184482 1.6137130470820917 0.6671711884467025
Ni -0.015510154697044016 5.340460323941123 6.000115584860148 0.5286023549001477 -0.05502109343088589 0.9411420277760566
Ni 7.364943673871078 6.324016903790755 2.714970537797357 0.4066263927152674 -0.05580785099823937 0.42034811317673415
P 8.820184416102798 2.1263554802348965 3.663995796293669 1.3811503383858794 1.2805718680401688 0.0733736277961446
P 2.0599847953756925 3.7433958119513 1.7944101398663286 0.13404086376921434 -1.2540185430316726 -0.20895021148359497
P 5.022539920146875 1.3815076709675935 8.352179626802924 0.21512420150479078 -1.5467604923209428 -1.068959022122746
P 8.847158598184613 2.2080333763834443 12.56960664619667 -0.631913136575357 -0.8445132861067134 0.12012451079843828
P 6.800214964388962 8.012287641429685 1.543387345743208 -0.40416456143833623 0.5373513047373714 -0.9288156450002197
P 2.259588282420383 3.7494113093723795 6.268613353488499 0.006839648629652737 -0.6337890134418311 -1.0969287678627946
P 6.864865635613395 4.408849975981842 6.203746998014627 -0.022726752173554406 -0.2083758270373637 -0.8826543159528089
P 2.5558128528532778 8.867735057593178 10.326045432623884 0.5300020634611518 0.40648703892392574 0.06291335169476907
