# total energy = -340855.67995463527 ev
CRYSTAL
PRIMVEC
9.39445369921809 0.00000000000000 0.00000000000000

0.00000000000000 9.39445369921809 0.00000000000000

0.00000000000000 0.00000000000000 13.74973259473438

PRIMCOORD
 96 1
Ni 1.1890372380704866 7.862021164584972 6.615684333993758 -0.9261578956623985 -3.037796951606704 -0.7243023862420558
Ni 2.946523485672664 3.950029654162735 6.200290706441463 -0.5515823607350887 0.9783003819939088 -1.162981950738126
Ni 3.4115019802234094 2.2011863041256987 8.36755081928782 1.8514511293316565 3.5290702310390896 0.5838180808403429
Ni 6.0344335021663955 0.5760030898927023 6.213284175596188 -0.48361267756333487 -1.404306979008001 2.525751729734289
Ni 8.265494169615083 6.514969212334395 12.210615221628052 1.2143991288678375 0.3095903883051765 -1.665521290002635
Ni 1.5996124502302151 8.549920655139244 0.5769265647086299 -2.808648925018995 1.3076160166421544 1.3018364338458999
Ni 2.910458177245948 6.42894419819961 7.048346846659362 0.6920604954892146 -0.622200023052651 0.40705988070826027
Ni 7.302243235980048 4.183491227414186 13.358030331804667 0.24295227946065256 1.918306239282993 -0.9036841400399146
Ni 1.6343625351144095 7.690506620186285 11.583420813124247 0.5886311859582701 -0.6292548730169033 1.1775058553859141
Ni 1.303114091476481 2.284223881928185 9.244838742183646 -1.0097521727452867 0.7855638041556986 -0.21357202652632254
Ni 6.86243248336084 2.806010639061986 11.24374742325108 -1.1345918296312072 -1.7942021750115165 -0.1594006826902416
Ni 5.840804413345596 4.121252970491291 9.040119500563229 0.45613169853424673 0.04183801908170859 -0.46879900958927007
Ni 0.4042170457770245 5.283346914847836 6.7552990708139715 -1.1906084542061433 2.2772872622061557 -1.7613712445244247
Ni 7.090257384287198 2.304365591036515 0.694476547712269 0.887629400569897 -1.0099989986487703 1.4542989946554117
Ni 5.6778012441578 4.925390038842844 11.170172878837036 -0.06911125297536484 0.17534177940053028 2.2489192525864237
Ni 8.40990571458395 3.3642948495007605 8.94916521648015 0.3331542916680456 0.6451296352656309 -0.1603720454645754
Ni 5.965788227700645 6.01974997075953 3.803891408571615 -1.4282817446560434 -0.1203916484168959 -0.781181615927603
Ni 8.53715359232291 4.9286968866068985 3.2518122349173795 0.26370313885475877 2.068472033638528 2.297801065888791
Ni 0.012349949064277397 6.790583700123663 1.7573124502054869 1.7570461347865096 -1.3937430874492256 1.1388431487083934
Ni 5.276629880327101 5.200055686790721 6.309532234437916 -0.571513552441377 -0.23272777351916693 2.4720179876562587
Ni 0.05499889076670134 3.966028409112122 1.382865489313438 -0.1468693829924503 0.3502091902678033 -2.379315320514199
Ni 9.054985284375272 1.4508606675710272 11.00459844762361 -1.266077788189052 0.7123819806553859 -0.9856763627430057
Ni 2.011221052316211 1.5904246743403145 4.70393457764384 -0.6777733894425811 -0.23859528804353752 0.284787984549516
Ni 7.190082851164584 4.851098697598127 5.312071397016507 2.777950210383558 -1.167274407465893 -0.07160393749023153
P 5.082108318388163 2.049494057403588 9.99495582186229 0.37569190791994006 1.0568694379480637 0.37421146671967165
P 3.7651468018997045 5.661642783492535 4.990382749641935 -1.0712732720782194 0.47371444461301637 -2.3631891043762976
P 7.016116354304484 5.932700961152353 8.290456173006755 -0.5418198820316862 -0.09927003594693225 0.38908632694897505
P 4.017895188956847 7.9216289744228225 1.8541241762797238 -1.8273179837288789 -0.18374902962761902 1.9171505284119954
P 4.68350164046538 4.217480361534493 13.14812723053594 0.24774044487791524 -2.3978673724847734 -3.1009265330773372
P 4.581430899111832 7.222925861912123 12.24250093752571 0.6150760104133601 -1.054864491702893 -0.26999025741505117
P 8.567657384055535 7.786715222321737 0.23536395016116973 0.8944474519329951 1.265678238757788 -1.160392592744395
P 8.799136727539329 1.466530616634784 8.053287548256169 0.06196255774572555 -0.7666510264115958 0.09787495537161853
Ni 5.430520429255997 1.0487404638989373 2.051570231709997 0.42775109050902466 -0.7904375873082322 -0.6998789630923687
Ni 3.7408433497246816 3.2899001692634164 11.469353354172126 0.6235501093226423 -0.6022400349909564 -0.46610963568256497
Ni 6.543547141022613 6.9289170334353045 10.49323201872813 -0.7863348779937682 0.23269769161217987 -0.7910716213478054
Ni 2.5227208824567184 3.571442557447905 13.53516839629302 -0.29506159856138214 0.31673805509355124 1.3066860486287173
Ni 7.38596660891542 7.557227503059476 2.697601459678872 -0.5742268376074819 -2.79428622853942 2.653682623951023
Ni 7.038710015874229 8.97705828948087 11.604664491672132 0.4096453820472493 0.6234670626905328 0.4511355308712359
Ni 1.1159577813756638 3.2395083186770908 11.46588867958297 0.7585461379162743 0.4941094633296007 0.5047718281394532
Ni 4.382061798973315 5.91366779760129 9.321315233399725 0.3080682952336952 2.2667030589324058 -0.6166706085939896
Ni 9.151438142311477 8.35651703321145 7.993709800670716 -1.897144003383081 1.3836916167504942 1.9331918981455736
Ni 6.517768759589191 2.2061559702256552 8.073307129464121 -0.0028876059604401884 -1.4091187985743474 -0.5820352779083072
Ni 3.5315912841095023 4.282762421512937 2.82713782638182 -2.5744736204200245 2.6005034688248827 0.9254912086126771
Ni 1.1210401809221222 2.6594383697018342 2.8947036780973145 0.3673404506314512 0.31212960978726245 0.10602226706910127
Ni 8.35248681249901 2.5105362757806433 6.1048674806499745 0.2251623024670832 -0.19756228136162748 -0.6751940587511791
Ni 2.832315109912417 6.945939783857082 0.11060372380835012 3.4787190322800474 -1.4281943271485598 -0.4435965421817134
Ni 1.4800774191227561 7.233673117145298 9.371735267347676 2.125190055155863 1.222000081143547 -1.4305540856299879
Ni 3.9888193542132453 1.9471884547031615 5.935223372017832 0.39524540457183543 -1.2517570006910055 2.620311247579429
Ni 0.7459403054857499 8.741125974860253 4.002286303843278 -1.179709290795136 -0.9957085501680272 1.2378455328162357
Ni 4.73289767894094 5.522013015546122 0.7893981096668244 0.5660234758610833 3.790165757067672 2.753878257036018
Ni 8.32687753123534 9.232728351693185 5.548099535066649 -0.08421082762096466 -0.06720272309874234 0.06399655745661881
Ni 3.3755212218815696 1.0052159590953489 11.166955278384798 2.5958261179538713 1.062090834248003 -0.1896615384573121
Ni 1.0191009619228266 0.8948132765999272 6.597287174970044 -1.4949941583819286 -0.167737227580395 0.7571705977249864
Ni 0.9351201809512752 3.2408986978506134 7.146134656491226 0.36175061524849955 -1.6671631964814322 -0.07060069303669778
Ni 4.03116955228244 1.3381178266153047 13.763207490767734 -0.899296295384864 0.2527109015093132 -0.3960095364313696
Ni 1.506306734342186 5.4940926986291645 3.6604268245533635 -0.06757733282934167 0.8915768152534193 0.14464332187540896
P 3.1690405201595606 2.3037925293501305 1.9567106731510175 -1.1202432742190191 -1.8831227494033247 0.6070595678667867
P 2.517863949803264 -0.02097029994011867 12.693643280409129 -0.36592171590705364 0.17394464194268752 0.2904631805574223
P 2.569289190315857 8.867500168388824 5.705685862150032 3.0828802170985874 2.696478121849995 -2.06500181570174
P 6.00600588474018 8.700748612104842 4.389725794444666 0.6458364315246683 -0.9068813068209738 -0.08874265405304717
P 1.8578847761659478 5.369080700912491 1.4728991169167511 0.19849739158138718 -0.09674804085602692 -0.522210849551507
P 0.8855653762052256 3.8283996598411165 4.8189922120344 -0.8471270695804766 -1.5576182609710527 1.4500864992359608
P 7.16080033843573 4.852160270886019 1.7291384830339003 -1.160888044323575 -0.026971900603153548 -0.603746958553786
P 9.091482737680245 6.834718844429136 5.339502262886569 -0.5349257260150142 0.6106701680361806 -1.0081020387363735
Ni 2.736510469293597 0.2891678663949515 8.012876365466806 -1.2161929875434667 -3.4289977537955205 -1.1952276981457093
Ni 5.016234407815583 0.31119128461447493 8.772522239711018 -0.8869506293353178 0.2833787629068152 0.27279070297832375
Ni 6.9724415382388925 7.218172268251295 5.8663920873653534 0.20545068297076874 0.0001192991866836655 0.025652410460781625
Ni 7.514059987503144 9.183266552040498 1.5394203053613287 0.4999191280328423 3.922536946443948 -2.3092216490209068
Ni 4.898465534036653 3.3315175999303484 1.495572631344435 3.384682991038545 -0.7345315201692317 -1.727571265255844
Ni 1.6880894168264151 5.092273117481079 8.559442873587102 1.1229311054638274 -1.8111182340405647 0.6344029928767462
Ni 8.733694961845007 6.561856931625289 9.600654622150488 -1.1453750362896402 -1.7072551794063113 -0.675917824291081
Ni 6.67483463392789 6.969782907792224 13.641536160849062 -1.6488145187709151 -1.3449864868708126 0.818061776783404
Ni 1.6865393319370146 0.3306180757829058 10.147756614141668 -2.135919011537592 -2.5260345510820303 -0.5645021541205503
Ni 2.4408482169347514 0.01846479909161511 2.6227755740086582 0.6087798929920032 1.343075643001345 -1.3856582535585622
Ni 8.42204334899065 4.406975890650224 10.993447230873802 0.40005336748344006 1.2010731011828928 0.5782827528444106
Ni 5.7123352566028665 7.677805318547078 7.9554170672302025 0.09142997107722318 -0.7208087712665006 0.06858417682730125
Ni 3.0864726650508323 5.506390038751741 11.07657875321504 -0.7962634499613899 0.7072575149446272 1.6624454792907883
Ni 0.447541448713072 1.3936296545635896 0.8720035425910533 1.2526018651898039 -2.462740161898759 2.3524791741579616
Ni 4.535745669916959 7.601804186697081 5.896147141124128 0.2013415458984016 1.4103706687035773 -1.3951443386721263
Ni 7.25144742387709 9.33490243203936 8.9193556748889 1.0810506631799577 0.1433531423090757 0.8610799322161429
Ni 5.119441878088024 8.533940689097609 0.27191307296245626 0.4044373554837486 1.0248790010843962 -1.180867058548663
Ni 1.0647298243944494 5.835947480692142 13.084231791949469 -1.0411653969492456 -1.5477184853588377 -0.25366735188531153
Ni 7.9149401232637135 2.736454102570346 3.2573944194099957 0.9958214215968075 -0.26395150742013895 -1.0638823789307872
Ni 2.73883089940076 7.568416297624784 3.9148793655434586 1.7478986639592866 -1.2502289940822535 0.4301219047340463
Ni 4.079287945030979 1.1978868136208816 3.8888642438723826 0.6738491146875104 -0.9649442724019768 -1.2564428362024491
Ni 0.0645032597521946 9.26449100024508 12.552035040476607 0.019520586531430895 -0.15928986814399018 1.1197503937430004
Ni 4.875956422551784 3.3456374641047044 4.371342727101764 1.185737242156771 1.2076432982012426 0.036946495317362174
Ni 6.496274249122839 1.4370038481051752 4.258429846530902 -0.2162464880346921 -0.09290629851243355 -0.9206068839371824
P 3.8141200899508823 4.355268816521376 8.06702317926703 -0.1438588783009006 -0.3109337897069484 0.06609663451875714
P 9.06685047961959 8.375597169031888 10.560042556352062 -0.45435763735295936 1.8810694664187217 -0.1965747206373776
P 6.125832143917767 1.0420985850092033 13.097266596701242 0.01738554246629909 -0.5090267467610654 -0.37889061736289587
P 9.169381549213021 0.8508105940940934 2.897013774305215 -1.13847213852222 0.35857273174115023 0.17560506036424597
P 6.28069971604968 2.958501414363485 6.001236320507764 -0.8409708201710936 -0.19740364429657617 0.10252582388006859
P 1.0173348045942976 5.326251385695664 10.531635606724372 -0.9375723081469273 -0.3366664185863621 1.9148434775453729
P 3.625742500846295 8.050483303774435 9.097167321720102 0.07717706070263483 -0.805407064133871 -0.1499171686798386
P 9.261916919883289 2.629056705869586 13.287398130344322 -1.6079537760008114 2.8622181164947027 -3.961508442611138
