# total energy = -340892.94284478226 ev
CRYSTAL
PRIMVEC
9.04840005867132 0.00000000000000 0.00000000000000
0.00000000000000 9.04840005867132 0.00000000000000
0.00000000000000 0.00000000000000 13.24324811215849
PRIMCOORD
 96 1
Ni 6.366354726795869 1.9726869319480567 11.288174011876166 -0.0712648089832579 -0.31568930211406276 0.3356958271429767
Ni 4.444945077802423 0.2687157646502333 6.0404838385333015 0.9262265441168048 2.0318510399813845 -0.390377792066889
Ni 2.4018525452420794 1.6339148349265893 4.868376719999158 0.9483935671321472 -0.6129391665760153 -0.7477328493508542
Ni 3.2628620982382004 4.205424880680221 4.804213610565692 0.9934830032716181 0.3421840059704817 -0.9808609436322333
Ni 5.03537127638268 4.478387964303261 2.4851484965332338 -0.09362389340474843 -0.15502826465415884 0.5885980187274896
Ni 7.168730647615197 6.273092867714665 2.6353799870262127 0.8553702834258752 -1.5663726101249154 -1.2781285487059986
Ni 5.211787931714612 4.35564641793317 11.772452524896366 -0.5206800147292774 0.7846790875579002 -0.9098398752286653
Ni 5.64416572701832 7.635609992222935 12.463194715219094 0.2761729891869953 1.0716388829477543 -0.6138457375506848
Ni 1.4500784915722849 6.6973090061937635 0.48427217914018017 2.4549515190922753 1.8363865216890505 -0.21649897036513036
Ni 2.8570413570145674 1.6213647040887478 0.4310368224196647 0.2393555632483297 -0.6303951572689337 -0.18982788883184729
Ni 0.18232164118973723 0.012167383516687164 4.926620366134774 1.4412467894571437 0.9025816510043552 -0.4374523769571885
Ni 8.973587855857213 2.4807998354801217 1.4599358185620068 -2.1118876816200016 0.35602451139799973 -0.12568400716408676
Ni 6.88832977916973 0.8541345786553913 4.938460197570473 -1.3780531875177944 -0.27949254047853156 -0.26423304321629976
Ni 0.7447348981255288 7.737078750128883 2.846092792981555 0.34116713467019305 -0.21082583123975304 -0.44299259004912733
Ni 7.665279695912394 3.9802825912013704 3.8780601015731486 0.36373087890332195 -0.15561164796145457 -0.9191398124733525
Ni 7.644459327449616 3.7056636503733382 12.662981578141494 0.2141404974352828 -0.24298004737479442 0.448798398097627
Ni 7.868298647324538 8.854619492298498 6.984806534780628 -0.18031095048034754 -0.31381419657853693 -0.05750812151879772
Ni 6.682243420148338 0.814162366694867 0.1557528241896268 0.013839476986253584 -0.9525083606314693 1.575097391592423
Ni 2.1135705203728494 6.331527435090857 9.397938815496719 -1.321816990732885 -0.2182324081164693 -1.2241281832301434
Ni 9.319399608099905 4.835872152581149 1.0796044202152293 -1.914655787014599 0.11572226796568456 0.5279492946971811
Ni 6.48822762676334 2.2090492374607376 7.062187546973948 0.28110127972654814 -0.7435766610906356 -0.6321329658956467
Ni 3.446463183191795 4.319154220623139 0.3823528109128723 -0.2877123572851626 0.1268273767399106 0.7666034610031119
Ni 5.938446841105638 5.7168062824373465 4.7104378023629385 -0.7486093384185366 -1.0620851778210483 0.7998871627569063
Ni 5.573380093604888 3.0554275276127423 9.156765475689532 -0.8663103273771467 -0.3183858751096194 -0.38126143158791753
P 0.4187038531824782 5.659937088265874 12.165128655400364 -1.9550352192729106 -1.6507315332879697 1.4621855964923398
P 3.8712674676726673 6.214748784338745 12.633197864611688 0.48052941065232085 -0.5175183291718441 -0.36305853542664573
P 2.390134867206748 8.703873147843968 1.4833096455124837 0.5465684524602651 -0.871783434676576 -0.03292091909773685
P 6.12801987007724 7.677685052349799 5.899112541347037 0.5163585045357881 0.5970482063773718 0.4054040902723921
P 4.693115545350708 0.9049847771287152 12.512128462566642 0.7834637270935604 1.1268170707817948 0.9242681348388533
P 4.058361235036793 5.9868014908514375 8.33780293278019 0.4407328474806732 0.2028664671833603 -1.8489633299127963
P 4.610630330701999 1.3472253284621614 3.9252855109955433 1.186961344371859 -2.2176299555548384 1.9128326177629313
P 0.11693699775258909 5.7466298089272705 3.5212337319772438 0.34449465638152926 -0.725490493012886 0.2911154694294406
Ni 1.4351214863271864 1.2012022488218719 2.659694847579527 0.31320818756342184 -0.15196685212001573 1.0894573991864138
Ni 1.8028665602360134 6.373783463218268 4.940817305777579 0.898560188549788 0.13856292000928394 -2.8488558362551837
Ni 6.071829305907815 5.529902531473793 9.350898898274885 -0.09708099871541345 0.4516186411552416 -1.1659538888822565
Ni 8.544684646163981 2.401210108840142 10.17217873643121 0.9926615358115871 -0.18366546877487724 0.7722190074176765
Ni 2.573075418958352 5.239774632998998 6.857261192836053 -0.6150204745850762 -0.1012659833310385 1.8284019608216768
Ni 0.7711833714052765 8.910366684866588 9.091065947931433 -0.40358786299925975 0.01903130559983819 -0.017486586820537626
Ni 1.4635606076129362 0.8097422232815393 11.437583907646667 -0.5069454387520044 1.54414799439876 0.2768419902295619
Ni 3.9269965634407025 7.00654712552618 1.4506919730941346 -0.08885963924688568 -0.09926720773345485 -0.06722612013751003
Ni 5.517841014237425 7.860046506499656 8.12691820722433 -0.19611783560561707 0.10160562605864437 0.06495635026672684
Ni 5.473567192903931 3.1520463431040677 4.749399308040415 0.004039460176696269 -0.2528685101331 0.2324601216800771
Ni 0.6522240562465896 7.299814818810443 6.611982593936487 -0.643824286190646 0.4792731696477165 2.0199802566857277
Ni 4.998535239871611 4.481111532711473 6.759433511101082 0.5981841197540279 1.193279316170087 0.8440535728614753
Ni 8.22970079281424 7.11027798343895 9.206706309960113 -0.09803256399540536 0.29912239889431713 0.015002129835787066
Ni 4.698218842966096 0.16823328234725796 10.426713848558686 -0.39459362992044944 0.3153206059207344 -1.1697809759378306
Ni 7.937844649934234 7.228983943396873 4.647929645294464 0.06442798856708258 -0.2566704003776934 0.9938082478215207
Ni 7.103582167418761 6.079393768330623 7.163087160518181 0.49098634431958665 0.27622878212559526 -0.8650124345013296
Ni 2.080670537873649 5.490279587754322 2.472805574056017 0.8294908445559521 -0.1444368622915577 0.24532926433326133
Ni 2.4005314788380963 5.050617830428651 11.527545815237922 0.20228848319270323 0.09575559503577057 -0.9681118714966812
Ni 1.0953088233025814 3.642433430982686 3.7210748852998057 -0.22591743546555285 -0.5202454982950201 -0.08799060637837104
Ni 3.581573892399182 2.573066370558324 2.7120850837374944 -0.43376001570726586 1.1473820394173402 -0.9975895692408239
Ni 1.0990639093139036 3.2486108681952297 8.246173405063908 0.454298759090566 0.24450471154943695 -0.053095851383715004
Ni 3.8227861403264867 2.500299137538916 6.982025961452243 -1.0290153918502731 0.49677004088089927 -0.5237555683308077
Ni 3.9403881954810807 7.138771395124864 5.939980544910263 1.1051789236867289 -2.927784332431287 -0.042565898386668626
Ni 0.8828189115818805 7.4527961180717135 11.303522812842447 -0.21610276336797624 0.6922540995572595 -0.4048986113908833
P 0.3186357876007524 5.548750348730624 7.979083637898578 0.4199655330263348 0.8940908399245248 0.3630801326932005
P 8.641819220456862 1.5679248535276158 8.092670917961067 -0.2677464556861969 0.3215997540612268 -0.5331526932749915
P 1.8192532126854224 3.097810233340535 10.416887286129057 -0.7336362620484719 -0.38053998004086076 0.803483621858913
P 3.945382912296141 6.040901874614561 3.508600355859152 0.2826863648254809 -0.1344247294711943 1.5698417996204383
P 6.93228690650227 3.956512444329699 10.497751027492876 1.2612065761396796 0.2016937870314978 0.11946965082325875
P 6.418645430553536 7.8568614696900525 10.242883839084401 0.09104893358872061 -1.7458785482054644 0.5518878077906495
P 2.2908196285072924 8.491932474004923 5.625956726803417 -0.9347898603057836 0.5659406863392898 0.6765168913276607
P 7.004022621918569 4.172561091781129 1.6254229115009844 0.42452949824793335 -0.7038091513847105 -0.5505248660048518
Ni 5.315410208827055 2.881852069889377 0.40602342538424413 0.20997479609336744 -0.6632376577202513 0.33086960939892696
Ni 1.442948352350786 1.013447948255754 6.987853131069815 -0.0841699470807002 0.19018347239905312 0.3223713421199287
Ni 7.0200111447667775 0.6016742646541716 9.15720251341085 -0.847617893173966 0.4965067599171837 0.13580464053785643
Ni 2.7704843623535798 1.5529678482825173 9.187105665821013 0.4407349043632022 -0.9457849258647066 -0.18983688769291177
Ni 6.331337418690284 2.0794218586698845 2.5775335656517937 0.18428304775421808 0.3342953472510242 -0.13711333204695098
Ni 4.252268447621463 6.629436957589116 10.374349852760798 0.4664456788657451 1.1935045448070156 1.680981333311447
Ni 8.245662170462367 7.273701136331704 0.24003505108375503 -1.636226911913892 -0.5702693956216307 -0.15028072266684442
Ni 7.830023915209132 3.9277113870428577 8.123354947293585 -0.18000961718984482 -0.22964682060099806 0.42909526324174485
Ni 3.270281786260572 8.361879820412787 12.315372813653383 -0.9730687012813242 -0.7093277672100945 1.3302540657566444
Ni 0.0725120681386388 4.920945209637662 10.078442741188576 0.12585369997273163 -0.6198608333965131 0.7022824303275389
Ni 8.795397714119932 2.3730967299553742 5.53690961245492 -0.01863741259552919 0.5106516839589981 0.7898171801154139
Ni 3.812326189894947 2.4813065458816497 11.328632122918156 -0.7838000273870566 0.34182045198347577 -0.09041207133567009
Ni 1.183548820368643 3.297209824741766 12.640057456672373 -0.41464977724037616 -0.6933748434252639 -0.8462199843851749
Ni 3.024409612319217 8.209930038754628 7.900577909581867 -0.28966999523216563 0.2876694198623691 0.6593915445012837
Ni 5.691271697560355 7.79010237428876 3.720465023137967 -0.9679653186164877 1.506226022542006 -0.3455488086776565
Ni 3.233255733348931 8.071344743936764 3.705553259893005 -0.6214896272491878 1.1188489649746538 -0.7907422630328447
Ni 3.3506768205029798 4.127481962845207 9.279517880139654 0.694152859241869 -0.19382312603416943 -0.3172803007502665
Ni 7.234449177013352 5.962787037179029 11.487550982277329 0.6755586411794495 0.43822242235399367 0.08887378031427275
Ni 0.39172061946111825 9.197879595733498 0.7437965790426996 0.31203679296313996 -0.4094834025480883 -0.3837104073490424
Ni 4.605554178286693 0.231829961939015 1.9801437184105406 0.3957765944849571 1.0311913164556692 -0.9347289251608611
Ni 5.7894649346564275 5.641722659010954 0.48686545058799946 0.9377312023222947 0.11503629764225351 0.14717483004801105
Ni 8.00755352374442 8.850095292284857 11.416540948543219 0.07623706538686871 0.2747043750612688 0.06862377181598504
Ni 0.23162184873838748 4.913444086015044 5.8669047614499235 -0.8667175901178945 -0.7612177712111665 0.04320558885319655
Ni 7.660438801897798 8.939348710153975 2.5399229860983903 0.3603213390011408 -0.8414986676501056 -0.0706647135054138
P 8.348397704372136 1.614325048867522 3.4661027354510123 0.957698132362525 1.489014800870042 1.0848970335092414
P 1.9013402977329321 3.33785523766432 1.6077034297275565 -0.14174645994358814 0.35284457100812133 -0.01654504884287473
P 4.8217295033385055 1.1830511583671426 8.257045962536692 0.5374397506861196 -1.7412942712688915 0.3927918008250203
P 8.582932233079307 1.5743854111470958 12.685905699610615 0.135163921630064 0.8086728793693363 -1.8870202846855182
P 6.286475451355016 7.804281217131513 1.384303862093961 -0.8766731586687095 -0.2370163735921918 -0.9093482803042274
P 1.844706361962169 3.261685806234653 6.1451186316087965 -0.4617122779458178 -0.23335023759451426 -0.25209743629503034
P 7.148597957554492 4.134811166867306 6.011375135645532 -1.2008607280617707 -0.12015382137447696 -0.10436467686102026
P 2.5666329581389262 8.306331692645298 10.236686589905716 0.10954802083417263 0.8710511844962419 -0.9331572097983671
