# total energy = -340868.9096470129 ev
CRYSTAL
PRIMVEC
9.28741007099853 0.00000000000000 0.00000000000000

0.00000000000000 9.28741007099853 0.00000000000000

0.00000000000000 0.00000000000000 13.59306342469983

PRIMCOORD
 96 1
Ni 8.108196658765047 2.9773113943074243 7.901919572304389 -2.3600736986757678 0.44772162009368055 0.5873821440425173
Ni 2.4425702006708696 5.577089580539994 7.338908431999714 1.0230180366162576 -0.41235995276493503 -0.013697037871118346
Ni 6.793238743260044 5.916321510629592 5.178671774064204 -0.6505618620247956 -0.749164182480742 2.4511406299866167
Ni 0.8783995032333728 0.42042711020262236 11.562830764406396 0.9565776456048365 0.3735152119835954 0.14591061862360677
Ni 6.0883707770400886 4.498050448590155 0.6273403842340834 0.2885903890147417 -1.7086312338182317 -1.0222186806434137
Ni 2.028936830731636 1.7541780994232345 4.183741282679373 1.2353333079173434 0.600197807749947 -1.332528463613118
Ni 1.1885284059964432 5.059344346824152 10.847807944319058 -0.8082954414252596 -1.9122080968050554 1.5257427524186948
Ni 1.1815999982910594 3.8461300055986074 0.3503573182803208 0.8627853449430237 -1.2097444037046456 -1.9022949514564012
Ni 4.331545765825924 2.6348195833805748 5.104330702378222 -0.0395844471608415 -0.021048078919550847 -0.3903543950281213
Ni 9.251281768645617 7.267630348063378 4.526544221834279 -0.10612871073997852 0.2705844393556243 -3.1029425350661013
Ni 9.278066658487878 2.311199789152571 5.125495780554896 -0.7935956733212397 0.260412383918629 0.4769352655431592
Ni 5.314757403534277 1.010210137975847 11.653904033574976 -0.5469793147454386 -0.7611416665575923 0.3024596907976662
Ni 5.628774016036588 3.4078478500694436 11.64948601273657 0.9835803994459255 -0.10742866049832467 -0.5849174845521088
Ni 1.439399919317919 0.3433388226999477 5.919670550600854 0.4174952171089713 -1.1662883894035398 0.2782969775085336
Ni 4.194640058071152 7.820760613089557 12.954067105280146 0.2585071964761161 -0.7979120413084064 0.2638085540843715
Ni 3.7054350346483984 4.861466793780046 11.650179782248088 -1.7227712727640396 2.9955125890161955 -0.766401629404951
Ni 3.544948593429862 0.9198984364102701 0.1583410495564136 1.8519800052519328 0.7053641545766561 0.46462893737198047
Ni 1.7873527272028997 7.235616646507806 11.796168576780158 -0.10548773472186995 0.18677033295244608 -0.6357317389904986
Ni 5.05811840873151 0.29202588359506265 4.94451759836966 -0.33884568562586803 0.7040611194945164 0.18814767291594695
Ni 5.718434670175694 1.6370174248878273 7.914941449574789 -0.31567927481173375 0.9814839219282129 0.37872066744393484
Ni 3.6869066521118836 5.015238437718433 4.5212160348361845 0.11182370424222676 0.16174167211859242 1.0474931389394864
Ni 1.4121970960349852 9.282970410858443 2.412211515540363 0.8175192740163728 0.8401691502054046 0.04334314287232535
Ni 3.795039964328748 0.6268258617315657 9.491560062357495 -0.576554200189078 0.3870315013024754 0.09684445722457515
Ni 8.154178624648901 4.2013084183023395 4.36731529590168 -0.9171058127624592 -0.49748712155258185 -2.3846963823204543
P 3.241779675565471 0.18201651460006477 11.782684186502081 -0.33392099463074104 -1.4557061594155831 -1.0993859711540357
P 4.747900346834429 5.967086492556705 6.392342127110573 -0.652739843512721 -1.028541537537648 -0.6936011005034571
P 5.6745330840854145 5.9729096984967525 12.194799064940202 0.40925483147705005 0.2403441524138441 0.5108542868881072
P 8.04853433825649 7.23939662229345 6.344793375194684 -2.492991504584132 1.2704874872209733 0.8881973572582251
P 3.006863932267921 8.983748642155968 4.000764449906739 0.2199571041170599 -0.16975322956915925 -0.36182774834333814
P 1.3161188417290965 8.86937419055838 9.657435987478758 0.17383228473453932 0.14224936772193567 -0.39307385084181334
P 2.400238186835564 3.548375647643383 5.673880179176986 0.21325732349938112 -1.08434656032241 0.6461321083882162
P 7.395685154285669 2.5474993565092388 10.133505827231641 -0.43009413681990444 1.1025463711598884 0.0304014951099928
Ni 7.1468197214794245 6.248708619701942 2.976052021539529 0.8100661601724373 -2.045847868481109 -0.4037447002920982
Ni 8.138390028001243 3.9733768071689295 11.808171625196296 0.5677283743673319 -0.6540346510647446 0.22340032547065397
Ni 5.338040939884674 5.230019076585323 10.111254122109216 0.06786606771435408 -0.17409685124983565 -0.8257005242755845
Ni 8.795177073724187 1.1735571014105473 9.224836798001771 -0.1457769212592199 -1.608529445998623 0.15347891788916793
Ni 3.168901370921845 2.341207410192912 7.466832285743927 0.3299293569728447 -0.4230416008484973 -0.16005862798921466
Ni 2.4768128805767 8.124449625902342 7.916368924459933 0.9794581497474358 0.936342292394568 -0.4964306552636095
Ni 2.7158800960516043 4.196618276357006 2.07194961170475 -0.746451154424953 0.5306890622258473 1.029607259798001
Ni 6.8359886905360225 5.75320673243971 7.983056241735719 -0.19421239105278812 -0.07433624881973004 -1.3662237989830341
Ni 0.6835254985162396 6.685411915566339 6.432590974929368 1.3356145587376094 0.3085719743429911 4.157656617234059
Ni 6.397102853370331 0.054127024272085066 0.39542447429958866 -0.3681842866889853 2.0970673287777175 2.7956242306245533
Ni 9.011239375142475 8.34878700944596 13.213666926324839 -1.4792368955476718 -0.36737567474476085 -0.21315833602767162
Ni 2.7573112311370145 3.9881530761491777 9.378982724554803 0.5469785434144903 2.065261240010714 0.37128940797687027
Ni 4.926720134983833 3.094221308778428 2.146004631169116 -0.8360646411187279 -0.7223084957404786 -0.07204873833713399
Ni 1.0452515351238527 6.644519450248907 9.27492751397793 -0.21857102240281068 0.39853076019132655 -0.5773450715214895
Ni 0.37134686441191184 2.8381024089240543 2.678540064979895 0.040095068248672885 -0.006758658880072231 -0.6000229727349795
Ni 7.496369963848756 5.950712789092106 10.315122983210617 0.38319258717235943 -0.10096310737863902 -0.30869795839789416
Ni 7.008186555503204 2.025806973631483 2.6961703549894525 0.5469667163399484 0.3057378473283057 0.5775631010695665
Ni 8.168954893629149 2.431703931213365 0.22873961578537805 -1.2381208979648095 -0.8402755938762819 -0.7491351290150196
Ni 1.0477498483580996 1.3725677184493665 0.39676371879170164 -0.37907470834924395 0.346137591301591 -0.49071689270828395
Ni 6.767521905543949 8.221010825517453 12.262247949818992 -0.7107357033012146 -2.7457499715019296 -2.684737950594931
Ni 7.71729886799844 0.9448267730349619 11.509300920583984 0.5794364068328794 0.3869643955099658 0.5071408425922622
Ni 1.131791619572598 5.030924872858369 4.8594792880844 0.7050085710094504 -0.14639424312824464 -1.2826765730879972
Ni 4.934976642289579 0.6655153534461594 2.54438993171063 -0.3229210439758116 -0.4599670131199369 -0.1362918645869201
Ni 8.473721245977892 4.488623727650524 1.0538349592543026 -1.225445102269354 1.948701820855715 1.5157388471284479
P 0.05428769646149946 5.487391776761717 2.9560701593704506 0.06491649816772692 0.07737966363174416 -1.0099118382516026
P 8.381748026800393 0.7217153275839839 1.5387891352149194 0.9249739026566264 -0.8755925240100211 -0.18476461537632696
P 5.639983919656425 2.25596756311515 13.58369776476912 0.7429279717630431 -0.20126801234798883 0.3579430685769513
P 3.2359378948058377 5.87912543440967 0.560657710663194 -0.7957343169307972 0.4112692908039175 0.15802334272674076
P 0.10635105827763784 1.4699833597654097 7.093078124713737 0.18725447167771622 -0.6263256151852503 1.1268867476774658
P 7.183226367866963 1.2316962867130956 4.93670131428809 -0.3442797121572458 0.12631598432113084 0.014682027492206972
P 2.6729351131699772 2.0789588198753304 1.696631450865463 -0.8193056764928341 0.7282444016089394 1.7743339753326797
P 8.898638818815304 5.127569659161615 8.514898834775959 -0.08256969247311585 -0.002747480838150107 1.4666413182708484
Ni 8.777094486857724 4.782022290412955 6.4686939230166836 -1.693841734213883 -0.2551043414421542 -0.09544063489851305
Ni 1.8903408143945866 6.978596867903535 2.9129524306666785 -0.6948830525396742 -1.3254255340197496 0.7571970800875475
Ni 4.533481916949456 4.452997223685577 7.991374974687075 1.4988883512300122 -0.7143378188301762 -1.415210256184066
Ni 8.830199896052607 7.754142022646238 1.930595234659257 -0.37185762177551446 0.33295605961431046 0.8364994146633012
Ni 7.38721503655469 0.16959553274325515 7.025642242208657 0.07746322448448595 0.48325889376834197 -0.47867898770714334
Ni 3.9656125325821994 3.77416186711467 13.45420991121581 -0.5716287378630026 -0.90037975825703 3.0663667928245966
Ni 1.9071138764802738 8.512524044091956 0.21933054092435375 0.8075148545054931 -1.2618987171106977 -0.16571711182657264
Ni 4.569192007602538 5.597029649365005 2.4433670604310866 1.218373025913921 0.3964710494488204 -1.3085935500640753
Ni 9.283434781348081 8.438141179061907 8.013110299825023 -0.11991419455984509 0.1932006619588221 -0.9912487146244607
Ni 6.705677043734097 6.567313212641865 0.7364776654495431 0.367169986491858 2.1700378075981726 -1.7350071527085993
Ni 4.608375589518106 6.881589872618373 8.391990182319827 -0.32267884605801844 0.04652282615188762 -0.6360986354116142
Ni 5.679111777113235 7.84891075217135 6.435377197867189 0.48140769949221607 0.6225831174236827 0.4347419200045609
Ni 1.4321743144991679 2.3646859821489574 9.784613133475634 -0.5682796188851117 -2.3083523590420763 1.4682266604800973
Ni 2.433524263532741 7.385515440562618 5.379699616510007 2.2120717447407707 0.03814951448652785 -1.1020012972896955
Ni 8.55989912144472 8.012926409111127 10.597383155408615 0.9337354508993402 0.963123160032838 -0.2563299863191392
Ni 6.281344577713627 3.5743711076532603 6.135772787881252 0.4928866466660931 0.09727717388661956 0.1758014926457682
Ni 0.8340140430928921 6.202540905622234 0.6711685997869998 1.1777542239512941 0.2595358948509466 -0.6861359024746635
Ni 7.093147780287183 8.217537334254969 4.291697205369196 -0.17378883309111362 1.0676724421008388 0.7812083554004804
Ni 1.0871656155184855 3.5147923738328375 7.881108344440818 -0.16325039545363498 0.5602516063743125 -1.9034390923631734
Ni 8.747625535585362 0.27142547993378746 3.690394074489057 1.1720466320435556 1.7028840469218092 -0.18633993028324683
Ni 3.665517747359205 7.915417893697156 1.8475825084497937 1.2211369618123034 0.14802817918724184 -0.05656015578323163
Ni 5.104044650156606 7.158178223655944 4.1729483837592305 -2.996387278311665 0.12220607591781533 -0.30236070332595666
Ni 3.1089790029390905 2.6062607982679014 11.633486591886617 -0.2659338279574904 -1.6836596514745585 -1.0300952551780131
Ni 4.796083428839161 7.659911962889104 10.494401569403783 -0.5975678263262676 0.6852254748452521 2.0669216584322725
P 0.9087145375378535 2.6109230779838564 11.89246229899324 -1.058192013414229 1.2632122937157986 0.8186104501980225
P 8.787477811006005 6.150429249275173 12.043086439752864 1.4550556703157782 0.9740871152435094 0.8588119621175724
P 6.054434581657419 7.946372830536357 2.2966297006697216 -1.1234532965158845 0.9147761361880181 -0.7078578675327873
P 3.099682305736559 6.11770041716556 9.82071608156295 -0.08112601804805383 0.6826250611079276 0.2627171207924056
P 6.589640145783611 8.382082373552931 9.619266590712558 0.6718511104208752 -0.3149801918621801 -0.05094049560360904
P 5.83426724511074 3.976358065712399 3.8871673545088057 0.15773717894488962 0.2129981563007235 0.39604887430973723
P 4.139249946067255 0.34636837577433927 7.0512114101090475 -0.20861931050673746 -0.8957348032858509 0.2919402793235811
P 4.472222161956547 2.867961431407711 9.556657375076762 1.5284778919616708 -1.4572426506647678 0.5818522153632237
