# total energy = -340861.7567657774 ev
CRYSTAL
PRIMVEC
9.41113401149584 0.00000000000000 0.00000000000000

0.00000000000000 9.41113401149584 0.00000000000000

0.00000000000000 0.00000000000000 13.77414591782945

PRIMCOORD
 96 1
Ni 5.02142351662451 0.7295784053904331 12.464486172042935 1.1960046855210498 -0.35410749688094495 -1.6083268430695141
Ni 7.458709606923105 3.13702273066666 6.152525133768647 0.4687177627293734 0.6364526763169233 -0.4993241747613206
Ni 2.8663961593515093 6.787065201753806 13.266582071009278 0.37633185549678416 -2.667374776726135 -0.08856756192776359
Ni 3.3330284199412685 4.721462440413362 11.065253816338995 -0.772947658053585 -0.3469109791325058 0.2569290533557188
Ni 0.39196808733249533 2.547866915620372 6.966715281128268 -1.876191055280498 -1.4716344006100655 0.7712198767292008
Ni 9.071570941561019 2.6525940155506476 11.01321495049927 0.7926312525254414 -0.8426451225497229 0.8048679038009493
Ni 8.583114261063074 6.209560370686102 10.827222707875077 0.2300124314705329 1.3608558498029015 0.422719184512072
Ni -0.1545392914490526 4.757939996068443 1.1379030437364814 2.8067198263170825 -0.7710972351084074 -1.8893610170035529
Ni 1.0527859238677368 3.954652647528844 5.224919527505382 0.5509372709519221 0.04026141862320808 -2.401987308190418
Ni 0.6747491382989714 4.434234628598839 10.120526533862291 1.3447980250090905 2.199733534890392 0.7180306943007312
Ni 0.9656764669163864 8.299876770094205 9.961972452619003 -0.7689159111863725 -0.5792165775125896 0.1300476834494212
Ni 7.459349564039861 8.243381732272365 5.276806874086581 0.6964493685855295 -1.1878355194466963 -1.038217112954199
Ni 3.9269462688269456 5.582138884511443 7.173368727489605 0.5655269958406389 -0.7767860579630687 -0.4289921620049773
Ni 7.623404453147028 3.7929787753413713 3.776567639750213 -0.18836878778781754 -0.6794659466536557 1.1340015043453762
Ni 0.961300289573865 5.081955930962354 12.79472192544367 0.11495762188551815 -0.8568080443136663 0.09630658244323413
Ni 9.181540043168251 1.9851846207128208 13.664930907241192 0.3245099857294863 0.5692173002080325 1.0194454887736508
Ni 9.177493255518177 6.179868242695446 8.532849393995532 -0.6045802530883588 0.759509273160492 -0.3190350786578441
Ni 8.116576111814014 9.321229506168347 0.45212123296732104 1.798546568023141 -0.056622633590050875 -1.0336284651422523
Ni 1.0188964300818883 9.21364142148081 7.264291575966095 -0.16940021710511471 1.405180896972522 1.618043813246962
Ni 5.930849635204874 4.173216825169096 7.697584894113096 0.234539372806609 0.5332560516220752 0.08806285437720318
Ni 7.6695754768941455 1.0006952967906273 6.438338452132457 1.100506200801408 -1.6360325365148984 0.7125691569655277
Ni 3.1973669223231056 0.05375451558067455 4.981516543714342 -0.548211644490643 -1.167326343749751 -0.7389571600407532
Ni 3.269795010125352 8.628814728106695 10.865018763413355 -0.8144740594321456 -0.7760877463444634 -0.007844435745083264
Ni 3.964223770877972 1.6274297701781797 0.4007571454404108 0.1429523073262312 0.8729193480532321 0.7809057365583971
P 6.724979950294422 0.3408364548171126 3.5336606227246588 0.2046137888917702 -0.9732990721245756 0.15057074310343746
P 5.078605567233455 8.041889351834982 13.60289177033875 -0.5678237622946156 0.40608568972044906 -0.9193912663625263
P 1.668998749365098 1.3834931750853747 5.409712791649066 -1.5233246298955057 0.3133616824221507 0.6082780136549202
P 1.4285254516100303 6.359084468789284 11.188697779707564 1.0888213082643121 0.02683126126023121 -1.2630446577896828
P 6.316640254133862 -0.07522601796123918 7.972613052832759 -2.2349216527557507 -0.5685575551368467 0.17558114910484598
P 8.348287643749968 8.72426244984401 11.308766910398653 0.17247808469949005 -0.610400973535194 -0.24172432059082238
P 5.358596216948196 2.4222282757866935 6.693628639367236 -0.6620744906500855 -1.38859779580286 -0.918339170948928
P 5.800044282766799 5.706441143307191 1.834013574147399 -0.29818677445392516 0.21587084986282823 -0.15358973243541935
Ni 3.5609284425788985 0.8209878094983384 7.1302422056141115 0.9454367984966686 -0.7741828160122667 0.5273620547351434
Ni 0.5075989271962013 8.662760688696963 5.084381180212177 -0.0484498679712714 1.0953503676320813 -1.383936642881765
Ni 4.75682948224819 8.179414253998994 3.8056311039849966 1.1056219247614185 -0.01582873950214048 0.2186460986151202
Ni 5.016953227941289 0.14936693216421446 9.896049340685899 0.8247777553509991 0.8929582689819783 -1.4916154717176828
Ni 6.577573357356976 7.735961616623492 10.111917228415113 0.7687716722990244 -0.49225801194315866 0.5428074427559362
Ni 1.5718664346292632 0.9257525539648934 11.157099897067745 -0.24917692021412574 -1.7507294485398621 1.0544896248619775
Ni 2.078326614603002 2.8256647710968155 12.302764303071704 0.09499249161750092 0.5688660875162009 0.25405533135234953
Ni 7.377491519899536 5.644977026696423 0.29247734239873374 -1.1061441158134755 -0.06883485938552661 -0.783267037701722
Ni 2.5123022399700745 3.3141308627288324 0.9669432055622001 -1.121563021471707 -0.24686498425149744 -0.2380723256605319
Ni 5.462561015018805 4.29807434087497 5.342591642348858 0.09393088312220597 0.4933080504742278 -0.9889640323553418
Ni 3.17526957952689 3.127583363194512 3.3344589123198993 0.675563783385772 0.2374220936710427 0.08512768300827919
Ni 6.687438936489437 1.7972066287998698 0.5886890227964191 -1.7932320977887635 -1.990390715954069 -1.1372621773745188
Ni 5.560408575943956 0.010520706776784216 5.889177133543186 -0.7962081712434222 -0.06392970877442539 0.2545587533513293
Ni 3.0183859745810158 8.976320853639173 13.130907397803417 -0.5639825341716544 1.5104539445804244 0.7051003593923083
Ni 9.175262816743603 1.7839839854316064 4.343745633402974 0.5515368522091341 0.10594899062900463 1.9844033880223824
Ni 1.3947865359693008 6.504260622952154 4.837355850917618 0.8210859083217084 -0.8286822326117277 -0.5596643664122748
Ni 5.349646228447684 4.634804717897367 9.767659826363577 -1.2015500408193114 0.8014257108886197 1.0280149756102166
Ni 1.5658997756289221 2.475984673594182 9.583940372617272 0.8787806919300156 -0.1283893219103918 -1.9455866722655006
Ni 8.409685882422247 5.810556519522921 2.8561521399163814 -0.29439851105608655 1.7230870042322453 0.6983928654651456
Ni 6.387506093680499 8.485323166942344 1.5974976582687406 -1.7454571443973295 -0.739760629778655 0.7574894145169858
Ni 2.532583233890792 7.520578402298881 6.8837260186727365 0.690713751653333 0.27989491812327283 0.23961344489540667
Ni 7.316573249064824 3.668497704998295 1.4070840648584895 -1.1617372796977476 0.3416160492821536 1.3785753785698518
Ni 8.157345144604987 8.7243283277825 8.502656593672356 2.501146015370466 -0.3022516885519182 0.3655967284674671
Ni 3.394718403769715 0.7733053576195881 2.605366121447475 0.3163711586724358 -0.8333523843938874 0.0006121796627021715
P 2.7267631631558324 9.983613355412826 9.079820741686728 -0.27956993068368624 -0.8136549059649602 1.5092221290558523
P 5.222718263246423 2.707752672334556 2.0747447369759833 -0.6931740402683675 -0.8538772438201165 0.4003883822253556
P 7.883462320901638 3.3790676878114074 12.925341878540566 -1.3723846763781073 2.2891868418572185 -1.229689993588637
P 7.080344372775299 6.0406116918625665 4.464641061665403 -0.5319177924266258 -0.4604501234039425 1.3104501436568399
P 8.928747570915634 7.085068762078408 0.9683689923737958 0.492488639896726 0.4581772682093658 -0.8615774406778518
P 9.640295184541472 3.527236582608519 2.8909592192740488 -1.414774454198228 -1.705348963522534 0.757607942372721
P 2.941384075620779 5.279072134057215 1.3018854671113103 1.6642588783504435 2.104648997779717 -2.188255873268096
P 2.1121031747800108 8.001882620903674 3.154774952862785 0.8075955871447575 -0.033607146531484056 2.612446757229688
Ni 1.3492178248026587 4.8765767521540875 7.318782042231039 -2.2852818503758576 0.01474656218155525 -2.4097183582860886
Ni 4.370502428677216 7.155285233374219 9.229270491830759 -0.5843636689311679 -0.30126721315146177 -0.04748570428578919
Ni 8.35562832832452 1.4306053122394868 2.293781353546545 -2.536593300434483 0.14146209593394993 -0.42272432671839455
Ni 3.948243665227216 5.924986498679303 3.4511946193234158 0.49120488808829593 -0.07043254288994967 -1.3083356684169982
Ni 7.533038743807479 1.2319927388275052 12.13135837714251 -0.7303120827712454 -1.5450445380711004 -0.2886184140391997
Ni 7.6205434683897675 5.398809992829043 6.535005856845237 0.912690714413899 1.5763659738922011 -0.3174595066406081
Ni 4.724436358779462 6.694836087868408 11.580764683947795 0.6985059940042422 0.5567903872985895 0.656648691648824
Ni 2.1332970487055123 6.073174215744553 8.982231045835094 0.8725604220519165 2.915882438787378 2.622604671599296
Ni 6.878419080170699 3.0117040693913593 10.598571676738667 -1.6639328624695924 -0.027019208901321208 1.0351796116794558
Ni 4.773308378004653 4.857453327723972 13.408181053112166 -0.22370757229842764 -0.03285664151870471 0.3445409362384324
Ni 3.7507133722332777 7.48395967963275 1.6421120804406908 0.531082183899208 0.5512512026479152 -0.35974309790016756
Ni 1.4518932975056875 8.551379916979242 1.323787999432278 -1.0519146650459497 0.6145209092408384 -1.7074539256806789
Ni 6.741355323576115 5.17268867453063 11.651590996731336 -0.5625586572409343 -0.4512933966053389 1.3516405018522204
Ni 6.548370608337956 1.9304776983642686 8.598083610914717 0.38463317627362786 0.2289171415238251 -0.1923401137307397
Ni 2.6169069951574406 2.8346806375358167 6.847335045451099 1.3816072234176398 1.2206934465169816 -0.8022361226050571
Ni 6.078736195979887 7.188158324680514 7.56469215213831 0.7467712567685333 -0.1750065075482986 0.04210130004542426
Ni 1.1476783886949264 1.6411135591158705 2.243023343053739 1.5198916929545567 -0.024216706455519585 -0.3371143047570581
Ni 8.620683508270268 8.452732409658147 2.602776177351428 0.39575911098346034 0.03264992482453732 1.5988901231366464
Ni 5.123430798808573 1.7929998518706072 4.225426032535486 0.6117752281749013 0.24693209004400699 -0.31956986811539156
Ni 0.7380041937232489 7.727764518848576 12.719983404227253 -1.332178793583183 0.6585366527001562 -0.00998667889906667
Ni 7.202275025785421 7.572669029375989 12.983909248084608 -0.38049061486016406 0.9423262778921448 -1.6100497392978916
Ni 8.402740465478633 3.7288324855206705 8.771541164071161 -0.8610120550926849 0.03449546267370833 -1.0497487677428825
Ni 4.089514198751062 2.4692180681978964 9.111624728162678 -0.090789766390063 0.23596273551669686 -0.23822299230578328
Ni 1.591291015349616 5.025150325716206 2.812460008883285 0.5814822336183146 1.0424141817546821 1.7118553971824841
P 4.864201110852117 3.0436360472906605 12.023616890969633 -0.5001908936369902 0.22583747415723687 -0.5492614259113959
P 7.114412678108476 5.677473672639921 9.081942011306092 -0.12685925841911055 0.30082858295214643 0.23063001044987377
P 8.82993066318128 1.4844369991195348 8.88853944171523 0.6051929469716931 0.5267066805393317 -0.4658952056789138
P 3.365167442790108 4.665494426099437 4.94697109388382 -2.2468433438940014 -0.9748548466474696 1.6012887052758098
P 1.608475746161324 1.1495417932407743 13.803347043801626 2.5403327128722575 -0.6511195343004786 0.20365579585387505
P 0.3569144362621955 7.112417517685649 6.6980913991432 -0.5234254386848984 0.14701285054885005 -0.3730447001050801
P 2.8136185194872945 4.196631726735102 8.539832455475425 1.871514475740435 -1.724205691217721 2.6798042607387393
P 4.553868964895897 7.324356256940663 5.989715337698932 -0.4845359607085526 1.33430355323567 -1.0841501280408876
