# total energy = -340872.4248330368 ev
CRYSTAL
PRIMVEC
9.20725058863924 0.00000000000000 0.00000000000000
0.00000000000000 9.20725058863924 0.00000000000000
0.00000000000000 0.00000000000000 13.47574191962363
PRIMCOORD
 96 1
Ni 0.36901739512992066 8.068783234100179 4.975082595725489 -0.9683095893297841 -0.3858184548309807 -0.030806443857895334
Ni 7.356897035426181 0.248372028888101 9.249156438586667 0.9627562636117225 2.1983466818451944 1.072139733843573
Ni 8.764851376314855 7.733013220736624 12.547950424599723 1.1443903037788679 0.7267331071707355 -0.2688538298177628
Ni 1.5512744030806545 0.9311752852232972 5.312110319515321 -0.3009926193338365 0.7292725857631376 -1.1218396721718613
Ni 6.778193716079367 7.0260897301136005 9.05928267612133 -0.27158485559568063 0.4199400791050381 0.17408605261655824
Ni 5.946116068616079 2.269578055393855 8.25871592296909 -0.38142263975613017 0.35088076241353117 -0.8577603809246066
Ni 6.152238786866872 4.57495390095875 7.076893497244713 -0.026611946160573528 0.20178120453898152 -1.122462650467841
Ni 7.297013077794379 7.425896171110795 4.322236049807087 -0.6508932772222855 -0.19492612929036107 0.8310995838039686
Ni 4.111783161618681 5.267458837207328 3.8769034376988523 -1.7551383762408352 -0.39601082198295023 -0.6948393437859324
Ni 6.027729137565694 7.2133375847196834 6.719719388508056 -0.14253398884189003 -1.996967083620006 -0.6192602236980367
Ni 4.717279580090423 7.694480877149741 4.580782090562215 2.0252461330703575 0.4872101651066061 -1.060365366916464
Ni 8.33408095168978 5.81317257780341 7.557829626537206 -0.011338050720638539 0.6052487399102932 -0.2569177405018091
Ni 1.2883337416340048 4.02784986552835 4.052195677454859 -0.6519417730914578 0.09272503573956288 1.720662968171785
Ni 4.556622265096985 7.254190155447282 11.402054690554204 -0.7909366384318378 0.31444180286020684 -0.415445019448162
Ni 0.2617068898718248 1.6011040431026893 2.3998275046931368 -0.28152242642436676 0.4826354012517301 0.2132724930080327
Ni 3.01040264257289 4.027140907235354 5.693609063502202 -0.6509017618627178 -1.7326759334722612 -0.1501673370174317
Ni 4.552451380594032 2.889815282009588 10.858928187365027 -0.13953325434235325 1.4176247791628296 -0.7735999469256032
Ni 6.793947321784782 8.125177643770352 11.29315685529984 -0.20036658357964202 -0.024963354813557007 0.3193718931719725
Ni 3.7803037270153372 8.591837931072051 0.8563645329862246 -1.1808464897233728 0.44755706949135826 0.9222603603802052
Ni 7.044605510986533 0.9969702977135891 0.4209039349267009 0.1675269113418018 -1.5322622987047676 0.1468459859536826
Ni 5.814443178380469 8.56333228334326 2.5069870110420753 -0.3371857814249419 1.4607110688293423 -0.24342973331770332
Ni 6.823640704835607 7.612020741148753 0.36797513436671037 0.20117442419291806 -0.46052391406467136 -0.6483005767944447
Ni 8.746317180940807 0.9522506817514638 7.191841416840998 0.04632022322277829 -0.9404159482433095 -0.3769026403985896
Ni 7.999784098415566 0.7166187254610141 4.818776627345949 0.09018581425747695 0.4572794389854447 1.3338494964173868
P 4.970782809714718 5.898938116754862 8.394605733960445 0.2670954523657593 0.6095391397555309 -0.10022931453640803
P 5.717610524257827 0.5435758170164233 4.712453139347713 0.8293584327431458 0.23189936408060063 -0.9615151921157699
P 7.95346242085628 7.039937434953426 2.0161190205722406 1.7005929368947874 -0.19566532144923077 0.8715520353920603
P 8.58771308282189 6.637313575285364 10.401884873271571 -0.8464850651211034 0.33916990173450623 -0.377155379839344
P 2.06960578051607 7.307509343430949 7.417748675091671 0.11550860929298173 -1.0580434036515067 0.017500984998240827
P 8.25919838289835 3.744653252853231 2.6554355117950807 1.0786063154045231 -0.46094711764501906 -0.9681049295181455
P 6.212997433301721 2.904058898623426 0.3474061366192555 -0.8957121775780316 0.7872594466905668 0.14417666665163556
P 1.4219401544868773 -0.17963253766923423 3.2125358591567306 0.1644269322602394 0.10480999192855496 0.3451526016805023
Ni 5.964410875475609 1.1579959027293625 11.482302324246008 0.8333089327504616 -1.5287236894238898 -1.4588475332580424
Ni 4.302179895915735 1.5834997800350377 12.848729202941152 -1.2217051756109476 -2.2107052034105474 0.2007370795451833
Ni 9.404377792850427 5.427913592688481 12.066597206856935 -0.2733149509129099 -2.2563489693915915 0.319646744099914
Ni 1.6286521367734077 6.4868947229128615 3.039938581639166 0.38717959684456543 0.536257043231928 0.6646965016539649
Ni 0.7843850102958586 7.943316030740929 1.2711235488902526 -0.2977895390155065 2.0327288146006475 0.42561398956136376
Ni 8.133583863530164 5.350167568973392 5.160522146321902 0.5137742887483796 -0.13333535306175748 1.2431234933857236
Ni 0.4984216188279416 4.929571156215341 9.502392657944768 -0.7437430114651707 1.5047684641598729 0.34418098179585244
Ni 6.716726111351522 1.7665675428876093 2.88680082817677 0.40128286901516697 0.48918142990036395 0.53133440911933
Ni 6.109636838533177 6.1800078545509916 2.466842477882416 -1.105260941877574 -0.11088293759551227 1.0703494747123696
Ni 8.231760776234333 8.964041034895178 2.893133575110834 0.6463205702499385 -0.48260943310980103 -2.186618594774989
Ni 1.4134142404698036 5.085523566173439 7.181896665512875 0.06899529622279085 1.4453088753416592 -0.5001412713459774
Ni 7.115473718534501 5.099831633541185 0.6037359921649774 0.8385838079961558 -0.2862540275720812 0.10136034281705769
Ni 0.13443414467807227 3.125474860051713 11.251637679631811 0.6215644463511811 -0.17686747201643732 -0.2863391310867198
Ni 2.7813354559305763 6.125749527010369 9.093377124939066 1.6513799655052463 -0.42986350886633706 -0.802361849549644
Ni 6.907693695183197 3.224857922579031 11.71319530867405 0.3794223214966498 1.5902067364300354 0.7079409141648969
Ni 3.95567422840109 0.4239183887595195 6.032631077762983 1.2582305242304912 1.3793495377317146 -0.994328381991049
Ni 3.519628049206053 0.6254733900082926 3.5894926664431552 -0.691701312377583 -1.0891707211839308 -0.4466191310581211
Ni 4.633521221760702 2.5370302696141183 4.49797392049012 0.584260053473768 0.3527504686324183 0.4909531770888061
Ni 1.3598924929738523 2.7177317690731826 7.201665553186805 1.4796125337195356 -0.6709949330681669 -1.576603029603672
Ni 0.24631052548807633 5.561897502814247 1.16466655575892 -1.080499675772494 0.24931396001262224 0.14213032564556813
Ni 8.373570849334735 3.127362346416184 13.814791681255265 1.6390255577049513 -0.5583785577213157 0.09346448500874871
Ni 2.7103291396242324 7.76734705806888 5.272222668646242 -2.7261185704242465 -0.7185683119717561 0.6898089804508766
Ni 5.340785380654387 4.105780034254607 1.9768777186923605 0.4622061868631008 -1.2232732914290159 0.07488106557960653
Ni 7.081618658231282 5.78380144852213 11.739702062306616 -1.766692913847654 -0.16693350073217703 -0.11522090284923382
P 1.6977525522141637 3.342931703739891 9.192571438829937 2.1165619471672192 -0.24638727328413051 1.2790842277510488
P 3.4964257777988967 3.307621897848445 2.7889130231401356 -1.6773329379255824 -0.2241857974864268 -0.2557121502294822
P 0.9858295245379309 8.989572740693607 10.538502057057038 -0.3008794907947399 0.7837555473023664 1.054822582721364
P 5.365064900376875 9.040645359541026 9.733056381833908 -1.473948650565539 -0.49257014386693876 -0.005180001539042692
P 5.301267861257755 8.740166737567797 13.006691555696147 0.5039578168785902 1.0003306223210708 -1.6361068413962598
P 4.832692465839907 5.134073398367857 11.32712884768515 1.11772616422412 -1.109801767170721 1.1521974585281123
P 1.9452158254721512 3.3491926341195994 12.9856428601946 -1.1876336878485352 -1.309454355402474 0.9595891787376506
P 0.13387710601928937 0.8912342323009788 0.3173039516436382 0.029122885507885325 -0.6322748907901498 -0.6256740976441806
Ni 3.2278502790105095 5.441070753736428 1.6799807171863492 -0.9148514695106437 -1.2380990435879387 -1.952077422196167
Ni 3.9847231039128275 5.867826817118044 6.3351886969122955 0.3371688121440774 1.047094360839171 1.3148472442832708
Ni 2.7864454799904856 4.502529668066414 11.477302787192798 -0.7110180104283238 0.7929510977587053 -1.50349088299903
Ni 6.195089330965643 0.15565317431494982 7.325251715256976 0.5204966950738779 1.180821292912392 -1.7650198970206052
Ni -0.004703984310284101 8.205391210635089 8.690155714709764 1.5665052790480376 -1.8075348875646808 0.2531017091898286
Ni 2.145206514851053 8.797288520032083 12.575265574831313 -0.6992739825185184 -0.4330722456116219 0.04582091498885657
Ni 2.4696239882761075 1.663833041157036 11.192290504707563 -0.7799922236051922 1.3379241807073925 0.19671021777397737
Ni 5.029313301514436 6.030601799739912 0.05895586677551606 -0.8625210355380435 0.03646852723967913 -0.5254177865245789
Ni 3.710365451773767 1.3969608837219512 8.811679452654854 0.17559708994444595 0.8040901450946603 0.3356127805108672
Ni 1.0661351639082537 1.3558320954776 9.03885362858236 -0.9939799975126945 -0.850289012248226 1.712138732750858
Ni 4.216009237939714 8.370707394411076 7.903765365242286 -0.5779796197816949 -2.459047800648836 1.622850747717302
Ni 7.092722602404707 4.588516181031267 9.389816526092325 -0.2872904392563955 0.5671051389610363 0.2468765542157232
Ni 4.124839042910485 3.696462503430591 13.520750768872468 -0.7164070426543792 1.3840135188662874 -0.6682705921584684
Ni 6.817214043945847 2.367174911312844 5.92686002479825 -1.1531155994670077 -0.29425684327189966 -0.8768978730850059
Ni 1.2734640319821966 3.69985077163608 1.9075185795109135 1.3460007870679398 -0.8417570635178148 -2.131255544623652
Ni 2.1645417410236827 0.16126499353029167 7.378198009593028 -1.4896874014570343 0.12940902142415778 0.38454575876614416
Ni 3.1353450326503127 8.85146398231768 10.256251949739323 0.5491657808737962 -1.0760542384066307 -0.4179063365044609
Ni 2.303976343480019 1.48635407939341 0.8124210882461719 -0.7812320095495642 0.4615518411085535 -0.04761991587080831
Ni 8.20108221737376 3.2827899430924536 7.422290611792127 0.6294312506937676 1.3916406963942418 1.3608342525363466
Ni 6.699821599326309 4.022251857188846 4.0927987316923256 -1.4219830561315254 -0.576696125083581 -0.4732359623147011
Ni 8.365265909331063 0.8942173814818989 11.522459747556448 1.441909619852123 0.03624432704401499 0.3676808646900055
Ni 1.6689798942191787 6.848417416088248 10.898250513049822 -0.34569047646184337 1.3101935475613433 0.9623636561589943
Ni 4.619839247430927 1.6522963562073665 1.7270242431894136 0.2735142114079096 0.6305949319845656 0.20935310334896848
Ni 4.135814085576092 3.8358326551330184 8.50607699574588 -1.4511195684861655 0.9600668897050175 0.3496605168531849
P 1.4595886020201554 6.6548257658474315 13.224810400699475 1.8313541014714654 0.3352947350498161 -0.5016471664675425
P 3.993552857198328 2.4588238833711094 6.823010928897413 0.2492908200841707 0.09740984280974191 -0.21835787795074008
P 5.746060928483267 5.822784947386375 4.916611030329344 2.567025134561779 -0.29325514148026266 1.639248729459351
P 7.3536929122318595 2.556245801529489 9.722612597525519 1.7910787988911863 -1.3974300493825094 1.4262402887459824
P 9.203190160898934 2.59204359170053 5.51769625505856 -0.7173560368312097 -0.12941699184395775 -0.47600015532339957
P 0.9440193997522585 5.983718479896565 5.000214706849684 0.7540883592552368 -0.5207707746708709 1.167152537176048
P 4.053878762856933 7.1759929764548325 2.4210649488311313 0.30507064605795203 0.4233257077478193 1.2972225892229725
P 7.996119612693325 7.9828519646386775 6.910400626847364 0.2709744757051914 0.5992670684055614 -1.0552406440953892
