# total energy = -340874.425799972 ev
CRYSTAL
PRIMVEC
9.23915168963689 0.00000000000000 0.00000000000000

0.00000000000000 9.23915168963689 0.00000000000000

0.00000000000000 0.00000000000000 13.52243240554675

PRIMCOORD
 96 1
Ni 4.053760862995136 3.7046964810341527 7.432496384252251 0.09729157206432276 0.4541627477333339 -0.4605545101922907
Ni 7.2800633196901305 7.164398382346768 2.368074904230253 0.941624880949746 -0.7809034225655519 -0.09163565933012606
Ni 4.461179725686264 6.926878276170305 1.3584767896232721 0.2731573422891231 0.02293012643361212 -1.4973256347285826
Ni 8.332661369187257 7.177610368959198 9.147235778752412 -0.9405069652952189 2.0454015249723096 -1.1285631069386242
Ni 4.37617029294433 6.7159207304908595 3.5581034841207853 -0.9494307501474101 0.30191333137589293 0.9351523858515248
Ni 2.5576281076824148 3.1260761414700724 11.760769992023507 0.14197245991146518 1.8326450523687468 0.38036180259178365
Ni 0.20263307019846735 7.94483874677932 1.0121758378691261 -1.7882099619838234 0.354955189593221 -0.27352269604834184
Ni 4.556426138264962 2.8297857927469896 9.720776432834315 -1.7425438274052762 0.04090779395795536 -0.5600973401846354
Ni 1.3013991596272805 7.971844786547245 8.63952223111543 -0.06987667038647966 0.10215918456926923 0.82623942749819
Ni 5.858361168677922 1.3082084142659942 1.1756884928827334 1.2300792586072558 0.08671199677626358 0.48268245243958163
Ni 4.449436764158713 3.1208652600369184 13.34678952814299 0.37493009005325106 -0.9052969930529893 0.392949152338491
Ni 6.995867020250733 3.294579786111676 12.359151028767073 -0.24674439951323313 -0.44582928816697415 -0.11136347677635659
Ni 8.70272634245597 3.6224495545839086 7.108485809352055 0.6547458181991563 -0.27472880054130105 0.7482257298268727
Ni 6.294901836825257 1.4752430338227194 10.124055231748498 1.5602073618544678 -2.1021280311300763 0.2620164951809552
Ni 2.3640032101742405 5.389557383572121 3.8041310009774763 0.3688797700941131 0.07583545907307586 -0.2531461892745188
Ni 6.539018697156459 5.779107727306298 0.29851144073820723 -0.5837424904074011 0.053571248358236775 -1.58214992756383
Ni 1.5300127237797005 0.7553625355779243 12.457595111672036 0.0945399774611146 0.48993656289883364 -0.14005750227693944
Ni 4.157636643053562 6.151722706382724 6.005014220075892 -0.7871211213404896 -0.10196172384648247 -0.3922192161510019
Ni 1.9097418494935892 1.2730903995010674 4.862950695079365 -1.3815334327569109 1.22477327301331 -1.1274079102882584
Ni 1.7575083506033766 2.5990010279974225 6.8870150332066755 0.8944644212138596 0.2684830767419053 -0.7716705911133742
Ni 1.957129457420269 3.790500480803128 9.015175967112716 1.0871251515088116 -0.3587658215885628 0.30602863909584715
Ni 2.0243442844170705 9.231021023923613 6.745286449546066 -1.3370062968788134 -0.525991656750178 -0.36093711820826874
Ni 7.6268825878421485 5.595146982243299 11.242834247192127 0.5355667020331228 -1.2822795947598948 0.22612029550497828
Ni 0.4007620540517882 0.09710071028017656 3.0367862098487404 -0.04956212719884368 1.8862556386053517 -1.0626140537413247
P 9.14065288332489 2.072757438157722 3.9220595304327577 -0.581273202931302 0.5223232067596552 0.8153510627204604
P 0.49012867063038096 1.7359811276614456 8.285667349113508 -0.14899517108620144 -0.652104009700935 -0.74811234417746
P 5.919127067943621 4.792819067961204 6.6341191311418175 0.5804640767664455 -0.765129961781379 -0.31748161812779513
P 7.581416723422732 0.05245158685134593 2.021198353339076 0.3190960138027666 -0.16398753072997566 -1.2580299781839108
P 5.065078383692029 7.242441494874876 12.783160635765851 0.020718977714906252 0.30909725071884186 -0.5054860805976584
P 6.240132146868277 8.18194309113931 9.032727583173997 -0.11446268452697062 1.8213247422599212 0.36656294903547837
P 8.549143927450082 6.355519909667322 13.212782103371895 0.2046983781857765 0.49823454124156774 0.0974052148240516
P 2.365509191865028 5.833267633265783 1.4778669528422506 0.1371539554768993 -1.0505064718445132 0.08265865264249636
Ni 2.4749561802642184 6.479952801762569 10.800528348523002 0.21907727261526788 -1.0891254697682922 -0.5853895390925209
Ni 0.6113001422541681 4.165683943990223 4.906966012716858 1.1823169036213121 -1.4880763482161727 -0.0269076230241214
Ni 0.2780430245555661 5.914812384203758 2.5296417939427567 0.04718848476034453 -0.41246845331834125 -0.005961616900073604
Ni 8.820442371427276 0.7446682177430379 5.690118068107976 0.5011530004399433 0.24296024988045253 0.6588989211355814
Ni 2.9441202922776317 6.200034229457127 8.07241849386771 -0.2866445781422805 -0.3289363969319561 0.1523401762990344
Ni 1.415604311037241 3.170202328925292 2.8765867145548656 1.2406678327563794 -0.17458716062269286 -0.6145317078741158
Ni 3.6196316133833553 8.318294488640175 9.07585039877879 0.11014400254695869 0.6086857906163001 1.443658741332746
Ni 7.080793300629372 8.223648620907495 13.411061685394296 0.1333039856031898 -0.08548892300243986 0.5755586690450282
Ni 3.731970456194917 4.154486092399828 2.1361250824794076 -0.48443800167810763 0.057919498024603486 -0.3998942161977565
Ni 2.3381335860380146 7.8766538088774105 1.9034989548404293 0.5890914134241403 1.0997022168428738 2.6895382001970516
Ni 3.7570732307585333 9.233644942943146 13.566109429824468 0.9762419568029832 -0.1371272160040219 0.2959144334799807
Ni 4.231808551112712 1.499985481478724 5.89398179328321 0.302733256174027 0.2293470299723921 -0.012332039202791665
Ni 5.7748669567782525 2.777131868478292 3.1082935466218604 -0.46447518540293564 -0.5124123754038465 0.42138863862610654
Ni 7.472348540234107 3.5893826314469255 5.141633992832303 -1.2948103802370539 -0.33180651939089956 -0.5219534821250623
Ni 4.161969805096379 8.421366462520082 6.865946996093163 0.8919429403435866 -0.024599286605918924 -0.49630981341502906
Ni 8.775881943852626 7.81642378039739 4.378116982160582 -0.9572322484696998 -1.514574137396385 1.2128862917677368
Ni 6.010862602960974 0.9830734346310196 12.512428551774212 0.9212110931800844 0.7884953759801969 -0.8227427271988412
Ni 8.505488936720202 4.259221113545634 0.3704068218733702 -0.1266530559455754 0.15170562803882906 0.19101368160983231
Ni 6.40194664584037 6.675869008837094 4.887250587379611 -0.8198083271608655 0.21331774442367135 0.7107277328814147
Ni 0.6363003622363873 5.705249950397372 8.874069178346524 0.5634950530122746 -1.2762369881102409 -0.07251153690616544
Ni 2.0477008593514916 7.6682000732482924 13.145616243877923 0.7013300937165986 -1.0131295738579518 -1.193393216040132
Ni 3.550550477788155 5.505499495459799 13.144344936634656 0.8193542703425826 -0.003561492099013221 -0.4883244812167074
Ni 5.204284678999356 6.68982936671918 10.564129875335873 -0.9271765667349 -1.666027797325408 -0.723852957409463
Ni 4.758467902768887 8.865862040089308 11.182835197499037 -0.20393964564288103 -0.3607663969583593 -0.23677289012281802
P 2.3140009223795066 4.815334880111198 6.372784188117662 -0.32286267993405043 -0.7655408240665525 -0.27414670278558595
P 8.335922789658717 0.775197145969228 11.930382334842378 -2.117469289472837 0.6100153080610011 1.7373784811542532
P 6.666297247906692 3.5858347972796714 10.185975101033703 -0.15184292494764173 0.7020849696047522 0.24471837022213982
P 4.92517915202391 8.42020232943395 4.873133163922414 0.8635006258424937 0.19537298701979258 -0.3172116522958602
P 1.7753306738029406 8.204015424018396 4.20834295419086 0.987940219076518 0.4638936018678527 -0.61384805154353
P 0.8663672449161747 4.534667936536101 10.752009868455511 0.08034645956955194 0.23303476323662448 0.2265537834979711
P 7.689450121645907 5.4448352268603495 3.8412770094916535 1.2602102736646814 -0.6012738144229451 -1.9649347377748096
P 3.7217611938125845 1.3645118033681949 11.819079200911412 0.818129396796546 0.7552530689872993 0.8596565695060548
Ni 7.511476346740149 5.092795838123699 8.739548056753296 -0.7222825275985496 -0.9829839035125071 -0.39563749780393154
Ni 1.2637865739635032 5.128819289733394 12.965375181199654 -0.1288914583577909 -0.1558949835298283 -0.457066037423058
Ni 6.8590074694186205 8.512871018750502 6.425697732542869 -0.5914766258268652 -0.4765534567237083 -0.9044076484695005
Ni 4.5611565838213 4.380586607350444 4.541630561089336 1.025160279770241 0.038834199258378284 0.7435758897596871
Ni 7.75226711253955 0.5694855904985496 8.054474213868646 0.35769135757746134 0.19745300947727285 0.744097566591112
Ni 2.305463946414552 1.462419091572333 10.078458171378106 0.20679511281380514 -1.1030685622119454 -1.155751751538274
Ni 5.011047825853225 4.390075215917552 11.51796139554148 -0.06820982420701802 1.0392033881268683 -0.7898781152603365
Ni 8.07339230043341 3.5438151363612587 2.494618018522898 0.20127623987810495 -0.04180228074776672 1.7524230341922014
Ni 9.297358131530078 8.055579216385322 11.835562771061927 -0.14015674685896506 -0.9143642454615802 0.6204395887181186
Ni 5.824388808696171 5.1881623596716 2.39548561883288 0.7183232858404854 0.05670439467057976 2.0284258163499196
Ni 1.748019742036268 0.8941244276991974 1.2880910858394876 -0.7148242715482914 0.5442922548315787 -0.3741610730977104
Ni 6.554651341455922 2.734871989621472 8.044751854769164 -0.6154899580223272 1.1716442543988144 -0.45991404839481437
Ni 3.810004329571547 1.736627868264851 1.7684364189706363 -0.7340710355930455 0.8716785336675955 0.6607650278100426
Ni 1.4485973209624066 6.689080995449524 5.595054590728528 0.7611586358384568 0.616415298050074 1.5545630190844968
Ni 6.983126230363642 0.5964241844606903 4.011699625895076 0.34036469337355574 0.5135277199552123 1.4082333106456004
Ni 5.674936294400601 6.627917812670304 7.79115192936174 -0.3400304499625886 -0.48357102569212196 0.25965699380984314
Ni 5.527340849551956 8.647439260016265 2.6033794618824784 -1.2258238257650114 0.5260178820024232 0.018026004263775406
Ni 8.740089471029863 2.968197521027276 9.608823786554503 -0.5002896239983836 1.6316184666076032 0.7238971803838371
Ni 7.178331022774422 7.7827655515658645 10.942027801226978 -0.9455560976833521 2.3816010312245823 1.1808796569541533
Ni 0.1695448970130866 2.8113259680954967 12.022726729942079 -0.15034217203239916 -0.08262162875697383 0.26171079101507827
Ni 8.60722123363591 5.767447918142042 5.738013829365903 -1.918598316602115 1.1221489758821641 2.182103223403139
Ni 9.09609245575024 0.5573601280998414 10.057700569754227 1.0108793443711948 -0.866600862034372 -0.8397870842756376
Ni 8.197427909015135 1.6079911622474674 0.4493054798282686 0.7448856097100462 -0.14786028615080987 0.0543466930716806
Ni 3.53133304271553 0.36324647947852184 3.604512665906027 0.4659980498053652 -1.2295233861037858 -0.1591332879614679
P 3.5526200477190533 2.654121805710538 3.940950823458237 -0.5441451877307532 -0.9467866276563436 -0.8238218191956328
P 3.328321167306496 1.150209684853994 8.01594880003892 1.1241415808321609 0.7367485824252086 0.09951763318136408
P 6.819768793094852 1.6108460600539296 6.200968307671474 -0.7148019029507883 -0.377569327448311 -0.07945222989005672
P 6.281348001608171 3.6044424483548 1.037903179072603 0.21941383001908019 -0.8445035159147004 -0.6860690537924701
P 4.064690779192692 5.017626101705008 9.501090660754336 -0.47453154119767316 -0.11645528947696719 0.3096955464244731
P 1.9220022035038649 8.546436856067256 10.875970639910271 0.5111201389549843 -0.06290718104718199 -1.1525715540380794
P 1.04739640721545 2.912568589982913 0.7184336471234617 -0.6648690226760872 0.04498684912333543 -1.0522697343925234
P 9.093782667880935 7.899363643208426 6.9681366310069945 -0.34055084124243284 -0.20786700572174524 -0.6010298167329391
