# total energy = -381161.6460094581 ev
CRYSTAL
PRIMVEC
9.31621639086071 0.00000000000000 0.00000000000000
0.00000000000000 9.31621639086071 0.00000000000000
0.00000000000000 0.00000000000000 13.63522438561739
PRIMCOORD
 96 1
Ni 8.381454910107918 5.00574264477325 13.563502286148696 -1.2884708111722711 -1.3533055482594694 -1.0314612822876044
Ni 4.356840245926407 5.383300933979256 11.960013806331304 -1.0549331401572992 0.5899761300219387 0.23586580492751635
Ni 0.5073816235693582 8.668357100607787 7.651460439986006 0.9835343766993384 -0.8958317338750315 -2.0731162172787583
Ni 6.226334643568931 3.9106680252672397 12.427292846148688 1.10805650234484 -0.2449816511858555 0.7792568881010644
Ni 0.5073061622190838 3.8766265716990325 1.4234218604954476 -0.2008178121844477 -0.07315636957901595 1.632095920464654
Ni 5.30221258919062 0.05604915082167686 2.940640316138698 -1.1934978599387962 0.0605484510070183 0.41962331919556756
Ni 8.407326042171112 3.5928266811548872 11.439257822952827 0.5452440772218867 -0.9802803885384149 1.3894382894262844
Ni 3.2605452021134917 1.4888524409129607 10.36638374637321 0.9231566469422294 -0.10616162086044297 0.010126804021356753
Ni 4.301334230502384 0.4327922711203989 0.175937672353847 -1.902244043613808 0.10310406498104178 0.9063213205524455
Ni 3.0584298941873107 7.167207254464932 0.1233112993211574 -0.4516584932542415 -0.0999943157074665 -1.2628968193579089
Ni 1.5648354992879745 6.682587010030179 6.7584899489468775 0.13168676171474097 0.15776134731460573 0.1292897222374741
Ni 0.5901124172534724 6.221443630125223 0.9309396613080364 1.41723757102674 -0.7055898974342171 -1.3426915201890488
Ni 5.0071028123214045 6.216412873440266 9.930628918538336 -1.7617882774571851 -0.045275069787715574 -2.250151325221312
Ni 4.911555700171559 8.946660423662813 7.281386798781285 -1.0697959162017447 0.011577420424954256 -1.1246146638138375
Ni 8.10234107625365 7.26095633691071 13.275308868099687 0.3437066132625951 0.32556516646687805 1.5095725704167355
Ni 6.148851674404514 2.1712466365790983 6.809785034701269 0.2359377958160324 0.2535727352889762 -2.1896941483765193
Ni 2.513980910065904 4.687323695263736 0.6801443294820324 1.6975891170714572 0.35168114682763946 -0.8831289415963822
Ni 1.931205012977994 5.949307642117311 12.248972085720746 -0.6512912839916525 -0.40923477687239196 -0.165687801250534
Ni 7.062092388397586 1.7310926915097131 4.75428865647016 0.16514427004223817 -0.6645432639055523 -0.8212782268381728
Ni 5.144135034689978 8.118057532786098 12.779845479765635 0.5412452404751389 -1.6986121590193326 -2.7084211531444837
Ni 2.3538444718108638 1.228408304089531 12.731931248827856 -0.5969903565562429 -1.2185972261095852 -0.2870148169975057
Ni 2.395087360411426 4.476665417189212 3.0807562060308276 -1.1318680029421408 -1.7646540290407546 0.5006974009597635
Ni 7.226458388754423 5.038097863230389 10.294989856040806 0.31179125261123725 -1.0864456089432837 -0.9207092138430013
Ni 4.489791965650515 4.67402013869685 2.5913874862584394 1.5823805555173973 0.9961134989159295 -0.9768525938037887
P 4.218326745200597 7.673701974263165 1.6670968083690212 1.7036592345249368 1.9242642566386408 2.0114115411801103
Ni 4.215038120923208 2.172187574403507 7.8148240154922854 -1.418937327326666 0.6271756218903715 1.5158851428983249
P 8.110949259914577 5.3583241586600545 3.968681966060875 0.4583567312100235 -0.4438068584203066 -1.5357715974096067
Ni 5.32746885099232 3.5798678245830815 4.72768620144443 -0.226159633383346 -0.22083642139821968 -1.353758833746804
P 6.227909084087002 8.665934884426141 5.423151048275373 0.031101863611127076 0.28419225994704606 -1.2498201886796088
P 3.7537084166965884 4.224363653222546 9.867688562679877 0.5239735978788848 -0.7652538889537531 1.500915666072686
P 2.4441465543058376 2.0458783167467587 6.700144350860678 -0.6037418163474634 -0.47546793696901335 -1.2512530644713935
Ni 6.535549171588192 6.6683331994228014 11.512096658399742 0.6691807626775637 1.5117500376840287 1.4063610333235523
Ni 8.246565417438493 0.2846038799921302 6.359046004918092 -1.089111585811221 0.5743793040249463 -0.8489975471303121
Ni 5.9847372118819235 0.728077192851979 8.802382048424686 2.204242221394023 1.514617846150127 1.6485255267755867
Ni 3.074947545302919 8.307418940894305 6.090090573081001 -1.352509277610419 0.5104189991229016 -0.9114537566830045
Ni 8.023442042244577 8.776304096364443 11.795668301649847 -0.935546278855834 0.3798344693334039 -0.5760775176629757
Ni 3.8333900128566536 2.9561098929449394 12.415416533885757 0.135379894295612 0.6824977915014439 0.585763891712804
Ni 4.364470226898591 8.79362294206321 9.743389744453895 -0.047794750885775755 -1.797226563660137 -0.7535008621828829
Ni 2.4611765973060247 9.053638532946811 2.840040088385295 1.6154315724350952 0.08180787460642684 0.15757519944572862
Ni 8.772307439664727 3.7180459415298945 8.881453432431298 -0.07912235735446374 -0.6818408746437354 0.58308043134337
Ni 6.083246880746245 6.146084758227788 0.10211224962371451 -1.2715547521432229 -0.9575166124793381 -0.0681396330907149
Ni 4.16372440273665 2.3437177449283673 3.0334559137329338 1.5640506468599578 -0.38831988109659576 2.534917455393957
Ni 1.598252766378604 3.1315621904408495 4.885487064327399 -0.7160679141474056 -0.8620510378801606 0.21264051585098864
Ni 0.9745973131173781 4.619734547579733 10.609962737221126 0.447974359534435 0.4756384011086067 -0.7459922125106636
Ni 1.0520057525531297 8.441190487633738 13.25504702974022 -0.2625978216057219 -0.634456986043133 0.25394066015135625
Ni 0.04849649444298341 7.8387294259619145 2.1887806868693898 1.0374390971375937 1.3944696812026047 0.8732163104683607
Ni 7.494560455198287 6.6543309266496715 1.6879865596924999 0.9421195611979775 -0.9722032679572353 3.147885418325379
Ni 8.025976053019223 0.3229019126887762 0.8916084602477575 2.380188724258088 0.7609174663619283 0.34871435088983166
Ni 6.34213520948377 3.702105895811448 8.637382545374187 -1.4270980087605873 -1.162957525258094 0.2668126310180179
Ni 4.287797768533418 1.2139309042961555 5.320913961356142 -0.07231921838970126 -0.1357868999260436 0.14825675025828017
Ni 2.393345228003857 6.6581226265955555 2.305825899252951 1.2400376553715482 0.6425976128723965 -0.41575329471720013
Ni 9.168628588062406 6.770261919589675 11.372362733367027 0.445693019699426 -0.9948081498409447 -0.885533951493449
Ni 1.001996304618226 9.037596008851448 11.00550691319746 1.0602805205121417 0.8712054506859189 0.796537529558383
Ni 1.4002831746094713 7.314897228032747 9.437088397203867 1.9715964660657013 -1.5008164214906603 -0.33694384061746485
Ni 7.920581700469377 2.6686859943444086 0.4780225002045937 -0.311264947794122 0.3696307893275247 0.3115853072480182
Ni 0.31278450202236313 0.43344067975979333 3.3911483037630115 0.7685492718755732 1.7160622361749802 1.4483661741107443
P 1.9747396907350365 2.0723363704231983 3.084260034899739 -1.1914124381646773 -0.49147819635434065 -0.31459632616020017
Ni 6.9423696955116965 7.871513190358882 7.334809708289093 1.2397054688431102 -0.3798632656888103 0.982349612362618
P 3.6417647642402162 7.315549363158574 8.252773743836375 -1.1443573936584033 -0.3589648249732463 -0.5802434761152071
Ni 5.3544765614176715 2.260197867742001 0.8120880346259324 1.7602042207995168 2.2529587127631197 1.0205927150042164
P 4.7966494910007125 4.257836817609674 6.580659221484913 0.9543022193070985 0.47612845337114773 1.6747335526295222
P 7.616956902100069 2.0351553520349346 8.213313047372537 2.4125095478779803 -1.4034847402170216 0.8753127879860731
P 5.245663157565272 0.48018665720073345 11.27784413147277 -0.34052513021082004 0.9458453467889968 -0.19653666831059055
Ni 9.09146237024482 2.576856052411781 6.454274502477889 -0.21920531355269993 -1.1223364093026218 0.3201429670100422
Ni 2.3323985423872142 5.095420540790646 8.563383841024905 0.22779665476613672 1.0370369766031688 0.3546649120463118
Ni 9.181317274367798 1.2707877710522504 12.60524654766295 -0.12107504763716567 -0.43549576745144997 0.3602742878132892
Ni 1.252751576715072 2.3108687670188157 10.879681167155434 -0.8877749250088259 0.26393659502180356 0.1379697665099753
Ni 0.49519508131085455 0.9940029912187947 9.14457225489223 -1.912281373245152 0.3976565851164893 -0.020686581815074052
Ni 3.1912232382380035 7.982655648232094 11.520346167741463 -1.0853842575583048 -0.27687644301192316 0.17912207237856892
Ni 7.867973028247246 1.403879234017607 10.676625853026453 -0.5269450218023828 0.8584826038026119 -2.076666396523862
Ni 0.9475523378276937 3.1782830140983647 13.032955891288328 0.938473479804958 1.1102321698399202 -0.5726075568365042
Ni 6.491874750589901 1.1276813757973962 12.747884337248818 0.8867603677013824 0.56994800772647 0.12411512001507011
Ni 6.698545688180792 5.449408803306022 7.4544727773920485 0.02182815161868499 1.4796282174488196 -0.840562014768449
Ni 8.356291810467052 7.27229417188403 4.913071448528304 -0.18547526829010638 0.4768141665842627 0.9290714697647676
Ni 3.2544803454432936 6.472851037347898 4.527466743491192 -0.595842873215361 -0.7548861725661837 -0.312862631298545
Ni 8.742467599550068 8.283336522319095 9.538125555491574 -3.6638091493165934 -0.28800983392092333 0.21403919597072815
Ni 0.9358045893467113 6.06233197563934 3.819757593862029 -2.1045518100802205 -0.032744798531188765 1.5179512813987341
Ni 3.1154171879685713 2.16801390959821 1.2439999233264638 -2.3725656604951912 0.9445448828100184 -2.8831679792734928
Ni 6.955934106128914 4.410939512721859 2.26133351448255 0.1469074353192373 -0.901287357672964 0.052542035762774025
Ni 6.320922185462202 8.437026139044525 0.9594947952248161 -1.8086507463366788 -0.4964602229499644 1.1115663152703115
Ni 2.618238684253592 4.443229517666415 6.393488055777879 1.3998741400476278 0.30509481442766806 -0.3158201712649722
Ni 8.933356867095927 3.018677600160069 3.3919662675351208 -0.5043344834917185 0.18531817388695182 0.6277554056532415
Ni 7.399302145747022 4.196675859023117 5.5233022344135625 -0.014970248156587122 -0.5361703970553928 0.658256402455576
Ni 1.5595159399044367 2.7583359417135553 8.495426702805615 1.850932023603393 1.2171988031001617 -0.5901193404680223
Ni 1.160399926681782 0.9164119539478112 1.1935675191813802 -0.8371679014852356 0.39086115946121075 -0.3309400576255461
Ni 5.418842298336868 2.8582616754225305 10.551427088326827 -0.47709904481453314 -0.9526178896261399 -0.10887567735749636
Ni 6.194612927805453 6.475068296775711 4.156807112294834 0.2893334378283533 -0.28377625545554996 -1.8132774464754127
Ni 9.497416486072582 4.806133398973465 6.522191580968023 -0.3313578618892551 0.5328675579344049 -0.17879142851202756
P 4.804968871963058 4.4707962010567615 0.3320122403965896 -1.1777048587705974 -1.0220749559766977 0.8449943395081899
Ni 2.6090528951955045 0.08934903358965748 8.405937925974708 -0.05776034673891988 0.6821483785818251 -0.9258516772758892
P 0.09436581595048937 5.683264459427846 8.536004413577833 0.9686109226202866 1.093102195027853 0.11676639295948277
Ni 4.972222899305704 6.776867116792703 5.932890606135403 -0.052085150731013524 0.14339016619459824 2.44791081019541
P 0.6132548296258821 8.662459935827089 5.300161158409088 1.2732197985504718 -0.25635929689517784 0.508924416855246
P 6.4667489158133655 2.105939961835493 2.751315241273216 0.38483372232020824 0.14610782223607738 -0.6620032710925179
P 6.957974357451146 6.9397332063601365 9.353818194608532 0.4144595156064411 0.8733368952066249 -0.9510639148754589
Ni 7.585551937683422 8.949958364156286 3.265540557177332 -1.6261990953642445 -0.22109970236193535 0.321652204565717
