# total energy = -340889.90135425655 ev
CRYSTAL
PRIMVEC
9.10722267073572 0.00000000000000 0.00000000000000

0.00000000000000 9.10722267073572 0.00000000000000

0.00000000000000 0.00000000000000 13.32934095079520

PRIMCOORD
 96 1
Ni 6.385019287393535 2.1547780303591213 11.60769647426555 1.1559165592509124 0.6705974405194322 -0.846923952430735
Ni 4.696594816827481 0.4316595943970924 6.115208703636833 -0.027470180395810756 -1.7846860079909652 -1.0438110621022088
Ni 2.706748592038935 1.402867498524895 4.757095008853206 0.4625471151422873 -0.45933426463194443 1.0593448960717498
Ni 3.702505015322756 4.2907678600063655 4.758587682676124 -1.5849696564008122 0.09194753414359004 0.44067988275555076
Ni 4.908966146153834 4.397122008292018 2.6757721950048547 1.5639994819070482 1.2168743298812075 -0.3966111745711105
Ni 7.450874004850559 6.1635680568991065 2.5574602631347636 -1.323334970039308 0.042111070237437154 -0.8229247613026602
Ni 5.329738055649787 4.534750359798509 11.652296365940881 -0.47939992503356793 0.044395238285923545 -0.4769668901120431
Ni 5.75736770394169 7.803068526387019 12.351820330574496 0.06821805173713413 0.60798979299054 0.053603901368385096
Ni 1.9231904608475718 6.68269797303019 0.36649012922304913 -1.0083815176500053 0.4306168420925938 -0.0792858795155215
Ni 2.735664024545096 1.7076407107512508 0.5696576991507477 0.0010348690224175725 -0.1073211883861829 -0.6309908818714036
Ni 0.4898884450473733 0.2365582917357581 5.23560488968855 -0.8672582931127129 -0.17713666651742396 -2.117994822959004
Ni 8.729482554993073 2.579092649538507 1.3517951035796036 0.18731155016789675 -0.8705089388395265 0.44746476688786807
Ni 7.11372461544014 0.45815614851785613 4.841576340052231 -0.8521579471361647 0.9831042311404553 -0.3696588143519827
Ni 0.8145909930070305 7.597682436976328 2.5743086253824483 0.7672310672847819 -0.8684934510713945 -0.1041157940750078
Ni 7.850990732953136 3.8980370896242604 3.6778982099405835 0.10725819635873139 -0.209722056652613 -0.39221664504784065
Ni 7.568648610573292 4.005192673519534 12.82202624562744 0.9205739738167177 -0.5068369381985981 -0.7718407981426514
Ni 7.796438468161985 8.898722076965354 7.440611986158294 -0.07480444670540021 -0.653703492977571 -0.2524864442033329
Ni 6.995503755798415 0.8329393148559007 0.5574531098274387 -0.7225008142569429 -0.11379008393997822 -1.278628885381185
Ni 1.9007502637782236 6.402149973549154 9.286779020587721 -0.19690767849676408 0.3678942662523922 -0.03180454610510652
Ni 0.16514036097353313 4.91175295634183 1.3457306038927208 -0.5458529144504792 0.8428780644961354 -0.6028465582267036
Ni 6.3620873002910105 1.8994570381354283 6.84630923128946 0.35184698298154243 0.9054456028157116 -0.16015890101250482
Ni 3.3838706099391156 4.61253515004579 0.7309967053122899 0.4055215896868629 -0.7552458698984477 -0.4001816655311882
Ni 6.067432212636103 5.7182430746357165 4.871687550916835 -0.4094810885552432 0.7321252247205843 -0.5982813074535245
Ni 5.146983414988013 3.2112158794031154 9.041492366485379 0.27139896483711967 -1.1957154364154052 -0.7841023891188238
P -0.0614883257034951 5.711503729736643 12.474744160089035 1.6885905131172727 0.06735390396462593 0.35893808550036893
P 3.9714504129099817 6.130372229659749 12.724615390167314 1.2337322819788108 1.1904847841440853 -0.7544051191647072
P 2.547955054660219 8.588602924933921 1.2029903682080552 -0.6958341035990339 0.5993591138987354 0.39891102634888076
P 6.546909280536691 7.810654843009895 5.992191980449363 -1.69510311742481 -0.8955854221921801 0.4863303336048141
P 4.720820029572801 1.278972839055977 12.499430198309884 -1.310704425759491 -0.5670691435167782 1.3193551594559536
P 4.059389756620058 6.165635396483011 8.168313698248307 -0.4091273047602502 -1.2027939405287416 1.3771059931131766
P 4.792794411650341 0.807325250628002 3.7862131433029536 -0.1126307735245544 0.25223499031415914 0.5741443051960048
P 0.08731003461206784 5.803286321483757 3.6778717989943575 1.866969793792546 -1.0489432411224515 0.09164131575708087
Ni 1.5342391879426505 0.9379528799400083 2.6376366100989337 -1.2848077604983874 0.8512878858263855 -0.14273736310194773
Ni 2.0155103787420456 6.074954778699123 4.95162346719812 0.45501121177655834 1.5812513270089608 -0.40242186771561667
Ni 6.1173124721120855 6.040884658067454 9.265918015958237 -0.4289327695219516 -2.6710527397983546 -1.2441545057533991
Ni 8.831046304066682 2.2796107337802076 10.25552888527193 -1.4839186172940575 -1.2176831989357482 -0.052262813959458386
Ni 2.529950075112288 4.975804054551539 7.1532845699977035 0.0009078565262500494 1.3714737345280639 0.8725416529988393
Ni 0.3877955663269588 0.060528424416518914 9.314490478234886 0.7197656747139668 -0.09466647573664987 0.46399207511893
Ni 1.3829864310726274 1.1835382509513905 11.767529145769922 0.8952483505677357 -1.3527843856486765 -1.6007695995475464
Ni 4.179787242519726 6.932235878752651 1.5852988327759705 0.2600732554116553 0.2037290722939717 -0.06434031394928275
Ni 5.3760209621053185 7.862502262618581 7.965414791394287 0.9412494998881984 1.3443624801335687 0.26331104562266267
Ni 5.407131235315097 2.8421183522819518 4.741033510658603 0.39476975048699753 -1.4310330821489354 -0.14855165579087964
Ni 0.3871644357843834 7.331551171245608 6.6763475065462385 0.7481051450886084 -0.39476460828067494 0.7561611826238654
Ni 5.019017826911141 4.397777728336253 6.8053485858596305 0.7404555989631506 0.5350098010883882 0.9429777954332147
Ni 8.467877579012136 7.0521597890648176 9.18750209516838 -0.01388241440904706 -0.21641772350523375 0.1850518075994426
Ni 5.081302123890554 0.30991970385131057 10.560210114547637 -0.741226158580588 -0.7139146152498286 -0.6731680294600859
Ni 8.125163676448562 7.331614921805464 4.718306436069902 0.6227348125101986 0.04237897918684314 -0.817212027188599
Ni 7.467093968722519 5.809670484692205 6.996597533261089 -0.4692854623073853 0.7871648300942313 -0.25419982735001384
Ni 2.1425106011982398 5.50036187549323 2.584558804685026 0.6553338294921423 -0.15859155652538495 0.954093445730402
Ni 2.304737561586349 5.395983994563115 11.706240268246548 -1.6751413295909023 -0.18956357942686708 -0.7786012567949364
Ni 1.1965251507163626 3.1835754580940763 3.9554954692225666 0.14536194520898837 -0.19868791032563848 -0.8463793927811746
Ni 3.656531754443669 2.5158429869384165 2.8747786748185167 -0.7357232264844878 -0.23952782716013588 -0.8392785200703353
Ni 1.0454545383030713 3.4506447677769656 8.338009492084701 0.06508130588036533 -0.5726929174614589 -0.061686421266203446
Ni 3.68280609232722 2.349007771794994 6.999650274355913 0.5312472487221624 0.585209818981547 0.6645124106676169
Ni 4.071429505210024 6.879004161272805 6.147039358172986 0.2740957949429925 0.4006483207549616 -1.2651498770581437
Ni 0.8189606385240246 7.645276783520328 11.40461086934338 0.15873965206747498 -0.7488006284937362 0.22544538092514077
P 0.3323298470852981 5.522483319763296 7.983595540342965 -0.02520580984166627 -0.35556325549086504 0.052900447543457275
P 8.744345542662382 1.640247261760513 8.043524709496836 -0.31230007392685577 0.5464841202765749 -0.11098063951564113
P 1.6587440313416195 3.103632256034523 10.520396068472932 2.180482914190896 0.40864548002782525 -0.8475762413027531
P 4.081584058672818 6.200998742757475 3.836970428338099 -0.24030018654978613 0.3364000522988529 -0.6561545256212248
P 6.749945706455543 3.9908852264432566 10.138990129688123 1.5326037412045863 0.4027108597109451 0.8167466575164062
P 6.632799499108534 7.8885124910398705 10.06198673916022 0.12439614159059866 1.4015070476653606 0.5741270788048242
P 2.23449355184776 8.146301540652278 5.820123755064039 0.2980955002916995 0.8596853658614614 -0.31486654910245127
P 6.959402724474188 4.129233048553837 1.5523215788846922 -0.7225242112957104 -0.2632236281151789 0.8430881236244125
Ni 5.118778345863106 2.952015210251037 0.5873493902331001 0.6304409229052046 -0.170226569661152 -0.14185830293110407
Ni 1.5570345667026255 0.9838259613678928 7.071495333869173 -0.36357584138269644 1.7053777598779403 0.36216250597493754
Ni 6.83470662939565 1.2949195862428393 9.155617708017491 0.254866000179103 -0.49818723294340006 0.8224822744486028
Ni 2.978508121482666 1.6023976436516612 9.39946451018937 0.0019285844812805496 0.17159696764611737 0.11560245455836866
Ni 6.322061055924215 1.945503156797208 2.581720083326862 0.765003977726476 0.7157799505933414 0.539010180497033
Ni 4.053133094531323 6.6535821816216245 10.425570753576114 0.26139865909129817 0.9984380332840483 0.41155056948976215
Ni 8.013500017249179 7.452777414423406 0.15131741815216265 1.389918828607129 -0.8826322044656219 -0.5918550922122064
Ni 7.560625147254259 3.6473607810472264 8.094882160516914 0.4442552588116349 0.02621702471500001 0.3709312533065031
Ni 3.4363919640377083 8.299712709334571 12.300543023115381 -1.1988033313121096 0.8134124509368507 0.3472611633830729
Ni 9.080238135321352 4.507556192408463 10.517796867075372 -0.5053606107633878 2.6319891981379895 -0.24438206992864364
Ni 8.819753347749316 2.48526093265316 6.053226766455595 -0.47231473605201235 -0.5223170361120683 -0.5885095727787414
Ni 3.4491238615632556 3.1256535208533887 11.915937716948077 0.573648853616825 -1.0676642145707225 -0.10626343654562988
Ni 1.1721633296284943 3.326294747166218 12.564996738399602 -1.6203130688971126 1.5206481115046069 2.2312105224527508
Ni 2.755071516409861 8.479835362596573 7.9997645037670395 1.4025185196490104 -1.2220106226665082 0.6215091676332135
Ni 5.730137107660298 7.812275928674808 3.5103353276925184 -0.4172998132687135 0.5329768298187595 0.06576830464506093
Ni 3.07008124710454 8.355121053072363 3.394210040025492 0.7890723315295893 -0.7169474885388814 1.162135800687747
Ni 3.420654682976087 4.382158841171507 9.831735199238796 -0.9203731706598214 0.12223512938353787 -0.8833657401975367
Ni 7.236617480397034 6.200242843262038 11.368181977997036 0.6990772931266799 -0.6582152648049955 0.17318051008315338
Ni 0.4809660988343698 0.08978719922361926 0.3421119151340753 0.46651869819552566 0.0931721505793105 0.7074819722506074
Ni 4.621587729545357 0.4669418863883108 1.5482160428299592 0.2260593603600558 -0.9813329981726455 -0.6320254937835051
Ni 6.0093099164930095 5.705921002137814 0.2735363486191489 -0.18760465592828335 0.44980138544084475 1.3592041731320914
Ni 8.019055423179497 -0.053032269299724856 11.567895178302818 -0.7029010377481443 0.16684042679773844 -0.7934856301059366
Ni 0.3593764774653917 4.678908590078831 5.712209539506477 -1.3572871586150368 1.1593363835657389 0.6495892136988813
Ni 8.094900374962586 8.776384752601492 2.3274099928380303 -1.3508748273307896 1.074929380773568 1.0185887972003103
P 8.407287225480328 1.6361490114840496 3.4411422914692715 1.036621486332305 -0.3565204771978118 0.6635202219576767
P 1.832628236960559 3.4715640586326044 1.6805367048672866 -0.37275853632322903 -1.1727529140819608 0.30410879636531496
P 4.8488949043237115 0.9168423374048016 8.323720259454097 -0.478700070753066 0.9841259875367503 -0.10290223338288083
P 8.468241867925599 1.8570993447224664 12.516491669571945 0.0425404444653719 -0.2545790650663035 0.5290700385651855
P 6.316323505537166 7.8034146008548095 1.2479581916859828 -1.1205867736013668 0.4663793444041838 1.2327323799593866
P 2.0489703154436634 3.2891554924386197 6.108277196335908 -1.2672011031602177 -2.1132760773270958 -1.886014726239139
P 6.9729724865007015 3.974346509772016 5.71023600431779 0.82919079681703 -0.769624764327939 1.7538389407031216
P 2.3847809430971045 8.71924603652475 10.25786124504038 0.17615090556538696 -0.7144769155112018 0.34398274974211723
