# total energy = -340891.8349683908 ev
CRYSTAL
PRIMVEC
9.09915527277842 0.00000000000000 0.00000000000000
0.00000000000000 9.09915527277842 0.00000000000000
0.00000000000000 0.00000000000000 13.31753349842062
PRIMCOORD
 96 1
Ni 6.262657214137142 2.1865087483984826 11.607122336798733 0.5944688756859698 -0.24848837878753333 -0.4456356840989293
Ni 4.559804950654776 0.14988037125879106 6.0219490776596905 -0.3330306216059878 0.5682788475541632 -0.40204700087470113
Ni 2.786534326620695 1.641988015681563 4.692193106339899 -0.4431162601111852 -1.0091754743062105 1.137058546004145
Ni 3.3208731048916436 4.370715410581746 4.728070164592819 1.2063065816676901 -1.3952613238659648 -0.9115434881833334
Ni 5.289184116369322 4.398158462064362 2.9200289395539234 -0.18455867001310797 0.5448928645300551 -0.4727554231338567
Ni 7.471425361072397 5.915415260994032 2.487195784895153 0.8214582040594627 0.5635714147761649 1.1642926991297498
Ni 5.294279643169808 4.6844997707866645 11.88604510444883 -0.3273292003458363 0.029016956057640347 -0.4961030967208618
Ni 5.6662712979152765 8.18871174979079 12.309169460721673 -0.9786893899022113 0.39779336780466973 2.9663403383276137
Ni 2.0199305177975995 6.464858636566421 0.43118438777261325 -0.6200760347311127 0.20156343210122063 -0.09945592670549323
Ni 2.584842456871464 1.5231621505252328 0.17721150313489703 0.07173352108956033 1.007756739581813 0.22213354294308843
Ni 0.40431094339305085 0.23837420321972888 4.764387621947782 0.32451307105327987 -0.6285678742522078 0.268440396429428
Ni 8.538292185769123 2.158574342545819 1.3394638597902173 1.462437564602146 0.5570796364042342 0.3645968264480431
Ni 6.956786253378327 0.6358407622211272 4.787932595428027 -0.7389067664187919 -0.33802241839362435 0.29067143991348654
Ni 0.851686367574208 7.4355291945939745 2.6842552748334425 -0.5565867559282156 -0.18013174459000592 -0.01617583842891408
Ni 7.672443893351564 3.8830643966202487 3.8180172672655464 0.6268372647143462 -0.5961501200431346 0.3162330904326747
Ni 7.54581095320449 4.019961183608301 12.765880617933721 1.0388773722460174 -0.23936096256496844 -0.9412451290128241
Ni 7.903080175158555 8.866407715100408 6.947330411501425 0.1411859594544278 -1.0260923046662072 -0.313226442395867
Ni 6.784075192306859 0.9795695316184015 0.43571121738554486 -0.7315611246869982 -1.572012582019512 -0.2567426483765256
Ni 1.9042438611165688 6.377752425743116 9.3172926833654 -0.635054510417816 0.22846077071269685 -0.3444625175920132
Ni 0.15040721233334128 4.603553687898947 1.1666636269997408 0.4293078934731832 1.0525499846371034 1.3448764436555096
Ni 6.434813226753557 2.04468931855496 6.896271413129557 -0.3637295933517413 -0.5256214178949529 0.8784608466967516
Ni 3.661590963899131 4.701260414298263 0.7799249717443655 -0.2653260191701624 0.2761632189949825 -0.27287092139695585
Ni 6.2846498717742385 5.810356417354015 4.648245097601208 -1.331630377278881 0.2314496781376917 0.10389416498250495
Ni 5.4633783397059315 2.855469524907268 9.287541176259063 -0.49024406683692345 0.6008434117537458 -0.4613860049546505
P 0.2658290836038467 5.68360518819193 12.52568567379832 0.6230883391948753 -0.6107084774732837 -0.2648112843172729
P 4.22497424493285 6.399526703660192 12.740776959201828 -0.879657438108014 -0.25159452851668285 -0.19911805588452158
P 2.2962718551739485 8.478356051778407 1.3125430998046506 -0.0564673389591092 0.47391781887307405 0.3321525898764086
P 6.229163224578948 7.823608155380978 5.808122574801303 1.1180133564472359 -0.7805136433263009 -0.4715932845049556
P 4.727939136760807 1.3262382379964561 12.794167161084918 -0.8030154239732428 -0.3620491203255249 -0.5831431662605053
P 3.7962675570669724 6.230628188534088 8.130567239419745 1.1533210306095945 0.45750955271837984 0.7827798136526583
P 4.633881171516839 0.8259803447812568 3.7730965588572634 0.5681441217485118 0.3893033280557876 -0.3021730127951828
P 0.30091724511819234 5.46745476114632 3.6548239223249857 -0.3520076769291228 0.5175527819542054 0.7491628969291614
Ni 1.3779032400913827 1.0202063578522762 2.5471646758438715 0.22013939533119506 0.25211466268621097 -0.5498401812330015
Ni 2.0976645989700113 6.475249871577413 4.90081216279129 -1.6166353629352095 0.8264309746837057 -0.32181007029982
Ni 5.937307827926119 5.612540787635154 9.146615283436626 0.2947260695988344 0.24128774727403604 0.7982102892751156
Ni 8.479265967278494 2.4734960971258473 10.143538723472684 0.461639001505721 -0.9212108360697683 1.196289049530688
Ni 2.700347130452477 5.033770835494968 6.749339168091047 -1.5202950990405624 -1.1967014544777583 2.000386650824516
Ni 0.49231069123744164 0.04188523029999374 9.403283337785599 -0.5763873355939105 -0.4363645432096485 -0.9484305910176698
Ni 1.4782669197509521 0.9635550188168747 11.174196370758956 0.2758397742172927 1.8557996361083393 1.9959478983268721
Ni 4.238158920529107 7.095475573901551 1.5826560655829056 -0.7495945851499413 -0.4448095886532082 -0.794779923437328
Ni 5.670211232030653 7.8619246970896315 7.950287501218557 -0.30138445545561643 0.04641046894373942 0.8477911855270367
Ni 5.239793903024612 2.6688276575294716 4.686359638068842 -0.11792338938206144 0.8526030050933833 1.4571598611429744
Ni 0.8502723588870732 7.266585183692865 7.02499897875783 -0.15972181347508624 0.12329699498914895 0.1291079452439712
Ni 5.212232562526983 4.5081854443348535 7.062993410379453 -1.018161994075537 -0.3521876541504128 0.32631052927333476
Ni 8.089221589011304 7.374300980593136 9.468872776778353 0.021560499779595125 -0.2428165252137367 -1.1535673422924455
Ni 4.392198515538794 0.5288811051014286 10.545315552197993 0.22671499166618375 -0.7074629460872138 0.8560549681977256
Ni 8.267319349843286 7.2379774403701385 4.861858680232577 0.4430836071010369 -0.3028921503493945 -0.31665398002017725
Ni 7.1778320258144035 5.975096618644724 6.849832965667129 0.8690652644144645 0.6779577375392454 1.4510522055833397
Ni 2.278446610527249 5.292532605409641 2.7298010951902856 0.07823429832255557 -0.16900118189448313 -1.0499770817036047
Ni 2.5758433925756057 5.199548340455776 11.582045065616343 -0.32395411322601625 0.5037019921140422 0.20951816817192304
Ni 1.192853724838738 3.23042750418302 3.7613104233846393 -0.8148823506141578 0.760653156956948 -0.31184935954268234
Ni 3.550972536553584 2.6468895948223796 2.698331667619785 0.2998772747824706 0.3425210775949262 -0.48605162602213065
Ni 1.172999368626845 3.017479979697715 8.217197564436507 -0.24227093712291176 1.1859064207447834 -0.2218432653961792
Ni 3.727496143570415 2.539874432857176 6.850019498344646 -0.3083403179481593 -0.1354462287571732 0.5837633163430076
Ni 4.165456672072175 6.6445214520585525 6.004716188003547 1.810420693752908 1.3743394861116331 -0.24379123042218012
Ni 0.6850389833953182 7.585619756333286 11.533263585741192 0.010027816549647245 -0.4668346867740476 0.09910342846208092
P -0.14998865120330135 5.752567683943505 8.341956078653402 0.38741536700445534 -0.7470317095187715 -0.45080540122532686
P 8.41943902314779 1.4348275537768103 8.080759374860497 0.05585593062735541 1.939304181690899 0.03288415232253047
P 1.8497126251963694 3.0694543530626714 10.474212935190211 -0.635836382889163 0.850075096465207 -0.994918450166564
P 4.06482911691758 6.283012023874083 3.7627753873397793 0.3202272991937324 -0.5955875626714452 -0.44626663281470885
P 6.8593616007840374 4.0459665686007815 10.540760515204557 0.763222460346021 0.8606428446787242 -1.0663964036018925
P 6.284504285294225 7.891733528872473 10.43284908647177 0.025414583418362682 -0.7094540083753136 -2.230622511159765
P 2.221767974026845 8.651731351164939 5.791582130840725 0.8387419308405748 -0.7644100528962191 0.10360825831096994
P 7.179633658504575 3.7942930404317843 1.5698308066091828 -1.6959626372116277 1.1729778856085735 1.0445620813356205
Ni 5.240221563309653 3.122293146152709 0.8038930559321509 0.6416599315494755 -1.25135822259069 -0.8460263803171301
Ni 1.2101785159603902 0.789116938126242 7.269135676839609 0.6654927723030152 0.3410172393558901 -1.1708330713514288
Ni 6.931099338810878 0.7476484491252879 9.47734227025316 -1.4657141784708887 -0.769314432176372 -0.8730995823848383
Ni 2.824259423254292 1.6312055170055348 9.120725457712657 0.5552022168758631 -0.3489670903305861 -0.12151753449122298
Ni 6.363257471826733 1.8976469737409398 2.7632013634519703 0.6501479144158286 -0.1160246296974518 -0.9742226123801092
Ni 4.150661446040764 6.86253720587934 10.501939880308857 0.1731321733437212 0.8011508599606783 -0.0644956085802244
Ni 8.438847520764641 7.1932641926958745 0.6050710596701933 0.6476434028264202 -0.10984035526361083 -0.5326826956171085
Ni 7.929813492551104 3.7255762218652317 8.200311352585897 -1.0300602881750196 0.9498876351791705 -0.6646358236193586
Ni 2.891538575330707 8.458055836971472 12.452985245172387 1.2663230714306384 -0.7063864251935835 -0.152427336696202
Ni 9.326087926589238 4.672406993790513 10.427348647273742 -0.2659453979217162 0.9868549564321392 -0.29922627146203307
Ni 8.635680441743409 2.3747156704364283 5.770380189773204 0.21774466984677338 0.4940392722132976 0.24722416736312905
Ni 3.7017091382979563 2.99172937104526 11.449882568975243 0.5720588834218857 -1.162011616405057 0.6094190692378988
Ni 1.0959477240794981 3.4662503043405057 12.560364373337626 -0.2060829172381289 -0.6602780608712951 -0.17107811902816988
Ni 3.190700593449232 8.452387063405931 7.981490323547532 -0.3298673933866577 -0.30221569310766017 0.4965903207699254
Ni 5.598318808368798 7.962670541259238 3.2409816140685264 -0.10311820604842886 0.32401581970188714 1.9328486558735425
Ni 2.8601646888877155 8.468383377897457 3.6149241276461814 1.352534988642032 -0.1831705314163297 -0.05738702255990117
Ni 3.5457223241180835 4.514909719880495 9.373465406847757 0.11268913756631561 -1.0932014396098784 -0.06953934165171893
Ni 7.495647311684707 6.31937224725755 11.570352651440228 -0.5953168255085619 -0.64868675648927 0.11842346894693154
Ni 0.48130708309489245 9.301611199636906 0.21625688715912003 -0.0489031534586061 -0.16350210645312485 -0.1623888187842881
Ni 4.400460548279582 0.5480211776457536 1.4782196041449478 0.03434402469750859 -0.6929364703362647 0.6683726649539715
Ni 6.182357171254486 5.699528709443448 0.5830137980325901 -1.02043973436612 -0.07789928358064004 -0.8675030621336672
Ni 7.968448504684789 9.189509610026215 11.472668672928414 0.02350502510047565 -0.7255894804845955 0.46520640714200523
Ni 0.2974986925843664 4.890058781411265 6.153472813619731 -0.5653346773241749 0.025328194352143476 -0.2649866335528727
Ni 7.8456463087930794 8.733687440257754 2.760018479032667 0.6949789546875902 0.373082495321551 -0.9922164778543685
P 8.602750599795268 1.7502588610368865 3.5039499233401004 -1.0566485801865093 -0.6191656071017013 0.5773694970015218
P 1.995508385775271 3.352146900629626 1.396010558543109 -0.44276376186777294 -0.25562139028788883 -0.2282478833709424
P 4.920258876859145 0.9082039490310968 8.432688302744554 -0.6444791461658256 0.4554650114845253 -1.6914876321594094
P 8.456172311886293 1.899357614881103 12.437124508090374 0.24226039559995055 -0.23713181612413353 -0.031677533608939
P 6.507324392955471 7.706729509394833 1.2878425336392954 -0.3268409478555081 1.2188214263052493 -0.14241803208931603
P 1.653671330702677 3.0922659346498462 5.962006574260474 1.0788641970516 0.17164299039270436 0.9398469631137168
P 6.913346887404185 3.988405314065293 5.943841021216743 0.6816776095929938 -0.35917359854994274 -0.5603937883791316
P 2.328182591761991 8.306027155216976 10.24986598931982 1.0816939531909113 0.3334029173437419 -0.32755957118908746
