# total energy = -381173.1843684754 ev
CRYSTAL
PRIMVEC
9.16790422518095 0.00000000000000 0.00000000000000
0.00000000000000 9.16790422518095 0.00000000000000
0.00000000000000 0.00000000000000 13.41815453950850
PRIMCOORD
 96 1
Ni 2.110176490436173 1.180101785747207 7.766736658543037 -0.9824457716208499 0.7562146615696203 1.4077237179990338
Ni 2.5564608949108765 1.4184764606737 3.5615803955337793 -0.7783729428342143 -0.33556855753649306 0.828327163265154
Ni 1.6030997137666472 -0.1279876086244304 5.7251645113991385 -1.7599548237928722 0.8898757734019126 -0.31782845994425263
Ni 2.800748867992348 1.1140287007814271 12.900737293508861 -0.9425561345147638 0.06835689130784357 -0.25604253698570745
Ni 3.139319567005285 3.9748731802557624 12.770956442839292 -0.3477820688835494 -0.7044956359287737 0.42194528246052493
Ni 4.537901675746733 1.2219991075584478 8.378497148363909 -0.7708036151273887 -0.5343477420243571 0.40739360989859513
Ni 2.1825020860092317 5.1744475943458745 1.215381714367342 1.9230283273490105 0.10196712316312115 2.066257285375396
Ni 7.734355621204458 3.7646164672537936 1.8394546994163317 -0.3995700000891183 0.03172484190710665 -0.33472472147895904
Ni 7.992477961597344 7.5601287713793335 7.524431703121909 -0.11444854345958354 0.05121406097996986 0.013038578351513029
Ni 6.728544860611191 6.199630136336769 10.118778045002758 0.59922798763751 -0.37581454954073346 0.4688283201653087
Ni 8.69124644543344 7.232880433949959 5.290804799808436 0.1003000198733434 -0.37373298442135633 -0.18926635990142243
Ni 1.9953301555719685 4.721956518784473 10.30859124861591 0.7827970400438389 -1.1511980707293206 0.10702036931631245
Ni 7.042343882702033 8.489745080862487 12.834169141720805 -0.3412254987119543 -0.5340278967910932 -1.3178500356653369
Ni 3.355113694093466 8.291553329677496 8.10978496192635 2.361860615372861 -0.041632073718489586 -0.7348804188682183
Ni 4.704244128031887 2.5964971321865193 4.419188318926296 -0.755772431825879 2.028488294156739 0.527115485941976
Ni 5.861967059831339 5.759323205345857 7.8718411784933195 -0.6142198330606519 -0.5570444122909246 0.08461089127286073
Ni 9.02105262811125 7.103695497047947 -0.17151315020671642 -0.45048504177143067 -0.9306169598750166 0.576036122902079
Ni 6.69563208483387 5.917066163569973 12.489926260431146 3.6466622052236617 -1.1549264274235014 0.5916023527714521
Ni 3.590939691675643 3.393105488751187 7.51448819431743 -0.8063668569439789 -0.5842752229824195 -1.1131316028749023
Ni 3.4816491067058837 7.819864662896678 0.48502063294666276 -1.669020561405145 -0.281196924764148 -1.2433456366988587
Ni 5.143753451364685 0.5559453727707594 3.982924433650649 -0.16922975296552148 -1.6141128536236717 -1.507031806272753
Ni 7.438525691181456 0.961850660355872 2.90388962288093 -0.44768768153195154 0.640323215015923 0.466099608380236
Ni 4.517952316389783 6.684447241812051 9.704465789343047 -0.9873918027722156 0.5884818048645994 -0.35515136476442705
Ni 0.7735235739999619 3.9589576987099604 3.0343012253536954 -3.002997070318699 -0.7902426976886068 -1.2657715698025425
P 1.8614695875706713 7.330683635062063 2.136384777933283 0.14352540622088186 -1.6360083681451822 0.03808909356223763
Ni 6.058050193069593 2.842902891118843 8.31611597838574 0.4458693973762901 1.840019233345631 -0.2972400942699397
P 5.991023646075724 0.43757031161221216 1.25425271102981 -0.33463678975084304 -1.1819754611214934 0.326998813589611
Ni 4.826213924394414 7.103530474773854 4.194219870188989 2.582604219946959 0.6454394531965658 3.3426837637886235
P 5.058721140686511 8.338786371684392 6.230746919697717 -0.48264311456121395 -0.9182383837050058 -0.7072444023185045
P 2.5588628857893325 2.4723270388360934 9.829133699886986 -0.8863009115664607 -0.06935653621695152 -0.9396698141059042
P 7.6520186743364595 3.661688407740708 12.92717111144723 1.96452824636501 0.3146906856462193 -0.6639503675165597
Ni 7.265398989850281 2.8027016315691076 4.461213991395165 -1.177337962349482 0.5870846674067567 -0.26497506358864686
Ni 0.47100840829539353 2.2708256742651387 0.7636039017461845 0.319066960337044 0.4784856407494147 -0.6591778858285808
Ni 5.895402406143285 8.404905296170753 8.18418892136256 -2.3898660994468517 -2.035134852938979 -0.7232806298457608
Ni 8.333010592091158 8.74221082441565 1.2196044510032844 0.28512351351206383 -0.8311533198600396 1.5986250424007178
Ni 8.992797147624982 7.495146667003387 11.09993997858909 -0.11152494205488535 -0.5999946906002054 -0.5011835965675626
Ni 8.895259815732249 4.955893928118703 11.336340803759354 -0.766845401810589 0.42278140520857505 0.10273793989087468
Ni 0.31405297303486296 4.782950584869853 0.27846041888436396 -3.0325323607736547 -3.015120078834478 -1.2027306913909739
Ni 6.867805324136955 8.816590030510747 5.10919045284644 1.555975068940675 -0.2895920908063787 2.0254165972099507
Ni 3.8964050889248196 9.071576947695876 10.368301808125016 1.0629380127396466 0.5750418773096097 1.0262378291051357
Ni 7.056682484739841 8.433683347191648 10.070794151648741 -1.4247953287693398 0.7310731293069861 2.129173722393959
Ni 0.5028732926322271 0.13025758168361273 12.703101117313315 -0.3712786093435928 0.628608497682156 0.28755192044789835
Ni 5.6720997655839 4.648659125375092 3.3144852102119136 0.2786008819021976 0.38117298563916935 -0.17836385405630573
Ni 5.0789363692628315 7.518964881897392 2.0528431684644097 1.4096103934987851 0.22884026553930267 -1.704217678131568
Ni 3.8213566258292353 0.5780042668648572 1.6707478446595978 1.8512590679255085 1.121716773440752 0.08199762201972975
Ni 3.2430910736970655 8.291259956745778 3.427922438213451 -2.5782040339967343 0.9789174467526174 0.4213099628693712
Ni 4.222314912353222 2.5416455618590237 11.272966749765397 -0.8068882766650879 -0.5112589785256937 -0.7696252785485713
Ni 1.1478215953539073 3.981629925589435 7.758779834560548 -0.6299781243361731 -0.56793637661308 0.5497018558829243
Ni 7.269836255442543 0.9393159520381412 8.246637017040777 1.0330391682976854 -0.3542887596538156 1.1783314366110027
Ni 3.4134857396015996 5.8116994415619665 3.075025055438057 0.39367985985692844 1.1948183785224324 -0.3987385053267584
Ni -0.11056584043232953 8.719639444481453 9.204505139848552 1.0527901256723675 1.6547933620621693 0.050739435336396486
Ni 7.931163018867895 5.254125849020163 3.758425381604093 -0.07699939747418998 0.6441299903565229 -0.23052742343373844
Ni 6.477225105072559 6.036230581272929 5.487676372800687 0.5880598868358323 0.21929633060460943 -0.03316980188374932
Ni 2.094444366972696 7.511603054892047 10.076631356199554 0.177148750702282 -1.6959546667918277 0.04139810333081257
Ni 3.672112314720879 0.7622791396013869 5.93223354413989 0.12377753416999329 0.4320461183399527 -0.0021031623859318616
Ni 1.2391522561599426 6.1968889330060115 3.9652661335323494 0.3392899722521382 -0.2542882732987621 1.6079154665637083
P 2.0541697641900307 5.075791778150959 6.171653360135635 -0.11767270682383606 -0.5714726719011125 -1.7852868747997577
Ni 5.650674373664234 3.3026091072197294 13.210588616087247 -1.6220789025482838 0.2942542721687384 1.011938381763328
P 5.371585036557496 3.5071817196696267 6.291142321644306 0.5282238885148064 0.7893204429846535 -0.12648053492345313
Ni 0.06219689510543113 6.143265861830093 2.0143068003021845 -1.3856315140856847 1.1861663592743894 0.17893335340653055
P 5.921842641614536 1.2756221787343665 10.401163243639285 -0.15969327422999594 -0.78984931890493 -0.3238983202874164
P 7.000373217657862 6.157219411895018 1.655786741932297 -0.32896467906673016 -0.37983009845802973 -0.04310685849180318
P 0.23212124752880225 1.779746890278461 2.788426288069702 1.2095340874660523 -0.23887862361191115 1.0649308747999595
Ni 2.917905514693846 5.802458194212791 7.9505109637148195 0.5457688393771052 -0.021430916180266317 1.1000799118972668
Ni 8.020430901247776 1.1723457388648633 11.34737070920161 -0.5110664028989134 -0.03745068864729034 -0.894525356358782
Ni 1.8552354127716244 2.424094695280527 5.683581648699086 -0.0016123387924423846 0.8684816239968527 0.27834942801302387
Ni 4.228255714220549 5.186540059875202 5.253354828283986 -0.6374800891401732 -1.3962270302133437 1.6501952011685257
Ni 5.120943705923467 0.8926889084933294 12.70332939812581 0.7108197783745887 -0.569499864445458 -0.13090411791244552
Ni 1.538942720761163 0.056451369595780225 1.4450817184190436 0.006455268707040496 1.809797458346612 -0.4367784908186155
Ni 8.18418800457215 2.6562626991203224 7.085778662033569 0.42753588917442503 0.4214323473798484 0.5044748657243249
Ni 1.5335153215243456 0.5916103533637767 10.602207129794841 0.5752416520252415 0.8379860265111568 0.1211542376145333
Ni 4.782574700801087 5.9600819696833955 0.003865188375409004 -2.433297945378242 -2.4277021964580188 2.0618023349278363
Ni 1.3440330792497885 7.655805018736469 7.897764344172414 -1.6250207587854273 -0.21666274963650425 -2.3267136351580833
Ni 0.11207946140192163 2.1333712878502733 9.56448747892498 0.015443074027947597 0.915453621871017 -1.5240869619828268
Ni 2.609946447525051 2.6650547191678013 1.5783372047486688 0.2910218812743698 -0.12761619118979312 -0.4180040384245898
Ni 8.843562004420741 4.164172064447995 5.551493236563458 1.8733304459032512 1.257072499366648 0.2930060015839341
Ni 0.6793261095767766 2.82281601320015 11.799294291498216 0.5508909910950189 -0.17147689712848532 0.35573037719634865
Ni 5.2070119897667775 7.431108856751414 11.877172886594485 -1.0108878290116268 1.9197524848112162 -1.5195772470379314
Ni 2.6612133673430947 7.181494331378404 5.785103351720739 1.7110722391595565 -1.493613218874002 -0.17462932671453796
Ni 5.995479247476219 1.4003973537564642 6.236100975701604 0.10830437823505865 0.8329898588481461 0.5176407136823215
Ni 0.43686254941443803 5.918624707269735 9.163324748139202 -1.4673553136187376 0.41179765250356176 -0.6207033839024665
Ni 7.552537746771083 1.4936899460433761 0.20975156148516383 -0.8436038869185666 1.611184624233283 -0.10843756137881323
Ni 1.7889789697235199 5.9653535145502365 12.643403392869972 1.4309158398447808 1.8762231940700138 -3.433755837305796
Ni 8.94184193654689 1.3060962920167656 5.218440699038089 -0.7163070267414051 0.20478990945831824 -1.9079539495143913
Ni 7.645188585769857 4.297418382873503 9.276426430850083 1.478112037914609 0.058830954095279324 -1.8741426573919013
Ni 4.520684351816424 4.18530408343594 9.423475945713012 -0.42983162718713713 1.153682013493439 1.4861066260843117
Ni 2.649542625403114 3.8413059851861853 3.890902512874249 2.1369744493853005 -0.38394489195735165 1.4244885961621983
Ni 0.23544736314217604 8.598045532187692 3.3643476071193485 0.6305699922839011 0.12774860300259935 1.0050542530489852
P 4.080615786332535 4.149182541217934 1.9012051175913016 0.8969038838932876 -0.48418860467146285 -1.134519067411743
Ni 6.437839788989169 3.3321572621863877 10.970562515700635 0.8563061649765834 0.2542358227942718 -0.15633721327356945
P 9.085979725062497 0.5604101420753709 7.135144158537902 0.9027899103604194 -0.6528930812611337 1.0611554669179273
Ni 5.648391565539289 2.4176129870703416 2.1200814940433643 -0.8455211585459373 0.47898237788017506 0.36217330460821495
P 3.92597157969971 5.2859843158241135 11.271289940102536 0.38871043166679503 0.515802117811686 0.5538652432319945
P 2.2637938918079787 8.116950595783607 12.10486603643514 -0.01583850969415337 0.8039960427189573 0.09988890047785377
P 7.840244913747092 5.460036975471031 7.1101992082280105 1.2142253222941348 -0.8860044633719644 0.332809249623801
Ni 7.050934208858956 7.813557144864701 3.2406588287350253 1.0521123828790524 -2.0933076046249695 -1.3876207766015713
