# total energy = -340866.4669254378 ev
CRYSTAL
PRIMVEC
9.30884823473179 0.00000000000000 0.00000000000000

0.00000000000000 9.30884823473179 0.00000000000000

0.00000000000000 0.00000000000000 13.62444034432789

PRIMCOORD
 96 1
Ni 7.027752296456902 5.283311351251184 4.867154631385797 -1.5356163027786651 -0.5185182311912683 0.5293857700333916
Ni 6.718158618066479 0.6857679637121011 4.435055577837943 -0.1479160790894098 0.6713083505435278 0.10453077012523933
Ni 4.292821960374516 1.6111847810900495 9.42420266683714 0.994720475223145 2.7518134040871898 1.6461955930908292
Ni 3.666224760307881 1.4307793000867899 5.005483186966825 1.2236669273230087 0.34472811254857405 0.3017500663251513
Ni 5.238535790692584 1.6834866062165879 1.095957711785792 -0.7050111421126115 0.7381971419462771 0.3888446432518142
Ni 7.480106473127305 5.361552221624373 9.467242127178656 -0.8265582442901895 1.4482599875501831 -0.19815157820619422
Ni 0.834550355989036 8.475669186354166 6.063652559764762 -0.47712886961120404 0.47565948415452913 0.48036537427063075
Ni 6.946309182251664 3.1749782152354347 9.869735319437408 -0.32405927134531287 -1.6013912922919453 -0.5878827378280198
Ni 3.527848729600272 0.10146923965840193 1.1818644187743668 -0.32428372865129307 -1.6316704028914608 -0.6885170011123304
Ni 3.049411159856024 3.7403231931657728 10.475395988682351 -1.070786562249788 -0.9041291979971332 0.27188567466555114
Ni 4.09795052903694 5.1076999271476495 1.0972171989674093 -0.28123857663536084 -0.5326186751483925 0.7365950875664798
Ni 6.213349080949567 7.895541757245646 8.041730704372554 2.173607784337618 -0.5015198968610588 -0.3680811854522177
Ni 8.534929314943781 2.9057197767411473 11.650626922123232 2.358890219890628 -1.1329890039204618 -0.9679444926808815
Ni 9.239618443810024 6.105561925916711 5.7861232095124056 1.0507484126519901 -0.6035232725787542 0.4322497497103266
Ni 0.9685670530148165 4.041613378828905 7.2175336495172555 1.5374721250404813 1.3817419492232912 -5.027304493624871
Ni 6.510413049462261 7.777682428299193 3.841983264215328 0.41724787698485566 -1.9956509359117436 -0.21165681178148066
Ni 8.482809073037837 3.153716805606361 5.002649573529395 0.7283498168385522 1.1169085534188314 0.6756943954263654
Ni 3.3001263724391405 8.098865622884098 12.658495001982613 0.18922033715483538 0.9928692809470192 2.0989360065553404
Ni 4.316540905967721 8.739174756568783 3.7594873192618206 -0.07707421657618338 0.8122328288064528 -0.09996783334490525
Ni 1.6074333152054099 2.5103636785115584 5.507230112976923 -0.49696493050052476 1.463253632745538 -0.767065231130879
Ni 3.4538433852258703 3.088573484860189 13.104123535720877 -1.195373222584638 0.2652031204390529 0.9144143819732252
Ni 7.068189933684877 6.013255385688211 1.4909637973174594 -0.07718297423990578 0.07090614009225853 -1.4616117262667407
Ni 6.949865162320974 9.218599064238022 10.111677873336445 0.8121549243806657 -0.2332265675324564 -0.13923732036848924
Ni 8.614296555967197 8.749656519809736 8.059155937597012 -0.8908764467522851 0.1526271114118339 -0.30214010267471836
P 8.735060245598534 1.09593071612558 5.166142738852225 0.6878539136070347 -1.1338240982272474 -0.02536496112734986
P 5.34320448152853 9.347480069629672 5.933171363341924 -0.5611687188719432 -0.9919606530898206 -0.14544602028236242
P 8.070036119547304 7.668740976071063 2.035614274483177 1.0143169092978337 2.132314839126102 0.4244328247690691
P 0.8914860651459109 8.191674840923442 9.266554527392636 1.7505011345791401 -0.2749162339617588 1.4440179244443778
P 1.548415216672868 9.109629685464848 13.499585754821645 -0.8519710279363393 1.294912710142873 0.6153742583800693
P 1.1003431102429972 4.631850217244419 4.766646995761844 0.20265846493761225 -1.5717284751201899 -0.40656725734255783
P 8.231200211013217 7.367441481559582 10.774357100488567 -0.09053779828025697 0.15349974382477435 0.5316894784659036
P 2.094723599729539 6.817735368855533 7.351911529858977 -2.162976786986333 -0.7183309991499692 -0.15591426680353795
Ni 7.207226892625263 1.247534620337091 12.243058786979438 -1.4246793720167656 -1.2660628757907164 0.5882108105913999
Ni 5.85297563481545 1.0486603842094524 7.8463835908843444 1.1214529782564042 -0.17943960361898773 -0.4340356379661557
Ni 0.4288707449404267 1.6976360557070396 9.754186446651174 1.3965016240309691 0.31511620321941214 0.05743741618186238
Ni 5.272438616379573 8.415273378265976 11.576755625165056 -0.04305415087699682 -0.3470688448666087 -1.1360303618499468
Ni 2.022775510840262 5.851737557985035 3.229932070578811 -1.7924947054021065 -0.9683982923888483 -1.0488185426191292
Ni 1.3296572804718048 5.840948602748566 10.32158961095147 0.4704193188015124 0.22342089429594425 -0.8728710113137998
Ni 1.420753670414937 0.8650219401745917 3.9380626806796704 0.397981829666392 -0.9684957371986611 -0.9146969462106505
Ni 3.051217076435727 7.97454595318345 5.828481262154775 1.3452510533861088 1.0023674502454416 -0.9266692880811783
Ni 0.6388159944095088 3.237691926562522 2.78072149199586 0.6905098631726431 1.6277620689759904 0.2989174819723626
Ni 2.4937660019053247 0.9364235996657837 6.947225172929203 0.6801591160659383 -1.0090415198315075 0.6511159347560529
Ni 0.9838894173972398 8.200881291940584 1.9154733468063883 -0.2960381035420385 0.46075094247381293 -0.06472263698936595
Ni 7.551477413418945 3.5099105788317853 2.928886707627257 -0.4470415633075205 3.1174648970519927 0.4378758376478523
Ni 9.152580711747047 6.443231090927663 8.24607016536588 1.8498758144247365 -0.39692304938457446 -0.13030530798618206
Ni 4.126547311165011 6.429844967001827 3.409352675426748 2.272028327800061 -0.48270816347119444 -0.09212159782760909
Ni 5.403944717005634 5.0294218213810655 7.588308802796524 1.8876808010876522 1.1829573654187884 1.0079745120195736
Ni 6.4089559113067125 2.5493863707904887 6.211260175380056 -0.6501558848356287 0.9624215059801231 -0.9946461703417837
Ni 0.8776205355301031 7.48160519771149 12.220142264113914 -0.3692806050769576 -1.0835189222147918 -0.5655565635269937
Ni 9.250938003402384 0.2642176971133135 11.774418780122492 0.5366005426142759 0.44568016418361955 -0.9990846657291115
Ni 5.253699904653074 2.536065408803096 11.666117776660775 -0.06157483538900362 0.5953934443827681 -0.38349520601444276
Ni 5.465764778891219 2.707636792723172 3.6853972643674426 -0.7969453065197629 0.47801564309153155 -0.0021957220997381537
Ni 8.855284022025629 8.588492428343821 3.9427226901631705 0.16109992476953547 -1.3777976198635624 -0.228996845721825
Ni 2.5388859898528375 0.44450309397287113 9.480443935907182 -2.127387062807181 -1.6572703628477523 -0.7738948524582027
Ni 7.966652049783515 3.8969445666373845 7.588077943357469 -1.0802826746656815 -0.08321452514596636 -0.685720926424432
Ni 0.4160533916487142 4.076400545109048 9.121045126195202 -1.004130198572819 -0.25613741069235885 5.129466763517934
P 1.4480844491675462 2.5542083542352607 11.570787722488525 0.04536223018488317 -0.8206429072470189 0.19893602178070255
P 2.893171449166721 6.186530288856152 11.982790834220598 -0.15414766182141837 -3.3017116922516365 0.1207253776072308
P 5.771225328614695 5.015477166554291 2.6480731956773798 -1.5582728638359165 -1.8177838189861986 1.9392370758983892
P 5.035528425897997 4.2275855511448555 10.081309617367562 0.8364353941945852 1.194811436543897 -1.2422138370872606
P 6.958615479769017 4.225249030209261 12.124716328803673 0.20250471296856737 0.05910811901606595 0.4689833576859343
P 2.2415893001314187 7.877771165747441 3.7757545317516654 -0.5654565476140198 1.0369220482918593 0.3569398241234175
P 7.963738380250284 1.3247608262402406 8.774139721852393 -2.5706455049231853 1.4091200841259282 -0.09655777922209179
P 1.57425657968964 4.292933666554704 0.9310942839859918 0.21875305650662974 -1.0896265777744265 0.9175930368115229
Ni 3.396891851026802 5.5426744839505036 5.807131418466386 -3.2564898442993595 0.6670454615021157 -0.09394116753485111
Ni 2.0381537283127793 6.378888331139503 0.5100094598046532 1.0534298161388953 0.08911494979080137 0.006098399588254013
Ni 4.025909351664173 7.25816491079089 7.973717465680392 -0.3753147270861794 0.35399745366564195 1.478441653339886
Ni 7.7706542477957115 7.82111751469554 6.028542376446909 -1.3899723075528836 1.7030048887703897 -1.1133439759960244
Ni 1.2427591811340637 4.530867830354669 12.359451972310927 2.326576852469903 -0.3696547005869246 1.4268257289358073
Ni 2.929038441855346 7.5210560970144735 10.453119914583237 0.9983588433066807 1.7501296101723343 -2.6959623585558408
Ni 4.969063248686271 4.870342911945322 12.375624234547612 -1.5300987153945456 1.6193908141931594 -1.0611215283561983
Ni 5.375012816337 6.547080603108899 10.15385998874502 -0.3106399126156134 -0.8832528687687563 -0.4481985597300991
Ni 0.058343207027240905 1.557323784542843 7.198704641961771 0.453752913889425 1.0639361149868578 -0.44247322721054766
Ni 1.746023449425045 1.7298446709945152 1.304160344843945 0.1468236173561794 0.056141580188574285 -0.14853905738538933
Ni 4.283084905001481 3.123500283865567 7.6029823404490235 -1.2933942166158177 -1.2947810696610154 -0.6822975025651797
Ni 8.442855495924007 3.6597178753119426 0.23956693580037586 2.094641492945044 0.20025808302623577 0.3927488634022268
Ni 8.818365129473568 5.927977025963193 3.463796405880601 -0.04779269400324672 0.021934081068929967 -0.8327690010865916
Ni 7.048352777853198 7.18806928272306 12.680757112809204 0.39513021915020985 -0.26232528467062566 -0.40851641064912864
Ni 5.277558482971513 6.923362871071425 6.0633798105081365 1.48974216595437 0.9809247069906332 -1.9392270485960603
Ni 3.0612147795625324 1.0373315157687422 11.756788752234355 -0.15893505590773274 -0.037277653404535795 0.3354410308196933
Ni 3.1039982465744513 5.156804102188527 8.495969922833625 -0.9406416911008704 -0.28383359105604666 0.18412235380663775
Ni 6.037039493219859 8.792830958452312 1.7397725577587038 0.18740796653644498 -0.7210697382373711 -0.5061849064368961
Ni 8.811616214420557 0.6977354191495517 0.4060603429460826 -0.277265965140858 0.07161525034414118 0.9049779191506736
Ni 8.730973661173332 5.229720311306099 11.466083658028852 -2.321502266160473 2.31378664268377 -0.2830332066419384
Ni 3.183523738019799 3.6631435315043674 3.491657788989102 -0.12004223549727713 -0.2820114502456434 0.6076966872301534
Ni 8.420728363398478 1.3413305763014276 2.789113418782467 1.120694759934141 -1.0409324550028332 0.374480147000026
Ni 6.191128859940548 3.956186077530302 0.5628557918818207 -1.4729754880189925 0.34277741658010646 0.5623743091442702
Ni 9.0424198003852 6.03109113912486 0.21410258114173725 -0.1960342747528753 0.15565304272235128 0.5456374560055635
P 7.376163872462579 6.069248108507335 7.052909459120024 -1.0418950760264185 -1.3692474163007065 0.6153632026364757
P 5.123664602066153 0.7094915637294803 12.81668863994037 -0.6744741498660191 0.6391965576106476 0.9716407105855459
P 4.838320473624826 8.926394314563497 9.18577513407468 -1.4222530219634602 -1.0480857782181627 2.226540884891223
P 4.861192314018274 4.271625712683886 5.588255259891292 2.72949879975039 -2.935662963848415 -0.965722288218582
P 7.24152999879126 2.2900790911812625 1.3610448553349004 0.33806355604420485 -2.442463928148226 -1.6914284967867
P 3.491823486489714 1.415726892306487 2.84734491962952 0.2064292448339542 1.6650170966727067 0.14904633603911108
P 4.182288695078711 7.2377412975132245 0.9216904853838508 0.778160312602776 0.45849814188389426 0.8539674895410777
P 2.1360921217924123 2.5868917207885342 8.233168101554192 0.29529788294190434 -0.10773153645072414 1.0530672905931542
