# total energy = -381170.95706473227 ev
CRYSTAL
PRIMVEC
9.22134051233562 0.00000000000000 0.00000000000000
0.00000000000000 9.22134051233562 0.00000000000000
0.00000000000000 0.00000000000000 13.49636394718343
PRIMCOORD
 96 1
Ni 7.601307679850266 3.0266191348386293 11.754293261355427 0.13328701632232529 -0.09239824852776345 -0.3979957136234629
Ni 4.381049617306426 8.768544951573944 0.10120421122742426 0.07015794907232432 -0.7334118047424917 -0.7573130368401216
Ni 4.886637270443304 3.848664748877806 8.180186546730702 0.3999978316551563 1.4513795070157716 -0.7930158895583698
Ni 4.667879411404744 0.7580172367582999 1.9015298438217574 0.23362560274308797 0.9436948761048973 1.711689561028581
Ni 5.504679170133112 7.779602297078717 6.72472521423558 -0.04551083994760549 1.2326400773558965 3.0090998407823273
Ni 2.1214892435184423 0.8004178821929077 2.346666999764886 1.7686279260868378 -0.3932283741418066 0.6724260090877386
Ni 6.504890302634709 6.487627953348355 5.290210156528893 1.7584098479032553 -0.4879331593155597 -0.6563406734901018
Ni 4.594071802597062 3.395288325259807 5.138052506617345 -0.21097032723741732 3.418959909943544 -0.564935385003227
Ni 2.7244726942848456 3.534290810912854 6.6618319839617275 2.3608501718304757 -1.7824956852078657 -0.01942442727319881
Ni 1.3553987232130253 2.351285047052603 8.045196266299072 -0.7976765282588326 -0.7913606133431338 0.4377814781618331
Ni 5.765431013493283 1.622550176832133 8.85778539572652 -0.4698181948824038 -0.12769538116716073 0.002475715234002188
Ni 2.156806977368195 5.077306926529813 8.229583423150116 -0.5979460356012928 -0.512974932775536 0.5355016531231424
Ni 8.950592654357708 5.993852837303263 0.7372830527997702 0.2705409877121986 0.24381308479905103 0.8776450356636755
Ni 2.647317738900804 7.115306153788293 1.008184825572062 -0.19512281868219944 0.8789293016927379 -0.2159253572498475
Ni 3.474287548729998 0.6391357159251378 11.23263188971372 -0.024708301379957446 0.268758184780163 0.10640896098455867
Ni 0.690777066605395 3.9087878884862626 13.49504073556076 0.9212630294639423 -1.719743027460677 1.0336613752627166
Ni 8.995233163382943 5.082729074703091 12.018350033125976 -0.6689534771581059 1.909381168879221 -2.246330408813325
Ni 5.954237958812783 1.224179048883527 12.043736383331817 -0.7625951111746673 2.0554918193287763 -0.2892709600215341
Ni 4.920101514866476 1.4884811083095344 4.390380691688297 0.39328313863914205 -3.8548621688047935 -1.3065358962040983
Ni 0.6575378228887322 1.7653887401043702 0.9920271928693108 1.428692606941217 0.8144018114333136 0.4668316014502541
Ni 6.790327674327984 0.10462901706340287 0.5261152790697573 -1.4066073450064032 0.10980281715745606 -0.4868316987212648
Ni 7.3032923998094565 1.548982322875651 4.351754340891993 0.1437550057331847 -0.5044748657243249 0.9871933136081643
Ni 4.590982653552763 7.878316746389841 4.658513295929237 -0.42809047612631435 0.11688466370490193 -0.7392165843497269
Ni 0.8845100519829988 0.8542363913488635 10.554116439479085 0.805445116460658 -0.5097294292550447 0.08744578961849456
P 4.666422439616686 8.122774481208886 9.160346796599688 0.4152154199358591 1.0940535031975287 0.11982497728014849
Ni 2.3410770231957683 8.807154703957472 4.526991161633609 -0.7008099595470705 0.41473462364469865 0.5312570189141754
P 0.3718081347038029 7.680048705788397 10.72473705720107 1.5177041983849344 0.3834679523209331 -0.3331414361522392
Ni 3.568760181442978 7.450096139466914 11.797320035805283 -0.9499742813557058 -0.9707318256180313 1.2197351963687704
P 5.392003611409842 6.758172860245977 12.732240389521033 0.8259594343639259 0.1243593748153923 1.0307902243625087
P 1.4197452367387626 4.8728790305206315 6.046749212416144 -2.231064740903506 3.056270842041175 0.34583111580476567
P 6.990984042100991 2.2382682987333946 0.09650224974178748 -0.12572694458688027 1.5961925216998252 1.5105220788141986
Ni 4.987574062798236 7.381904326981556 2.4289812951199297 -0.6771290709903629 0.39435914531214017 -0.7493855544629286
Ni 6.762562218291012 3.278029760342456 6.352279884908011 0.32662548941059233 0.5189846293047256 1.1004082417709629
Ni 5.190286789487299 5.313308692173865 3.7395181971373814 -0.9829923881529393 -0.11987408535052903 -0.5537413160596206
Ni 8.525498081840803 6.971923531430641 7.2059242662012215 -0.27391093262569605 -1.145528531148369 -0.5994771275338385
Ni 0.1295284804945 8.704078560622607 8.616037812860071 3.4094787099259865 -0.01327897649709326 1.4555066418102676
Ni 0.10037060205248492 5.6812032899988605 9.108696224579 0.7510549717455517 2.18308409925917 0.7561179880907558
Ni 4.414670624516922 4.89390368670273 12.01952390976281 0.13934839202505678 2.099587781206726 0.2658366402579938
Ni 8.281114117745204 7.685102000344445 12.4372773731628 0.5731102075045356 0.40176829329201774 0.45991584816702724
Ni 2.702406026634073 1.8694331241844637 4.862227460189079 -1.235364418265595 0.050215444512126416 -0.12241124995008597
Ni 7.055634859860943 7.186402688509335 0.8716398271438083 -2.114942152175609 -1.5492328651208351 -0.03839274084558549
Ni 5.6361109352925185 6.397950417659362 10.212874281901072 -1.6834740178263135 -0.932817052850129 -0.012772726284636068
Ni 2.422068056199 7.4015734461203335 9.90311931335788 -1.131591866462619 -0.3181027966515618 -1.4034672567155249
Ni 6.733671758721488 4.945119011455087 12.61360692274546 -0.5496404065173695 1.2725955347029116 0.49786455949665864
Ni 7.911762548132152 1.5495724886632187 1.9739782270499469 -0.6962264539414461 0.20269805992629608 0.10694477888337066
Ni 7.707426865527278 1.0629162474306615 10.145055011569116 0.31418726364723953 -0.10608962997192696 0.6706141526899806
Ni 5.040716647700618 3.0254388032634947 0.5173264195052144 0.1948885911842063 -0.1379538256703753 -0.08348012010252719
Ni 0.07025554847375853 3.188213904547002 10.245197846512962 1.1717702384537176 0.08737816960535273 -0.7314515956923273
Ni 7.52273263803989 5.093001647942941 10.204951306202977 -0.7314747356207789 -1.4406268964849576 -0.0409792706258391
Ni 3.123655300191357 4.458573426307698 0.37609329160196997 -1.4375819390110467 0.21314702317376194 0.9930819111784573
Ni 8.267706288758902 1.5024606604025434 7.7280448605963805 0.538598289770595 1.1199565962165356 0.08765996251182967
Ni 6.660463537041805 5.750944287676583 7.906696343699501 -0.3995810558327118 -0.283302401142925 0.06249194788663432
Ni 3.140493467817897 5.554963139501964 2.6008163633766435 -0.5145505047927719 -0.5319370757003355 0.8688143247459231
Ni 6.062339732682405 2.850307105802789 2.875575422851116 -0.6584636333703757 0.8688624043750391 -0.8081483743244339
Ni 8.87928402880676 4.406408303490975 7.302572213121815 -0.5371296756448686 -0.4292220186275963 0.023723311758868822
Ni 6.73581110970142 8.884401872745823 2.800441785289493 -0.47361622847225526 -0.3619899849528153 0.9370107792165023
P 7.549133335693113 3.128680930726113 8.967780310786573 -0.9703374183930902 0.5700246266006763 0.21915183460694518
Ni 1.778547592899043 4.877323716608251 10.650655574582597 1.0730203366763134 0.4796241252292321 0.41481252807048563
P 7.15006138587177 8.626942047919426 5.269048102374377 -1.17961338864722 -0.4510761383882102 0.11004732906809434
Ni 5.491381997231978 3.549625900049183 10.53298112721182 0.721377499285777 -0.9371226222040183 -0.4200110415522895
P 6.916798358335649 4.246989770124259 4.483518996440949 -0.2857421209326692 0.8186433603184868 0.12871276668808157
P 1.4566305984617418 2.0461508921992575 12.273620711734113 -1.2011391785341379 -1.0739968416569696 0.343606340239305
P 1.3206711551508405 3.707015738521135 2.0745802847472437 0.7650713406293018 0.13799547754158814 -0.12278174591562725
Ni 1.4803110006878946 3.866268287760098 4.221392251222555 0.9851665129861227 -1.0964520853366924 0.01912103710016707
Ni 3.995514595237417 6.396170698956228 8.049689825490974 0.3076983134887862 0.7659725122873324 1.7797044956159735
Ni 7.583187745903853 7.618404045008868 10.207853262036533 -0.06803498919205057 -0.2553809921423086 -0.8559120148619582
Ni 3.970801402883021 0.45130715482534006 6.4105025062536924 -1.5760150183106858 -2.5869462989657386 -0.43253411371996475
Ni 8.726043793528643 5.768252743665091 4.915888284423669 0.09532184993246164 -0.6897033081109477 2.17842320344839
Ni 1.7813416590495585 7.355927810988148 7.247183309690502 0.07333171881461564 0.15006372156003187 -0.42528463124640303
Ni 6.288834296342358 0.9222078137979266 6.537004542818821 1.4393793972311015 -1.186541483225621 -0.33542740397293846
Ni 0.5362688970180504 5.664226802265859 3.023293919479303 1.1400325410308043 1.2020174673740331 -2.5015951870927435
Ni 3.5502990579006273 3.0682811509047347 2.7424201891652036 -0.44409405064342233 -0.16964472901575298 -0.2908449893768733
Ni 2.195970010177568 6.529723372414705 4.786417898373883 0.247685937490896 -1.079800078602308 -0.1144266890827126
Ni 7.419868585534933 4.278914050695498 1.349436204490506 -0.5495743291661245 -0.5672077259771715 -1.1054555743868832
Ni 0.024827536975737318 8.883267647872842 6.179836208182868 -0.12674150189432365 1.065850044180119 -0.3826948216003345
Ni 2.903901536386278 0.289118530793228 8.77251473862938 0.4882072389125528 0.15406024431393467 0.7145144536173565
Ni 7.301079278106077 6.17060749067978 2.9840054764400716 0.29854492912429226 0.13565397389260508 -0.31555869007346943
Ni 3.277716234767811 2.6844705194962746 9.482949858765037 -0.5606187599057442 -0.03150732657966186 0.25587875771433355
Ni 4.568722337752945 5.6715946532700245 6.120911842830409 -0.6852537569800263 -1.1226953353039375 -1.4309389797732324
Ni 9.03999354983378 8.517632278453378 1.2717039931954994 0.3349283528493329 0.18042536457102476 0.3736553371058855
Ni 0.30530382751727136 1.266228361247723 3.741569945383222 1.6193923568550563 1.4756527777408395 0.3142299439597169
Ni 1.6273821592178435 9.03902530908855 13.020671008318129 -0.045690560058579376 -0.6199256251961776 -0.4909827447751608
Ni 8.747077671051171 8.453580847821424 3.9492253105431643 0.9318973692493371 -2.3019387422062483 -1.3155093033473022
Ni 5.607036048914379 8.471802216512577 11.358931056789373 0.23537806665782043 -0.7854036244287506 -1.044741287225962
Ni 5.187999897060474 5.442674877076785 1.1840228777097623 0.09153050121082947 -0.33556058711669307 -0.5451078087543386
Ni 3.15625273861404 3.1122392807380956 11.802758782391336 0.3418320219477016 -0.9191277282884945 -0.03051513786972164
Ni 8.435663783364488 3.5029105894270294 3.239856177361302 1.2319849602704007 -0.16182857540544388 0.6034006309579608
Ni 9.103860553657118 2.5932345772744854 5.773326325170086 0.7267562470991871 -0.17233024626771612 -0.6624401015196204
P 1.8104073240872665 0.44802989043625335 6.9602364045687155 0.06090737700833382 0.402002777900327 -0.6112545797847408
Ni 7.296708362741905 8.731927008723456 8.285403885313587 -4.122727923677674 -0.3958547560210602 -1.0922159357681576
P 3.886582900729029 4.971547373129601 9.801410694808895 -0.8265957823963441 -0.4345190053604775 0.6156964176061784
Ni 3.0211047732610443 1.5828891916394998 0.3106798689883956 0.7375327688894008 0.890470469563118 -0.30645415666903997
P 1.4823212529017968 6.00248401194644 13.071457540740456 1.29223516331071 -0.14102963638222163 -1.0035457868242588
P 4.739916522849723 2.2351607070082338 6.856773887069802 -0.5021426180467223 1.7027686043898673 1.0493181079633669
P 1.3959172930657182 8.037495524905358 2.7040234497456255 0.36754099667803153 -1.3667632164262717 0.2378542961124549
Ni 8.587779015110053 1.0364417790539933 12.851521194394847 0.38493502378476285 -0.9237261462924543 -2.5440225030190184
