# total energy = -340876.0582571495 ev
CRYSTAL
PRIMVEC
9.18504328733749 0.00000000000000 0.00000000000000
0.00000000000000 9.18504328733749 0.00000000000000
0.00000000000000 0.00000000000000 13.44323928942076
PRIMCOORD
 96 1
Ni 6.005052593190761 4.976933977976891 1.9227592654827752 0.3323227969056857 -1.405376815033412 0.6306275849947139
Ni 3.894540943039804 7.799020102722106 6.172906500470487 0.6342078461468045 -2.0857290209467627 0.8942296794952341
Ni 1.6889457266382533 5.991229103313718 0.5551155317939062 0.5354833982906971 -1.864778442568182 0.7430506133838365
Ni 6.476621891381616 2.8662569970499967 7.919586652570618 -0.2775490435989155 0.6676352725673148 -0.40051822293500056
Ni 8.78727563084869 7.722499508592112 10.675827040285572 0.3634334022675612 -0.06816611545327615 -0.5675278283207517
Ni 4.92641624088471 7.173463556831172 8.781042660595825 2.0261920419233945 0.6432578721642147 -2.0046158584145153
Ni 8.909932696508507 8.206799276530198 7.1768611042767 1.4116379654517752 -0.5335291027778036 -0.6975945379335664
Ni 2.9029236891358132 8.852526177085574 4.351617161711068 -0.5673913027428873 1.1959406650523337 -1.9830998387196104
Ni 9.04699190976115 6.039891461698151 12.676880531722432 -0.48857002156861024 0.6724524914503 -1.0514485240428086
Ni 6.773161008112724 9.169355054041523 2.7603543685228793 -2.0904022580527157 0.5945341817062665 0.37976324977583625
Ni 1.2217944341821865 8.730824355908954 9.18966410285689 -0.09230800280680232 -0.9822755645915727 -0.44242026248542515
Ni 0.07871949344997002 5.289482624844666 6.2352830467189815 0.9467200360844663 0.5952962566832717 0.903179175379038
Ni 8.128928481063376 8.102714368034087 0.4448637853553069 -0.2740816538756054 0.9998107452618588 -0.5078692361178544
Ni 0.6690192513721146 5.437793515904205 10.611501427889632 0.27711375583370984 0.0070304244842201505 -0.5756630558333764
Ni 5.295756009287206 8.996501727798293 4.9633649137939315 1.7633278540301631 0.31072064525487775 -0.9204256211643117
Ni 0.27021110916728364 1.4571336086868925 5.778966431112721 0.7325273452550094 -0.503671653096739 -0.582014709083017
Ni 5.887281970464223 7.148930306690588 1.4006106904109163 -1.6150261094665606 2.035005012229334 -0.434830108842993
Ni 5.62143008275584 0.6254095852012109 8.904089172083408 -0.2935503041231783 -0.1618280611848116 1.764701337338922
Ni 6.934689176204198 6.27190565059788 10.627122430702844 -0.4968862547437894 -0.6145923859087221 0.12636380683993076
Ni 7.401399586591097 7.034897996508872 5.510114708325372 -0.542797415453607 0.8294633337521264 -1.2250584083538965
Ni 8.202904818252547 1.1515380394516233 7.783944691469489 -2.833552887349526 -0.33810957879079184 1.0535452586708374
Ni 7.70028088931466 4.191456646538326 11.281673402171757 0.9616170078009569 -0.6509300439974919 0.4811768144283326
Ni 1.8656475859435977 7.550500391357894 11.324678692506177 0.8040366661489057 -0.5995511753048836 1.4357819096878306
Ni 1.0707464002765628 3.5455001199052583 4.48641226183767 0.44825152445522154 0.6141257306849489 1.0380723598462187
P 3.0341504000150863 1.1727279339010166 0.48244714474326866 -2.6307843791966112 -0.9399791178162069 -3.230639201784842
P 3.4188016352780664 8.490240521789769 10.032097886606115 -0.048536514147806735 0.9998212867848202 0.1898155475366731
P 1.1504358342787029 8.103045029585964 13.508035082535438 0.0691639605901712 -0.7852732694984733 -0.6370738548406899
P 5.5534607637590865 6.276847203789806 6.623107714375661 -1.507055974642469 1.7591436407454866 1.1235769665779425
P 8.15165227771175 1.1292643099155248 1.4566284313159708 -0.20403297668763568 -0.10273588300834564 -0.3544952192376669
P 7.242222789535186 6.846200470904911 2.9522023639127704 0.7473929495129322 -0.46345394322727285 1.4673712544583375
P 3.2452502457586525 3.938436264051356 10.02206873803685 -1.2465093791388209 -0.39252414898593047 0.08762062463346201
P 5.600469814384138 7.598602462112759 12.724132985989838 0.17808051848793202 1.367014927425762 0.7772653115923324
Ni 6.419950175407297 8.544404720995695 7.1699787514761235 0.12334738861111015 -0.23058990124055773 -0.9098321619191815
Ni 2.804845798832119 6.724957901883675 9.023787735358246 -2.0041880268484773 -0.8283122508668186 1.6637783391695993
Ni 2.620795905040639 5.987628566415513 4.55323804296752 -0.30385579981424443 -0.4324137860920165 0.61286846123908
Ni 2.0066379976463233 7.591484053704316 2.478529690850258 -0.13069637277701363 -0.33625272808771123 -0.26189076823636825
Ni 6.637259110291647 5.703112671112344 12.891877591256582 -1.009504318400539 0.29873030566222103 0.9146907755630634
Ni 0.9994520956748327 3.1181200641054 13.400207268972952 -0.3743328227888843 0.15783153843090883 -0.19065526982914904
Ni 6.111966494964032 3.281972048103115 13.283089702811372 -0.3947748926933201 -0.09856529657042379 -0.36846402271293316
Ni 6.5316311145534485 2.602986106454868 2.045321725198584 0.9288637246293358 -0.389252163102878 0.2815836186796054
Ni 5.115894495152822 5.732706880005255 4.442788818102106 0.4016662204965147 0.5510563130282896 -0.24497290943510716
Ni 7.1482597985437275 8.950484661828868 11.730247944942564 -1.3648629140797657 -0.1767959953485536 0.2444689732154951
Ni 1.3060396495657305 0.7050889156559323 11.926250335330053 -0.08118103965570535 -0.06461027978121775 0.4857569775998473
Ni 8.777392524464837 3.591572296133328 9.098142496323451 -1.2502297654132015 0.10933101972736009 -0.9907249809105066
Ni 3.3634158253388198 1.527105267081118 5.8403482371926545 -1.3394604148462608 -0.7455011318068581 -1.5093049185776457
Ni 0.49851637766013635 7.261346049285353 4.8386118212969444 0.7326368742496802 0.7172616773451905 -0.5083297206940407
Ni 3.5577529674108894 2.37687790027337 11.98273835044222 -0.10443203976384596 0.7326762121280478 0.8647905482985107
Ni 8.448494500865412 1.835382868903827 3.5902588349689313 0.9329857172175092 -0.7917406223903719 -0.8099453183238567
Ni 1.6111575965594012 4.590418178963055 8.476890061632771 0.2726639475924723 -0.11347923756777875 0.7969928719282467
Ni 2.9639031903276303 4.862543451113977 11.99372182499037 -1.1672510104271254 0.503523557554649 0.5704334320033209
Ni 1.8467263971417986 3.0713406395580396 2.2483010743306595 0.13194772868561144 0.4081801103556325 -1.505712316130381
Ni 7.335248906129662 2.120890748862623 10.261171024702769 0.5177247887556955 -1.2587072067565934 -0.6830446651438495
Ni 4.951629184215263 2.5669164421710504 9.885525724206857 0.03385731486907717 0.4465682232155277 -0.07000342577233105
Ni 4.013266810249539 0.025732816770446653 12.074690735497411 0.22412049146613014 -0.03418333074992823 0.09617571329232469
Ni 2.785437802745614 1.4445960248449237 9.83383689411845 -0.6357808470608792 -0.40728716622771793 0.5948946503694786
Ni 4.57510671210257 6.903267143732862 11.038538881581573 -1.2242999329213173 -0.5925081524151732 0.8384938193855107
P 1.8722148917655812 1.625495448850473 3.7278507807218197 -0.10276519358438431 -0.761946678957391 0.9444374106978766
P 1.7769751797821571 8.629779696681483 6.081856086648471 -0.81755398390905 0.1210583354666173 1.6979866096201917
P 2.3199398180489275 4.388990183611864 6.490462832840564 1.2136187990583875 -0.5145492192411913 -1.7078776434816585
P 5.084591868241885 1.2253306757786393 7.013512460641285 0.5129271102567359 0.6873558909246937 -1.4842256070115147
P 0.17435324378271327 1.2089078187021265 9.864985212305177 -0.3470678164253442 1.2443285694374182 1.2725009181065763
P 6.6832669912179625 8.139803572102858 9.721437684601275 0.9015418968859312 0.2555964505872243 -1.1300957415330668
P 4.349770049542116 7.642929480150372 3.171004786806428 0.31924410934485664 0.252700617096668 0.9443029420025415
P 1.3095207809035372 5.470933151436676 2.876342174382218 0.08084319670031238 -1.0760069301084632 0.18711306100384548
Ni 5.190173938764545 1.8701298869801404 3.7269359504282953 -1.2324199909252904 -0.6972456392345798 0.37269091631008716
Ni 8.155372220170356 1.6745986893040739 12.706105501882414 0.24350995173633547 0.7875494671271598 0.8281777821714834
Ni 5.158972347327793 4.372457106018059 11.308869396309257 0.5749696293107774 1.138724363742342 0.11254438445833521
Ni 6.900566741059206 4.878791792371444 6.0083344090931305 0.45751932291039266 -3.3494622201630384 -0.039972426627879545
Ni 4.0740075003205565 0.2648249998889463 1.9998429027552695 0.36437905401028214 -1.1462096163757938 1.7516442470446478
Ni 8.737860098929428 3.792192007691044 2.1388061754441323 -0.0013462296152492944 -0.6700181709771944 -0.6078514676404628
Ni 1.9796615260390982 6.554015064606839 6.952359362134732 -0.6485692570747992 0.45020350597526976 -0.7409487365494852
Ni 3.269406909131823 2.675915348729763 7.849910752564459 0.3825127874965154 0.6559436951619994 0.0968493423205816
Ni 3.6456170897788547 5.846684079928325 2.339472730721697 0.2184532658780238 -0.9965097059130836 -1.4544846283036563
Ni 1.0230852115908662 3.0106642447887753 11.006275499161575 0.4995535171633074 0.12493093104814615 -0.44169006918762
Ni 3.1599395653746187 -0.014711683545554114 7.924561271917732 0.5033710911371847 0.542443374548298 -0.6666489973946454
Ni 1.0086003986100716 1.9123351600598812 7.997356412563255 2.521558774698864 0.9530768315404294 0.1083318890388844
Ni 8.42595440507919 5.207781666401947 4.065894351743553 -0.6292080789393679 0.682544071358347 -1.0253466847494341
Ni 1.1958375023599128 0.4622253538374237 1.6864409653827919 0.6160046928752166 2.188058155434993 -0.8311345508069622
Ni 5.770264521272515 0.7987350226601759 0.45158356289287793 1.0305799081239155 -0.6895932648956447 -0.902221182341143
Ni 7.350486892645285 6.460300069779288 8.224963617779926 0.033221481057291176 -0.2710081571566042 -0.2900674877809004
Ni 8.799923435207951 6.052814817350641 1.6077977077906156 -0.9910823642499255 0.36652875336343327 0.6663947152919943
Ni 3.410066659282673 7.270126950496286 0.07560392682784854 1.6012575949275585 0.5025087431368894 -0.41515834144567854
Ni 4.686640690559 3.503294846825517 5.765428596076327 0.12404775711224443 0.4770949310494751 0.47084200816122784
Ni 3.7006997932955485 3.781537357686147 3.4903889427549313 0.3044715790213724 -0.10507250156132225 0.7746235030941112
Ni 7.018713950553158 2.0582854950407485 5.432722453604461 -0.5942768142798217 0.1555651109942353 1.2098338780946583
Ni 8.845104662254577 8.358628039099974 2.7717272888987954 0.8075300240141448 -0.8348279404981495 0.9868004490451199
Ni 4.119629609436351 2.5695892897153825 1.291301329395164 1.724811957343152 3.2762701122500806 0.943300468879956
Ni 4.1401673658251 4.906943949496451 8.096540182057113 0.984965195608594 0.2918083817314071 -0.28498030306598016
P 6.191490598190235 4.592879770515911 9.337324692864406 0.6332701648238835 -0.302367388194176 -0.08373260243296547
P 7.879765816681628 9.121326463631519 5.204980228254108 -0.35862106848058234 0.5290340431209276 -0.4398399033527586
P 0.3669424721513934 6.549799129820419 8.692398728068019 0.34879585486004444 0.05566901142752993 0.2817620532389986
P 8.10010581579151 4.225625006898856 0.0563612615172811 1.3949394217501718 -0.9202818964975957 0.6634765132039347
P 4.302182341201281 4.783313269267221 0.3974625333895574 -0.12147922505411983 -0.2621157397629808 -0.38667977439001144
P 5.9192642905651285 1.6097063597483892 11.76377518929418 -1.294672826217925 0.5001384431324999 0.4949936657067669
P 8.66971626411363 3.3947827475515107 6.697300818582171 -1.0468097397192164 -2.262861830809445 0.8801361775166455
P 6.260369236454649 3.734914078871617 4.052222415077787 -0.14946414030282 0.3972382666321481 -0.14868175361084074
