# total energy = -340859.68621103413 ev
CRYSTAL
PRIMVEC
9.35206901937372 0.00000000000000 0.00000000000000
0.00000000000000 9.35206901937372 0.00000000000000
0.00000000000000 0.00000000000000 13.68769833147657
PRIMCOORD
 96 1
Ni 0.291460968017326 0.22280088379274354 12.46463381999976 -0.8179267938674365 0.29033462539935806 0.9018974804531371
Ni 2.110443979817294 4.32312477682177 7.893640873912457 1.196306790142501 0.1767916244731794 -1.3763683436162037
Ni 2.1102382343015496 9.189427067277709 10.876409367417395 -0.1033002401522479 -0.00848669731477248 -0.8470584211260702
Ni 2.4173414727567897 3.4607143913723375 5.678464944926135 0.5212955368260893 0.8683692667887045 -1.6137277023701113
Ni 5.953255850133713 0.3986179086514691 4.8105555429649876 -1.3201246906321262 -1.1275621764779356 -3.0761159017915602
Ni 5.500653123771578 1.0086767430059205 8.361047925339292 -2.5856208952860955 -1.5465643171497365 -0.3521028077460904
Ni 0.24363448767564563 6.165669391002033 0.24632227227677958 0.1505743426478633 1.0392717794709585 0.24111676891381054
Ni 0.08651598937052896 3.1585116370193735 8.547871400083455 0.3818468717777424 -0.67520794270825 -1.8745928575554425
Ni 5.8816190023790655 3.299278978064147 9.7474070355628 -0.15195476793515764 0.4083271774564581 0.9066285673802192
Ni 0.49073672249847455 6.642447215464139 3.550972143508746 -0.24546656124207403 2.177484750794521 1.6682446024710689
Ni 4.774839056638647 9.19931220410234 0.851864992560641 0.5643157491413572 0.1872102487033421 1.0573481773566953
Ni 5.970108278286961 7.861031144873856 9.996345081510201 2.999231175518364 0.42018613367757307 0.8152934700096476
Ni 1.8319487201194256 0.04673976993579392 1.0665510861710465 -1.2103455276237542 -1.824864894202696 0.28560996623017915
Ni 3.6847338497424222 4.995996781926104 2.303899941823545 0.12234003039251833 2.5148746778104685 -0.30843673431670754
Ni 2.4182579755087423 4.167104211405217 12.170006241453748 -1.092026702575487 -0.16710576464398316 0.5723010813396788
Ni 2.253605450499821 0.9744949311856542 4.9979401418429985 -1.5395835149565291 0.006596422270595092 1.1373534515367443
Ni 2.416135055869016 7.004587379381012 1.3762981545036028 -1.3668305793290976 -0.5690753753135295 1.5588552187019475
Ni 8.749879829096447 3.5191087095681635 10.653190446144935 -1.4713839751621562 -1.0621862221752867 1.3155036469203474
Ni 9.288830207588957 1.1894709389318816 10.191860369087674 0.526359581612558 -0.8788071742925768 -0.28303243531099
Ni 7.189936032860042 7.470460691508663 5.432441938854074 0.062033005972344776 -0.7828800866759485 -0.2654921124343815
Ni 0.15346838581443273 2.7358729394047434 4.018366102039127 1.984356336834531 -0.8526775670850606 2.243491396702633
Ni 4.700265659250191 4.737935792769215 11.95521914549925 0.8947212744196721 -0.8396621286619991 -1.6035636173529155
Ni 8.427345676960373 4.745632545471835 5.001252644646484 -0.6959022378328079 0.7016337409999466 -0.2254232694379537
Ni 5.016561981431648 7.821210035508413 7.117876471591228 -0.8225838330234737 0.36811486690363054 0.33049602810959205
P 6.746283236432789 6.48640794590979 7.664563816682618 -0.1003028480868208 -0.7701027324056221 0.33232382534695026
P 3.1469618319309935 6.265848753031771 7.389905710853384 -0.09735070743703235 -1.3337628502408514 3.59600478807811
P 1.7642865016462033 0.8721702045508357 8.822870856427448 0.7824643392947686 -0.20248697235675453 0.6654958576268087
P 3.620092349523084 4.107662461492874 9.968285133990221 0.7014177683343984 -0.5374310089353711 0.4079669659035619
P 7.784044913709852 6.1606099217285 3.298981582273208 -0.04222702699001114 0.6358860051801758 0.04169403730467658
P 5.605751674041387 0.48749342500483067 10.770602865532046 -0.6585909029768593 -0.0984979336675981 -0.6420713080552813
P 2.3345289026696605 1.436318797480699 13.329217626260963 0.02684745921014731 0.8369092485072102 -2.5654158810931302
P 4.419030243365363 7.321977893623473 1.7286738232846237 0.9419097591800165 -0.6617559309684022 1.8469283017606384
Ni 7.377781688734698 8.564652752513082 2.7810799052482413 0.33746063235288337 0.18098509372923668 1.7328319994341512
Ni 8.38889932172286 8.228212073926468 9.969722546979762 0.13524131183521867 0.34626691779060365 -0.20872241174350506
Ni 1.673945516096608 2.336259035415693 11.136681185661645 0.7103081288454928 -0.8422604855167946 0.4710309842435823
Ni 6.838438523348494 0.20846883820736514 12.640082373343922 -0.24329475040173582 -1.4677854591776205 0.3138789883782014
Ni 8.037626261864851 2.9945511651088648 0.08791692929137052 0.36888259830759057 2.078595495225775 0.06268452351341462
Ni 8.121907106768884 1.049414355123316 1.0874959796738286 -0.6248220340565304 -0.1535732773751871 1.215883426722848
Ni 4.720933731513608 4.066195388001476 7.948719883684127 -1.5220354787704369 -0.9144393216738896 -0.25946210419021765
Ni 0.9568288730383264 4.810610720171483 2.5786253825488417 -1.3498744110907333 -1.722190717670221 -1.4084371991262905
Ni 0.3264573450385623 7.252716471368783 8.113821308000128 -2.0007568896797414 0.4732207928060495 -1.4458830026775744
Ni 3.2547911863188648 5.98006823166277 13.128733584478262 0.20541185931303332 0.2068200525144696 2.2644320035100423
Ni 0.9873166176440906 5.663453939138799 6.0920658031582455 1.575577416552635 -0.20287649448568934 -0.6575583479472868
Ni 7.203889319655072 8.555983384645124 7.724214117731375 0.8757748152241561 0.44310931813264975 0.5844773116908967
Ni 3.2761700158184897 7.023590783380678 5.614296659393008 -0.35574554670500025 0.8802413356359421 -3.891669053220498
Ni 5.92624707515781 2.317040533831385 11.830825406680173 -0.38177976598523283 0.5523922582308938 0.12404904266382508
Ni 3.839501237926714 1.69537110594072 10.099317906519614 -0.4371862677799955 0.17432953608593202 -0.1835137736883614
Ni 5.861689743558549 5.484866831472642 3.7841014521918597 -0.5376433820564934 -1.3403219915156077 0.36248595075262735
Ni 1.5024098683791456 4.511157474074376 9.96954485767071 2.3853504709646853 -1.223085858008558 1.5874453716348143
Ni 9.17120923706543 5.712337203265894 10.039912629675971 -1.5564718060714355 3.1419433418093305 -0.9426834041212473
Ni 4.020744333159754 8.43139512279298 9.547840431738937 -2.3434494598555253 2.734220116485459 -2.307601082698348
Ni 6.765688779395046 7.44277856757214 0.7779789722361501 -0.6429930485386024 -0.4828488028141168 -0.3006894862711209
Ni 7.983159812605964 7.061092579659547 12.151801504137925 1.6210363202163824 0.3514029534655883 0.2282142019195295
Ni 2.1705964869658447 8.041694411835252 13.093843821042457 -0.3450595277460638 -1.0916374375568683 -3.0695608742818616
Ni 6.878942333743453 5.786863840309862 10.416940352070734 -0.6068453949734516 -0.14183464878202023 -1.840052914797044
Ni 2.3230352099946656 8.637056469917322 7.285112973236521 1.5884776695540708 0.9381562056748554 1.7580727762788109
P 1.9487373565110766 1.101813997155861 2.72914880186746 0.9068854205860317 1.3669038557691944 3.6911338052734752
P 8.322443520137412 3.023710915931188 2.4500709082772785 -1.2751802647109522 1.0111637083808327 -2.6261682205808383
P 9.310180980881889 5.065286260387486 12.089317526213236 -0.09726046171607121 -0.42110633149899734 0.38893566030372373
P 8.674773363780835 8.443749205806542 1.0149426291672279 1.4446221336872798 -2.0338739839486846 -0.9420509127435711
P 4.853209393999475 3.427533250924101 4.966745380828586 -0.6311834574981838 0.8530609185664083 -0.3183079706838325
P 8.454260931247303 9.220251486363782 5.0424933980705635 1.5870856743025505 -2.68246406695909 -1.2105550725313992
P 5.585691486256306 4.891796030270451 0.31446892791889075 0.29261159435899287 -0.1720577093326198 0.4215902131139513
P 1.6034028604029638 4.483568870826828 0.631060775477508 1.1976447922276343 0.326596950165502 -1.0736780248649702
Ni 7.19334953800762 3.756791540597457 7.86519749156768 0.2012268746974083 0.7402514533721445 -0.5838311934664655
Ni 6.902621772191856 2.8364918486726625 4.19448519872324 -0.2878501684146075 -0.07125452457061278 0.01656870299195856
Ni 9.279627771793843 0.6668595600101475 7.505047447912189 0.7969591904768341 -0.8993168642101544 0.49206877875048805
Ni 0.9564173820068376 2.3200612520852686 1.2662392668905738 -0.7291527723558218 0.995068602591183 -0.3721797810016236
Ni 3.2991199928928903 3.076624921753094 0.7890639795003257 0.6283259334447308 -0.079114901155296 -1.246812769311853
Ni 5.337534338061842 3.382802305387485 2.193385608455208 0.5538405606416461 0.4376146135666657 0.8387969524482265
Ni 2.070566758038466 7.04945860595109 9.328179972681967 1.4284486092512108 -0.7934892296503625 1.216469381133305
Ni 7.467832760148472 1.458997564557073 8.9391759908571 1.3054814867976547 0.7813939890487253 0.3683169556121076
Ni 5.134772132295715 7.688073982683978 4.129045031820058 0.07279332981264237 -0.5957420859714385 -0.6522611041040896
Ni 0.9358241262946007 7.9114013879556495 5.789198116706672 -1.9560772873841794 0.6900408939560244 -1.0048025420494953
Ni 2.5527594303922085 3.2065251587390033 3.0510423372840547 0.06317046201089765 -1.201198056796531 1.7743262620231959
Ni 5.793045557851092 6.9052964638965335 12.429168904326758 -1.597771693261487 -0.18566013060740283 0.11245079630326439
Ni 7.372133039120625 1.059804503668409 6.072328261750128 1.236468449963051 4.144358614573572 5.038849518149993
Ni 4.685844769010286 6.084315743662909 9.291729348947174 -0.4506580770141852 -1.033952167030258 -0.7403080176416927
Ni 7.7559606508107395 5.0867866667827775 1.3767638875346973 -0.984623495998459 -0.5710803215587004 0.3482957752951743
Ni 3.3025802583849555 1.7432256424890928 7.104722786686931 0.22688674135735767 -0.4318933948121723 1.16209774836096
Ni 3.744689963444126 7.137723432205447 11.295444712885828 -0.4976064207392656 -0.03707273648258132 0.4496496903543288
Ni 3.0644859363241737 8.559789676686396 3.3886220978623824 -0.32889371661947875 -0.6728335289388025 -0.7654747467153076
Ni 3.9653333249422222 0.23886680295171359 12.487067562871019 0.630443751118682 0.2863674132214939 -1.2291289788788444
Ni 0.6550198407859458 8.96671689855327 3.7445983131689307 0.08628982163718042 0.6698554201470851 -2.1575013656940585
Ni 5.323627811611299 5.479592264614467 6.27732935281031 0.42770635331401824 0.49254494705595814 -0.9906033677309779
Ni 4.070403819005339 1.3456504895196917 3.655847179331906 1.4876158636399865 1.1390642635802644 -1.0665424422614536
Ni 7.0993799497258046 4.61446042711587 12.256416552445735 0.097943860936341 -0.5408567467874684 1.5134616210584966
Ni 5.79490661956169 2.0260509100864916 0.43439144259808543 -0.16972726142723027 -0.7145949291463048 0.15871008438112022
P 0.6850577508777415 7.4847600048529 11.224267986920935 0.5044337280737441 0.9377754252966687 0.038789204953055774
P 6.168390843051198 1.273330940735528 2.6508963005747384 -0.23028625395720984 -0.7118150524083224 -0.6474965928359107
P 5.783506447575669 2.409279989367168 6.802635062781405 -0.4620354656131914 0.9588435588208777 -0.2260447050720365
P 2.236453756141854 5.37652311329541 4.201685356567405 1.0281466160920745 -0.41002333421195836 0.5828467180660091
P 4.128461462720855 0.039209484059548126 5.765422351948625 -1.6068888250714068 -0.448418389050389 0.06348439370689066
P 0.806369047788211 2.2637617973224775 6.39108698367229 0.2418297358204351 0.6360225307580402 -0.3336561710051286
P 8.044303639057647 1.8879956690219852 11.992093417955099 0.9844705153603626 -0.4670342043793634 -0.4978586459593878
P 8.922060769567834 5.263138629982439 7.576058642257597 -0.5161980676985239 -0.9037756713124564 0.927614425603267
