# total energy = -340888.0942619006 ev
CRYSTAL
PRIMVEC
9.05561381095795 0.00000000000000 0.00000000000000

0.00000000000000 9.05561381095795 0.00000000000000

0.00000000000000 0.00000000000000 13.25380616780719

PRIMCOORD
 96 1
Ni 6.058087889811322 2.0494755642635627 10.970532875788907 1.1848162730043983 -0.03945512067182882 0.17647100790896705
Ni 4.502614167982645 0.5641828491600359 6.283390654872102 -0.6796029864521522 -1.0037512179668455 -1.0226570537324131
Ni 2.6984461251613503 1.5941774150858754 4.687685557743062 -0.8878500012211354 -0.3263850912650121 1.8449608936216224
Ni 3.272771261744892 4.513499015735371 4.8356778313567945 0.5652935396735942 -1.2614611153526467 1.18304426870564
Ni 4.877607134239219 4.804836221975567 2.302888765592242 0.8128954020911162 -0.014717251605516589 -0.08620266124001282
Ni 7.284580218953809 5.828193023007272 2.6411385789730364 0.10255153491168145 1.5291348088193792 -1.6617497387753446
Ni 5.318633636113831 4.307302690169996 11.335516672144406 -0.10332312297038335 1.5739013144017926 0.10694992108969321
Ni 5.447911578308442 8.319012035627432 12.941135855229925 0.06952957145970605 0.7149924216950396 -2.8595786219893267
Ni 1.9157784825487099 6.581520477001916 0.4846772769349008 0.298614348909647 -0.4308359000819354 -1.2081469773105387
Ni 2.6748834181292422 1.77779809552018 0.36316633467166515 0.5172416784716898 -1.2663055879291416 1.3783311237695295
Ni 0.4727872560535948 -0.1704972849573902 4.738845247742253 -0.4325932490926743 0.2666233978253473 0.4379529707426909
Ni 8.632653218585569 2.585432065299432 1.3566857938893457 0.27063071921252746 -0.33712587472128386 1.2708073324542373
Ni 6.583793436058434 0.8034430317260393 4.612258633960379 0.15196736634064795 -0.9850865516778066 1.6564648362273215
Ni 1.0468108406985623 7.548324970033807 2.3454465280703722 -0.9347312391537064 0.42302977377395534 1.3963530142682468
Ni 7.459489398940424 3.981952598605973 3.883789745328473 2.362579238706441 -2.7005224671226973 -0.11079423453644789
Ni 7.201105571212851 3.665151006441761 12.784051745390121 1.2059854508828456 -0.795359964310514 -2.0714210889645233
Ni 7.838430612801149 8.54036745864544 7.010215949604575 0.4742124672953575 0.9800782998299378 -0.038260843253411524
Ni 6.98494807049939 1.2362633364013826 0.6004985770658254 -1.9988388467214222 -1.7865102056838975 -0.6495989838908941
Ni 1.9147370869650462 6.503153195427793 9.059917904212412 -0.6174640510295625 0.020806909443022232 0.955580828909206
Ni 0.20956863613369098 4.923084426597116 1.2014508403815771 0.1819752255566479 -0.10283975557606159 0.9518342173825801
Ni 6.355745914463665 1.9510682094142464 6.778699222374142 1.6078663584933275 -1.826792450242712 1.6595822988103808
Ni 3.0310678745834765 4.387318093450438 0.3825091256864935 0.44457279005205363 0.07358060160062813 0.9620438109257303
Ni 5.946377838332425 5.241244360826975 4.724558205895767 -1.7324807867423195 2.2488400626090557 0.38923673648391033
Ni 5.719516602141658 3.122312238939942 8.762714471371371 -0.1609158337831874 0.94948654308601 1.1271047772255427
P 0.4559338532644108 5.450872764011556 12.278975792874693 -0.05041110546270027 0.1732285897122694 0.46468473031058033
P 3.9508375096888613 6.174054079762581 12.592030172060472 1.1553768846973584 -0.29265376045083796 0.1971971847127249
P 2.659805821200549 8.683989493053295 1.321797230713864 -0.4705177920525897 0.39476717938383626 0.08543492983605286
P 6.277116020090185 7.696855147105537 5.849779795114552 -1.4339476846925692 2.0091597690314558 -1.6902833274386633
P 4.688145582922628 1.3037457702227782 12.478737199294406 -0.1494631118615555 -0.5776101522574182 0.7948205468672763
P 4.029476459676113 6.44871990105039 8.077227147942079 0.45701127292572263 -3.7170692941923145 -0.524239964166394
P 4.586586874481008 1.205999475178744 3.8155457343889374 0.3173471494324599 -0.30695680733707137 -0.1882929402445596
P 0.3322531859416466 5.774185342477106 3.4761820805143118 -0.12694873280912328 -0.7208658497566812 -0.26067026556570594
Ni 1.1666981114126602 1.0719945025956774 2.80198710745744 0.4971096836085052 0.6125571006462482 -1.1972462712376348
Ni 1.9700578314920063 6.5106421880164 4.7905220132877675 0.2882435471982842 1.2680768208969515 -0.5869705104263955
Ni 5.9420311437223505 5.600987673493208 9.180964293489197 0.9455977495545651 -0.19518606781996706 -1.095177589499643
Ni 8.76934770845862 2.2420431911036025 10.069592578397533 -0.3592198784068458 -0.13323096627340927 1.2093541102447625
Ni 2.426596599756319 5.159517446543817 7.22211821740705 -0.0979214923388378 -0.370243226100543 -0.9213995550418067
Ni 0.7106066904686341 8.976920487317184 9.190613049962183 -0.0634784801696197 -0.35538610648305247 -0.0057479582273707456
Ni 1.432154373495375 1.009302488459134 11.557146480259677 0.1682481057785425 0.5583952698918642 -1.131297989371284
Ni 4.383016676909219 7.0842700423395755 1.270853064322422 -1.359957249248032 -0.7056878564646621 1.6883801968786794
Ni 5.495172826579223 8.107056339703709 8.045219175507146 1.6102335731739235 -0.08684158037559238 0.1194897054279168
Ni 5.086773701121478 2.9075674139747547 5.172390907080653 -0.7089973804538693 -0.3330997842810263 -1.8867706305685568
Ni 0.9055885439400191 7.410217804412484 6.786717062806974 -0.5900918296641966 -0.3848982570095565 0.9667792687281866
Ni 4.960629001291628 4.510583108101113 6.787247721773954 -0.2745459951065336 1.0546801436062287 1.8607888617928148
Ni 8.253132445443502 7.009624618025329 9.061733554773495 -0.49855438647483175 0.34913112671227614 0.49544026632588223
Ni 4.826660251163646 -0.0021950807780872638 10.536603258426616 -0.3426732869020744 0.6613653803982028 -0.15985422528789245
Ni 7.979182017643601 6.911262541244868 4.640965835175785 0.3476547992770658 0.804731378223085 0.6661789997367623
Ni 7.205479432664236 6.206989347047662 6.838765108517099 0.5951918698949233 -2.851892823309295 1.6015931238901064
Ni 2.388055907546998 5.2162599224328225 2.7341940660836994 -1.2345416652539836 0.2812347199806189 -1.331798527425629
Ni 2.5710426950173333 5.278182209398832 11.245947596335576 -1.6082833914260881 -0.4307651947450001 0.20304053086737936
Ni 0.8760563763100762 3.3076172635356507 4.121535829271967 0.9686800852953251 0.7100379059032417 -2.0391406316642624
Ni 3.5062974296711062 2.9631054932322187 2.915982795852133 0.009645493509564033 -0.2790443971975194 -0.8984087505735883
Ni 1.0074823100911656 3.198035281292936 8.326478389181611 1.5965290791036375 0.10670360940684204 -1.2274328221233441
Ni 3.46485894105507 2.5661888860360844 7.29566338464812 -0.12594137459053148 0.6958996667296466 -0.2509496958438323
Ni 4.212979417131395 6.904715332488444 5.8800382229689285 0.10123127343836114 0.7209578952498552 0.1464322954550317
Ni 0.5902612056977244 7.279400407876804 11.143760428298249 0.33462444845566885 0.46794308934687795 0.4012358178273155
P 0.22077948598217295 5.525165019388734 7.927525174448383 0.7959819141652291 -0.22634500992127468 -0.0663372897746535
P 8.54687844494678 1.273092517607987 8.006160502190125 -0.07209990329004357 1.7010053418418576 -0.5610419634860918
P 2.031934840389161 2.965487119653988 10.308438919414204 -1.8955733164618516 0.980984613694291 -0.5940207324049577
P 4.069619995522898 6.163685401994802 3.7385014779867567 0.25580470994328847 1.6152587943026568 -0.4563417576625238
P 7.2777885086255685 3.9732320425445122 10.291222386512802 -2.028986831059712 -0.994415028167584 -0.1285191626200367
P 6.357104256529315 7.53054880020136 10.289168573309542 0.6057596181084406 -0.34697731359406697 0.2903896470070096
P 2.3809110282816897 8.54283964120492 5.71163459591539 1.0539136977538495 0.46243732903730034 0.1568023258354461
P 6.8951707155738235 3.9766188420948616 1.5046780675030789 -0.8943428080343307 0.7791167629787743 1.7555374114514668
Ni 4.995302946420738 2.9378131639698517 0.7474240993773362 0.05747649694991392 -0.3702946481637687 -1.0594667663615946
Ni 1.4286860734210867 1.070083768089999 6.985563852235816 0.20390005065419722 -0.0016550191049197302 -0.3598901650009931
Ni 7.2832671549570165 0.28761897122582847 9.509380615876074 -0.6872239933325197 0.38439586345184124 -0.6828148085212306
Ni 2.985672082749518 1.2649062427590148 9.379453386174085 -0.33782161523672793 0.8694727842655283 0.14519070973844672
Ni 6.267571403175565 2.134779445986261 2.705340163925203 0.5792188915054347 1.0477996144363115 -0.0633442685846006
Ni 4.211177349990968 6.702630255575097 10.201335458660608 -0.6705115656738453 0.7724830597123407 1.5541912375673752
Ni 8.355388436145487 6.883407473285311 0.3938367929526212 1.232133570033123 1.8560773152497585 -0.5685554982543176
Ni 7.79733623750841 3.838294341743034 8.07437734628835 0.5810240630349736 0.4175237563540616 -0.0716047088211799
Ni 2.902514381490544 8.235157052108093 12.333501454512563 1.1320256115659277 0.11149871680264023 0.392939125036162
Ni 0.1947808188456691 4.752802665247476 10.155742254446443 1.2884294164113745 0.07788411407198845 -0.10416104549064643
Ni 8.505340344579261 2.3998282054492814 5.745829499076015 1.0683445284671986 -0.802831847207527 1.5823147352764686
Ni 3.5120930224845384 3.0120420300506328 11.718418811468561 0.42275672261822683 -0.7439749249703187 0.3021537295214732
Ni 1.0285547233362524 3.299593989734556 12.720817299988695 -0.4912506537245669 0.16722274983782168 -1.3268933768145277
Ni 3.176374253152735 8.298383347457124 8.13688281478121 -1.3351921264882103 1.9213267712768718 -1.22241762829694
Ni 5.780506160889255 7.710402345306934 3.594843221123818 -0.7349891765319406 -0.47851623687703404 0.027830391948706908
Ni 3.1635333928254754 8.493142432829742 3.536036065295028 0.3621640486368343 -0.7313358960500695 0.21454441774192082
Ni 3.7283501349494803 4.267439878350111 9.259453825849226 -0.8565918145378021 0.28336693583227324 0.02142551686362762
Ni 7.299875150613007 5.850986002868848 11.342209676282545 1.022358805765704 0.8342504707281244 0.37968688801194606
Ni 0.5406282921803215 0.19618625010292629 0.43610568135145755 0.3120175096894304 -1.2625913723023483 0.8547231367601795
Ni 4.82504835191241 0.37981689171237903 1.8105893785463014 -0.3803178367277256 0.44923728540725855 -0.3576751596275453
Ni 6.338648915664042 5.889925142084092 0.2755052766843791 -2.182679150511267 -0.9665954348521547 0.10874969330259336
Ni 7.649485231469504 8.819370918929552 11.834125105304595 -0.03267152209109212 -0.9498017603335837 0.015527663321953905
Ni 0.32429330143694896 5.10055634528092 5.721071451026136 -0.9908008284537645 -0.5119004687644345 0.380844398655157
Ni 7.900950570276044 8.759685368564975 2.8853802546744594 0.44293319756610167 0.2743014831958953 -1.1279002765436446
P 8.37100936990044 1.7754889140085781 3.7063205433288 -0.6776684884336007 -1.0168278486451456 -0.7678797566123744
P 1.5513081394940225 3.262547473797448 1.883313201618344 1.713186714399398 -0.4748490724380919 -0.8518715262439974
P 4.962349567908116 1.2707742804826145 8.382714656260818 -0.5003407889512932 -2.0082691388963863 0.48676716403191655
P 8.558578297938896 1.5821153375429207 12.492335108932922 0.18463965976268845 1.3731729766073577 -1.2579808701135302
P 6.643325040988902 7.892619405606736 1.3152799054828845 0.22355896253570529 -0.18786665134041838 1.2573501785080667
P 1.8070205611591552 3.3717672314893226 6.0339410956909845 0.046483745383836074 -1.3578687421501194 1.055048068468609
P 7.005305090256568 3.830524625127527 6.092443077335692 -1.2741741920439411 2.0743734867246277 -0.7855306369249181
P 2.4676909750490585 8.349592843332056 10.262302378373777 -0.14103657836075711 -0.05103562642057662 0.13875318164321912
