# total energy = -340887.09440681187 ev
CRYSTAL
PRIMVEC
9.08103499561197 0.00000000000000 0.00000000000000
0.00000000000000 9.08103499561197 0.00000000000000
0.00000000000000 0.00000000000000 13.29101264116531
PRIMCOORD
 96 1
Ni 6.316731562664193 2.2433970274465174 11.528690752583008 0.7150361304487814 -0.1168638377692955 -0.6918584067807375
Ni 4.954049625404256 0.49342620503246903 5.675408898697203 -1.0083468077573279 -0.5138375378861473 1.0918878630047777
Ni 3.1649586126803135 1.8663615388148194 4.643374707516674 -0.2603499061118097 -1.1687008554997742 -0.801558379811742
Ni 3.549504117186633 4.412102542717989 4.394407238082817 -0.3651928081608291 0.8074451776098224 1.5896184680267333
Ni 3.6599022586470626 3.0294968148547627 2.5077087215760807 -1.1990948944105992 -1.6261294184685735 -1.7090251268225407
Ni 5.1101344535215425 4.7436148033212975 2.555795525760946 1.5896166682545203 0.814356817127991 -1.2313902641091954
Ni 5.039129841521946 4.619413488790222 11.25146673490795 0.19462402466890996 -0.01558268492960542 -0.1129166801960894
Ni 5.701918255820776 8.025809576752959 12.588010729372334 0.48542401974046073 0.1843478395538825 0.5892335954289594
Ni 2.1469473556153735 6.753438531721693 13.546333252045132 -0.11819952586158353 -0.8045015216004661 -0.7578162017287853
Ni 2.437404257368423 1.6479444870416646 -0.10562333330217506 0.3692312398962609 2.147011264796012 2.2382741141677513
Ni 8.044098781071567 8.50294531325159 7.207011706926637 -1.1536794423902776 1.5559964090969136 -1.1392036173716058
Ni 8.735710400190285 2.6234746627747065 1.1340060403434216 0.5175054736560378 0.16252045926614592 0.33296351581347816
Ni 7.144395246877933 0.34881889694412344 4.670714071231471 0.6148222425313412 1.100636555731685 0.8430032772200902
Ni 1.2324508155453688 7.580412057281901 2.221047692417459 -0.6570901500616168 0.1145182203552544 1.2857580402267985
Ni 7.947240462669252 4.323362669529595 3.988779202918067 -1.3774780317406148 -0.6164780329672093 -1.72779469412056
Ni 7.520359173389672 4.146273407654146 12.633652010854616 0.6540138251291381 -1.0013654913434884 -0.3400847002392917
Ni 7.98662491109517 7.120248775039215 9.221623865037659 1.0864191265807224 0.3226194535749928 -0.014564528077736207
Ni 7.13647658443214 1.0601109349304125 0.3872398475655702 -1.667645278324173 -1.7417182461801877 -0.3189864848080958
Ni 1.8807640601898492 6.643567090286329 9.21073842848517 0.458803588939455 -0.9038306929201079 -1.6771071950680214
Ni 0.14002410976679605 5.00462190884533 0.997844094725932 -0.26290969641918593 1.935420016145144 1.24172841281041
Ni 6.82316271779829 1.7925145628868595 6.893583419252859 -1.4783732619957959 0.11654476386697991 0.4040619744222009
Ni 3.447669391650954 4.30403822723069 -0.11028462852399282 0.012059759378011488 -0.6091401045448993 1.4823605287783181
Ni 5.897578234097193 5.612669844677146 4.796274816689307 -0.06730273901171635 0.2813252228118961 0.45432961232850144
Ni 5.865522180847599 2.964549253143404 9.062915525933457 -2.564797530782841 -1.781167453314745 0.41595615475662556
P 9.668487063543981 6.138207497272191 12.26122514744223 -2.171667629892111 -1.6094756119619764 -0.40345673673803417
P 3.989716365721285 6.506643245839479 12.448056543574381 0.3188345326112638 -1.0702026647218603 -0.32411866382833854
P 2.3292309694621443 8.86467017701677 0.9126222144635695 1.9640525922801724 -0.3627746856376397 0.9478250962231869
P 6.306606208734081 7.802016552310184 5.76015220841955 0.2864334905727389 -1.399268645253145 0.8571939668981753
P 4.732063726909546 1.355062948966337 12.73167360982953 0.6944577920767975 -0.02558196223416239 -0.5768390784193484
P 4.011447282272639 6.204553538360445 8.128185531969567 -0.4884568930295136 0.42914077176769966 0.5210636233209414
P 5.121167910943146 0.973804779099211 3.6047086365377967 -1.2830067027339065 0.5698626471015154 1.394767414948682
P 0.38590221112260564 5.950357209022587 3.4289878866240238 -1.0851752268712924 -0.706587742571112 -0.7315338709934885
Ni 0.46067000399093627 0.17737531447526778 4.3040282380922825 2.13550609236989 0.06941824269282239 2.1965175990562558
Ni 1.8961110091960292 6.654110171822526 4.725141253993919 0.9371326495063473 0.47496425785971746 -0.10840413703771654
Ni 6.008448589373197 5.8116171575927575 9.281419755641796 -0.16935547991010833 -0.053134932151766553 0.31085151440578723
Ni 8.76641337923756 2.4981382188792685 10.050410873270373 0.03415736260799924 0.08567481376100083 0.2823629200477911
Ni 2.6956234851735807 5.213213280840563 6.555127799353618 -0.6755326730375204 -0.4649312991037477 1.742009295058045
Ni 0.7330665435052345 8.955298905467462 8.946725500404305 -0.9688747178046346 0.4991711941232242 -0.037150640908368275
Ni 1.4391805753830482 1.2783009608306946 11.172359115453789 -0.2012024492173761 -0.14868098227989232 -0.8441985830797718
Ni 4.101930714164694 7.5348252620091065 1.3017073283238474 1.1080498174766207 -0.7105572687418215 0.8354429483743289
Ni 5.75647711358949 8.087560614174274 7.868677705309985 -1.257794465134337 0.11320104420572762 0.590672641868331
Ni 5.375890940306067 3.066838030424828 4.262666848365392 1.6575750385723647 -0.9017843519140405 1.1174022052257981
Ni 0.8121541846825826 7.378013951098628 6.966205363570798 1.3545435344316286 -0.7934748314726593 -0.586895434214086
Ni 5.37145031423268 4.79251617633803 7.241927378070932 -0.1554758937145387 -0.784574700769552 -0.5972222700613907
Ni 1.531316755629615 7.753805337946985 11.211713596464488 -1.2040720359102168 -0.4571097461767999 2.137706185345002
Ni 4.889801303381344 0.6587773211769189 10.151582683257262 -0.4971215106830471 -0.8126385488853037 -0.3743528773935424
Ni 8.197432055609639 6.995538922552905 4.959115934783278 0.3130577780284866 0.8186736993357902 -0.8164617792861358
Ni 7.331364674740791 6.0686558508589785 7.010543516542794 0.482469307987511 -0.010110606071440651 0.17460567256545412
Ni 2.4118865492575563 5.247939158355138 2.493288038131221 0.032977226256969014 1.8862882916155 -1.377714059010821
Ni 2.375871164785066 5.17796978433584 11.300763132943482 1.1155399552060787 0.9432418477278788 -1.0364039710048603
Ni 1.1739053834490139 3.680706909637096 3.6585510006517254 -0.3946748767803461 -0.7359134881184229 -0.2978278484526097
Ni 1.5860935582362867 1.1545991032199383 2.4005161854406114 0.43076288075215485 1.1026291606816816 -0.08612244282138071
Ni 1.1405053370320148 3.3126525645362332 7.936263307664122 -0.23490986877215028 1.1820893609915384 -0.2518650085692501
Ni 4.153411101097257 2.8648304087428964 6.715204650419493 -0.6698407648590657 0.2795781582138024 -0.7563326752047232
Ni 4.108623436896974 7.07888466100185 6.084505889199444 0.38798460924436406 0.45732906127645756 -0.7523137838533173
Ni 0.4630628566910122 0.1960214034660302 0.17854041125484932 -0.8726020739231295 0.26903509259063346 -0.1385094410635292
P 0.31009100734255296 5.5557135936909 7.994570816645706 -0.35867094788191134 -0.4730593275275208 0.09345471481673583
P 8.771707622592947 1.5121830150639224 7.902756105035127 0.14436461429272557 0.38098246689491805 -0.2640026723730486
P 1.8931142676741122 3.307013241854081 10.074985969957073 -0.33638591123146583 0.05527717530574996 0.7258931277679435
P 4.070492171289312 6.358467999133071 3.5337612350581638 -0.5375685629545001 0.2937994440195069 0.3005727581875985
P 7.1414529915655045 4.053365339439813 10.378367000601006 -0.47147347109763965 1.5353705053164461 0.9204616166085696
P 6.348052052085681 7.98071315736557 10.507715445721844 0.43504325329506366 -0.11610999032240649 -1.3022331550636863
P 2.3005621422358074 8.573341495911889 5.787677733350101 0.23452908839396383 0.09101962301268195 -1.9035391082761475
P 7.046783202577681 4.282652390006102 1.5159325743802843 0.4544021174376497 0.16557647248365034 0.45539533458885445
Ni 5.501345437655398 2.9792786917753706 0.6366186878810735 -0.24378197445079947 0.859168574126043 0.32239113961427057
Ni 1.593540006866504 1.3657785701659182 6.548787420776035 0.4461856430651283 -0.5554433863523919 0.6821704900690123
Ni 7.2374395306159895 0.6083793936062115 9.241639374093587 -0.5405230175971336 0.20662362023294736 0.2255456539484309
Ni 2.9235756236073787 1.740062505218402 8.64610964489196 -0.12758585217248997 0.39813146787037884 1.51130497972681
Ni 6.836166759796425 1.6167238890042415 2.631594016092118 0.7386013193632311 1.4989534001399927 -0.6900213535719987
Ni 4.0809716855811065 7.071274753743165 10.2082946544043 0.4630397385079896 0.6022498051829693 0.6001592412025276
Ni 8.224448134481463 7.40257815054343 0.09419757517224896 -0.7839504369219917 -0.6220203029416771 0.9051131591769573
Ni 7.67592638251681 3.8208545214787346 8.24240769723266 2.044395709415615 1.3335072825866194 -1.5214760067225408
Ni 3.4297888339035176 8.812663090059141 12.243521669875634 0.09668196350478188 -0.8852824976042754 -0.7228571691550971
Ni 0.18307729629833294 5.1161006934606315 10.236378662982117 -0.7198916587688698 -0.6110355217953993 0.009794103272286359
Ni 8.720508747742745 2.254248864169822 5.7033467026128895 0.25427181823852985 1.591685377858091 -1.4153598943880528
Ni 3.6773106025789244 2.5132036558030864 11.302331427673282 -0.012808721728894069 1.1159472179468266 -1.3103115611964467
Ni 0.8949423475877524 3.752846651001055 12.436241209046608 -0.009273969102758222 -1.4891428418074741 -0.5614299429531298
Ni 2.980150471127201 8.648096575331339 7.819581090042583 1.4194739165564263 -1.3598814017047742 -0.5286013264588831
Ni 5.795807075805919 7.749582656711556 3.498394236478598 -1.072174186625934 0.6333285288656448 0.5247439003860059
Ni 3.408493807028079 8.448704291704898 3.688176060854601 -0.5328004521418953 0.7842648828386171 0.110120605508191
Ni 3.715768785443522 4.12794787919588 9.16865872889651 -0.24922705672577075 0.8303246533111571 -0.4625512289073453
Ni 7.18422466601468 6.193828836125948 11.537409454204802 0.45913191881315124 0.11830082732613818 -1.0874555382650368
Ni 8.182566401453949 8.485736752087856 2.81445155134551 -0.6367606944756453 0.06139048729233943 -1.9796563602557005
Ni 4.71692564170641 0.8111416492895714 1.5619597998464507 -0.8283790995490121 -0.660641614858301 -0.7494737433013609
Ni 5.696642174535219 5.48991241469754 0.09706718220535708 -0.17989314621663854 0.7335136204276786 1.117943679551565
Ni 8.454507073015519 8.744509923022823 11.218146601598201 -0.946275749458196 0.13532435846732824 0.2205901097153685
Ni 0.19326076885190085 5.040410267444947 5.725555281600767 1.1815376022531265 -0.9312126844774866 1.457188914608697
Ni 7.268215157942582 6.314988003960533 2.453800065907273 0.8044583270673565 -1.6780711016431875 -0.6144926271060643
P 8.809057919197926 2.049862011340186 3.3206402428473787 -0.1645022655828651 -1.121092766703508 1.0078762958788128
P 1.759232569923754 3.524731053938788 1.334152049867799 1.0118301383202382 -1.1332368582652097 -1.0345985423650053
P 4.843088459779103 1.1916860498123867 7.80579880335224 0.877367613632573 -0.5945557789728212 1.1952143284092707
P 8.482422174343919 1.6747153779707875 12.216992334475247 0.9817754850267028 0.9116278203670235 -0.9594050877513026
P 6.473007092514694 8.230568752014106 1.4923681968796125 0.10644135688439088 -0.16192267778114694 -1.587730764085717
P 2.01984010991153 3.3764105106737405 5.6079304525550615 -0.5190805314526415 -0.14028787312019064 1.8332965699098167
P 7.00505584714372 3.9300176421907373 5.93931467056607 -0.0824946162608063 -0.08297438411070227 -0.020157191674165287
P 2.628641771641284 8.834575627308793 9.913566941930773 1.7591037886464866 1.5026814997238571 0.038555748786011014
