# total energy = -340860.6297691711 ev
CRYSTAL
PRIMVEC
9.35112580413940 0.00000000000000 0.00000000000000

0.00000000000000 9.35112580413940 0.00000000000000

0.00000000000000 0.00000000000000 13.68631784063962

PRIMCOORD
 96 1
Ni 0.38867767796162717 5.485978278287349 6.916750102518963 1.67861617551338 0.44438021442527337 -1.004332287281296
Ni 7.755777068889632 4.415723216358406 5.808692179011768 -1.6565008316715795 -2.437046099566764 3.391599001432088
Ni 1.313674220327856 2.0886955352255496 6.038978616191541 2.6864047967743927 0.3636424329545737 -0.010924103111671508
Ni 5.325494255528249 1.2405577668869165 4.02017807153311 3.0668504173292344 -0.3516472082659105 -0.58921894014094
Ni 7.242774301813286 3.7966319259047157 3.515495001173276 0.5016471664675425 -0.2543605212975942 0.04014057677462765
Ni 2.4984151166956567 4.000262043583434 4.686879684412839 -0.21157710758348078 -0.8742280395623266 0.4831131122190969
Ni 3.866035982361891 8.098224650608605 4.36345790345751 0.7093246818863009 0.22433543569041364 -1.2558136872588823
Ni 5.679901927278039 4.004816041898531 1.825439833447143 -1.768302424426619 1.174402533870242 0.14821638393864797
Ni 1.7528498483945814 3.0221997319389544 8.12924888101927 1.6221979446246515 -0.004520770688488988 1.233219089787818
Ni 6.773001789789693 2.3075866903790874 7.3292974644623445 0.5382092818622924 0.7906923836315156 0.689655742702464
Ni 8.277485734182312 5.209250409419498 10.077988920182088 3.302598208621648 -0.4899838711970013 -0.21156450917799047
Ni 6.1230704861056395 7.942425541927252 4.841343452315144 1.7199602856778056 -1.2134313656379296 -1.1734653667679533
Ni 9.19883346722092 9.460440565502507 0.8012933031241063 -1.1955683693145798 -1.7000594329888206 -0.24751470202035436
Ni 5.539672443226328 3.118086176955375 10.065137667852648 -0.36032545276619876 1.4756147254140521 0.35393471874850657
Ni 7.70884376797902 8.572841045850309 12.567803806384122 1.7727355204973083 3.009393460763346 0.03564346023522248
Ni 8.061717855080605 2.523017928948261 10.410428926958934 -1.3008396171502694 0.13753653562729862 -0.10660282216291964
Ni 2.6584970410408983 6.050795633996032 7.994644099198629 -0.5941004366029574 -0.2779709616276826 0.31018251336322067
Ni 4.8991016165718655 6.263991953474224 8.865106745519729 2.1934474447713646 0.049933651605649484 -0.833749619832306
Ni 1.3863324685995149 7.969207166515416 8.677084592086855 1.0321750205251772 -1.6320316428856214 -0.5847184811674252
Ni 0.9712546919865945 7.864530663149528 2.5158325238038666 1.2393745678662524 0.011522913037934995 -0.6151271753662697
Ni 0.7942565808815807 8.803692291034665 6.55643064897286 -0.02030914387099728 1.6044902429322432 -0.8542356556007998
Ni 5.630359662240298 4.337884444336103 6.401022417354283 -1.183474157154207 0.7651554157026759 0.3858037995429614
Ni 0.9608375377298857 2.5985843773759667 10.572187508178708 1.689703286565477 1.3975794304761802 0.37496068618087036
Ni 8.142268453614976 6.434939886119551 12.170078914110677 0.0159107576929855 -2.613885032338111 1.3065513228230659
P 5.343513875144656 1.99362263816275 1.819965684343124 -0.634992803941945 -1.955330381915826 0.10563454471237936
P 3.473700143946741 4.361037832073635 2.3462451799775255 0.3241261200275063 2.7857612217875443 0.47305315687993366
P 9.104761140629815 5.86832711423736 2.282781893806964 0.6877392424060415 1.0272346458007662 -0.5407389902626817
P 7.375448076134817 0.5831885776590686 3.6987134812294236 -0.45086787903214615 -0.15694347939900066 0.023164611041921395
P 8.925930208847678 4.322501842224536 12.213369016369212 -1.530914012206989 -1.0234299273426957 -0.4587082010121713
P 0.8367602534516156 9.36786441905599 12.108599936856878 -1.2606622736004354 -0.4040167230065622 -0.6905309462185656
P 1.2100076385595666 5.676619682085844 9.69975364451711 -0.6038708857261599 0.4214128069958226 -0.3280617076364866
P 6.367303192458173 7.931755907271144 0.4530489584574373 0.1870428698875424 -0.5862588290713516 1.9467917483171955
Ni 6.82040264699549 6.073911617229949 2.444923871188788 -0.7587515690588611 -1.6600412407246703 -0.1571154862004907
Ni 7.480554731292275 3.1996186437096346 0.7234610768899367 2.1690371342478 0.02855261482671212 -0.3835224597079524
Ni 2.9284359925026706 4.355576774545882 10.52943229032186 -0.08913243329229811 -2.9275976703417776 -0.05078777207582866
Ni 5.245757204947498 0.9615856278021808 10.880677411291023 -0.7085178697142894 -1.1018226056199862 0.9247648719696139
Ni 6.975397558849124 0.16118722742705752 6.121561214384784 -0.34313839946395097 0.5968093508936884 0.9489219288317916
Ni 4.919767604819017 6.911716391445007 6.4444490460510115 0.6866694063806302 0.6701814360279361 1.1430479308183605
Ni 8.651138023041892 5.739552759417667 4.507465242374312 1.3797516582661398 3.4052502736669354 -3.6011341388848757
Ni 1.9542731003600293 0.8663425402479338 0.7887824317775616 1.1744742676484419 0.7023971015285323 0.020995885525376744
Ni 2.4865204845461646 7.495666150752636 6.085717413683356 0.24112293956139766 -0.8006289260189372 0.5808484566890577
Ni 9.127577887834816 1.827584046616859 12.638644195780104 -1.2911568426448667 -1.039384908010055 -0.39915425270793836
Ni 3.906208419244136 4.057921085905576 7.956417631616941 0.6013306358028095 -0.3137239508575758 0.5509943494421027
Ni 6.9184679043474695 0.7932242165818135 0.8452866100505987 1.184072195749522 0.3898016078484448 0.8175832944850888
Ni 0.9068114078213261 7.510319365043715 13.46391565594645 -0.20003516838215227 0.034558197590843706 0.05909654905184015
Ni 5.3791136114599984 2.7488476195223357 13.306125692560201 -0.5980967022465441 0.43496894841370254 -0.3127831842108613
Ni 7.101796727689281 7.33935273014658 10.103089212332769 -0.24380280038640592 1.4222476226468215 -1.029601089150414
Ni 2.7730857378646956 8.773796741520572 12.637384599120878 1.791084198207825 -0.40017112400822696 0.1897708103416667
Ni 7.190931659803238 0.3323745488955194 9.504723757332014 -1.6500810441881646 1.3583348831532607 0.9982889093006937
Ni 0.9494198130014821 3.4234191399626086 -0.08664753262357662 0.8133893110083992 0.85177305299292 1.8386339229623303
Ni 2.6662023687855374 2.596947930342821 2.6829558459545857 -1.339912671892331 -1.0080812128007672 -0.6053790948405703
Ni 0.6438268886941264 1.5309663329518632 3.4945550249371466 0.4407919828533828 -0.6662170520635494 1.260221329408275
Ni 3.633969090810056 0.5699520589423978 2.5095092924677926 0.8438010905310372 -1.5018520618440263 -1.2023902773324198
Ni 0.7940003600318197 0.44645267424497553 9.780050827539492 -0.8707192550781199 0.33068500419194663 0.7272288158602314
Ni 9.029138585446686 8.972470762470335 4.487469729854455 -0.004637755882327497 -1.2483438612443984 0.8305077158562407
Ni 2.803374034666742 2.095680826275605 12.487040937291738 0.39363306577939305 -0.3742286931108523 -0.8989484251271421
P 8.678172128029455 7.215627983314879 6.106465691838459 0.37804549575378116 1.4380807330243361 -0.03261830025565351
P 6.263318672409158 8.061390565673976 8.173263695535342 -0.31359333881698254 -0.06709885053102639 0.17185767750667177
P 6.917130693343243 1.5802093619606863 12.260190103768979 0.08039376786771961 -0.29954894490877443 -0.5785408916018037
P 6.67799435060822 4.586530882115178 8.814454501837218 -1.013974952577383 -1.4205632929658631 -0.9422298615235966
P 6.14003342849493 5.67739582553585 4.515540874704737 0.11348695087726261 -0.9054456028157116 0.5926842729817212
P 3.4916823590595336 5.464956947255858 6.053020266848519 -1.4014052319801735 -1.286389246052894 -0.4400869863665582
P 3.033364976267958 8.196411472597331 1.2103367981913764 -0.5380457597012347 -0.818637446781216 -0.3274009341240361
P 4.571157631129514 9.346936599283538 6.109860150541498 0.5830940581901248 -0.264919270650047 0.17963706434177448
Ni 4.26529165394577 6.416349847823018 2.262950961103012 -0.3757330455705207 0.4155661184070585 0.08831456537669306
Ni 7.9894336518450935 7.885617452062346 2.5262206895702737 2.1627896106761915 1.6622102233515308 -0.6326405016596847
Ni 3.308774336383389 1.3467865571528168 4.6815832067009895 -2.4466507125360635 0.4397907952823781 1.8780869867516299
Ni 9.100375462580985 3.736457430714481 8.221192891354697 -2.710828991255028 -0.6023583057363755 0.7150970655937039
Ni 5.87210496910245 7.4447305679552445 12.15023395471787 -2.00136264158454 -0.8361119494168955 -1.0110328392299233
Ni 4.901869549839358 3.659516366778933 4.153126768956209 -0.28182581659739847 0.5953978152581423 -0.2693572518167426
Ni 3.8619308380901716 8.831726966493921 9.094955550007207 0.24726890455813544 -1.3726348447157004 -0.9963742087764841
Ni 3.115449159450535 5.990798810197967 12.920308524012512 3.9364291310450072 4.864185738653094 -0.1327707388075391
Ni 1.8942108186806386 5.730528922920607 1.2781586441456476 -0.9576464531889829 0.34418226734743307 0.9159354466034418
Ni 0.33409048049884615 3.8331761259363297 2.8530229025397857 0.2653224196257366 0.9407951859595992 -0.1744580912439963
Ni 3.1951675077794786 6.4692865715637975 10.321824203683715 -0.5961686319858959 2.751127947984391 0.8138701072995596
Ni 3.2190035277079803 4.1369380997917435 0.15130495757203963 0.9346926726062871 -3.372747930163856 1.4906037426237169
Ni 1.3504615496329662 5.445198018221364 12.170736298261705 -3.6397901606941767 -0.42549391904373174 -2.338342734756579
Ni 2.429450563155955 0.8073369357956601 7.935491682069667 -0.19498526466307065 -0.19222518541943026 -0.3516646917674073
Ni 7.578171134600878 6.249843699981942 7.651527911977542 -1.4241276132783538 -0.14383728103434584 0.8585257983357214
Ni 8.625104488526022 1.8306231625355576 5.774449291065052 -2.583735762448241 -0.062055117459531836 -0.34991042808046185
Ni 5.877360301860324 8.366536506163134 2.624283141584483 -2.555341013355631 0.9694742990618465 -1.3796706685165594
Ni 5.4424768405833905 5.722571114776569 0.23388381531492142 0.6661062375172979 0.34293939607926743 -0.726762160636458
Ni 6.238248303861369 5.458177380975683 10.834349128226382 -2.7368745233891705 -1.3517397464342462 1.646510810338403
Ni 8.496096355558738 8.64223575118158 8.086410438141884 0.04165932741199922 -1.277571390650948 -0.6665451248269294
Ni -0.05394290488801684 7.532079435021598 10.634378106113775 2.1369407679338877 1.0499680828425402 -0.43228754492679744
Ni 4.904478513966486 1.4793387668375997 8.522730232357624 -0.891386296509168 0.3623720508825824 -1.1027168352994814
Ni 2.1562761221315054 6.094418636336737 3.8567222609618175 0.14372338116430086 0.8157984346705242 -0.2968654845393403
Ni 5.0565371722863635 0.31461021501628256 13.425757451583857 -2.088639766835654 -0.7400493646636674 -0.8660768712101019
P 8.686709705979522 1.449742453352426 8.253684313419653 -0.06248577723904723 1.1214730328610623 0.0020378563656352
P 3.239267417541273 2.155518680933307 10.225102703124096 0.10238261343398496 -0.3120002832982498 -0.3951577299540356
P 4.607337137250884 4.566519472681285 12.088317344771777 0.5062779803713345 -0.05989821901752909 -0.21103357637518494
P 1.894977611004741 8.811425672157014 4.300268605275926 -0.9512402925523231 0.5086433952797176 0.361585550425545
P 9.487652341882239 2.012895308650252 1.5337436173452585 -0.43840677045065785 1.8017969566396386 -1.0295347546888527
P 4.211793862650769 8.227111218939141 10.987991867274342 0.3367600067414329 0.22469487591236142 2.0867921721039546
P 0.26654729809650496 3.8898907045422 5.12105058989591 1.843326700452309 -1.5341944827304739 -0.061594118662713276
P 3.5070649611711007 2.3697342731350006 6.693088938041953 -0.09138523388221681 -0.1943867118471233 -0.10231165098673348
