# total energy = -340873.42432961555 ev
CRYSTAL
PRIMVEC
9.15335519194016 0.00000000000000 0.00000000000000

0.00000000000000 9.15335519194016 0.00000000000000

0.00000000000000 0.00000000000000 13.39686055872946

PRIMCOORD
 96 1
Ni 6.977373620178513 5.1902176858433 0.2914007151590056 -2.632941277638614 1.0300983405018067 1.004002157635387
Ni 6.071063336319859 2.4657582078968194 7.91214534581944 -0.07040374653454326 -1.7343782608753486 -0.46284973398437057
Ni 3.8177178826519755 0.8396463999902858 3.7640490167608043 0.2943306339326286 -0.736457533547351 -0.43914056329288886
Ni 1.4734521545828159 8.860566554314207 8.162626903152667 0.11567624521909756 -0.7716618493626259 0.7510259182798291
Ni 8.981628826460717 0.7735335480879864 0.20081728421871425 -0.5065479462032696 -0.8419910339054918 -0.13832175053275533
Ni 6.3418836482810566 2.7784185051885553 1.2361468516541638 -0.4498363524438382 0.263677684933462 -0.42668639668993613
Ni 8.30903115372537 6.181187349339265 2.269080070772061 -1.2769522690097104 -1.4895729873663572 0.6973770226061216
Ni 7.0085774070942435 7.91577556637995 3.34287844292172 0.7806177730043331 0.4527080175646785 -0.6212952518501945
Ni 4.065700574092566 1.1107230058891893 1.234026019319645 0.4628461344399448 -0.3297205833961483 0.4535153439573222
Ni 6.541426785495173 6.613170781343075 8.315297540502286 2.1265997910191956 0.23200915018558754 0.10331155300615755
Ni 4.449326832064166 5.538411306927017 11.84409709784904 -0.5498998308263432 1.469349718340947 0.2047310311959248
Ni 2.6008159597130724 4.269289494180475 12.836349146369026 0.7650883099101663 -0.5904214450894735 0.3765732820836289
Ni 6.135420574748871 5.265696250497778 4.9065067041509725 -0.424668852039275 0.1570571221587295 -0.6797225427491519
Ni 5.926110807837163 8.990416047182073 5.364692529943275 -0.3255973052563941 1.7828594963051878 -1.5541786391618846
Ni 6.61285956727586 0.21992582794569557 0.7751665066053716 0.4639277975398978 1.3236437595289785 0.7704215491976215
Ni 3.9387343880238954 3.3939450100096815 8.484124764617807 -0.6972242990783412 -0.6252619498074264 -0.40475231562100616
Ni 6.256034332504395 1.3329481565903063 3.1842462255139554 -0.06667616117131098 -0.9126035540167315 0.21055406563560514
Ni 3.5787695525155288 6.553847888119007 5.956806583554941 0.5972454099898423 -0.3479363350732266 -0.31880085115985096
Ni 4.8311864925365775 3.4214233814737542 3.1947625149793364 -0.10081604027781348 -0.5269031128208539 0.05437214699297732
Ni 1.1442151315344395 1.7752108061671192 9.324643479331787 -0.4796608920044384 0.8343584570608986 -0.06338566334549729
Ni 4.5748650947656175 3.2403425611294012 10.733966314023048 -0.684251540967757 0.17503993188939532 -1.6231682789577206
Ni 2.3556708082970856 2.7239651967809047 3.1625829804293386 -1.3154180291850763 1.1067812351768422 -0.17359342925085586
Ni 4.5101142620751276 5.169375496694835 1.1270928658246815 -0.44618667150639285 -1.3222021419864454 0.11055306505991928
Ni 7.9628787307883835 0.7019268525638559 11.29907247861343 -0.504829420850266 -0.1578222824595282 0.5402221985272632
P 8.780007877680195 5.1620985795349625 10.351365231802275 -0.5627661452660501 -0.47865456222711117 -0.6047807991349392
P 2.4287969607376176 2.9052473909334546 11.06969123503736 -1.0736849668435056 0.24294688014401386 -1.2550099604106644
P 0.9471983202777117 8.60375087537767 10.369370796261626 -0.524635914053232 -0.4653334196381728 -1.2956531878533235
P 2.638125034359162 6.914270391373277 8.089318598949266 -0.9531799327771973 -1.2133069242449233 -0.8038299494547383
P 7.521137822441901 2.6079281164844192 12.867041260744836 0.9967783861934381 -1.4345971453511097 0.22176381830849548
P 0.3098474713254098 3.4682794052993997 7.095191943342056 1.8840648016016197 0.6401797474595233 -1.5166724146863106
P 5.947767645573338 4.2191016491646485 9.073452536992408 -0.9443919021719219 1.1155612953623173 0.8827039382438219
P 8.361699557923995 6.8110663146719395 13.156761419940883 -0.44282546834364384 -0.3095860174298023 -0.648693184247173
Ni 0.5229650338830384 8.008581431894351 3.5651191543261977 -0.6626910411881619 -0.3983862641936623 1.1830522391254399
Ni 1.3190899772443347 5.697935976439295 11.575677710882854 -0.2099889371607545 -1.41309141006885 -1.4438382043334037
Ni 3.78472919152722 1.920035187680962 12.496805445682893 -0.8904768973210211 0.5851411705271407 0.3926041102942464
Ni 8.657700749264826 5.058665668960671 4.536980274095181 -0.8653477063535613 1.3824045225079546 0.4667233580071639
Ni -0.027937869880960094 3.4686180794313684 11.669991133952262 1.4976637347942916 -0.12236471298286669 0.08156053448231115
Ni 4.940523317033028 7.216596550962502 3.9009383548961645 -1.3468453944564223 0.20010793060161666 -0.09059770498391494
Ni 0.8862708439365038 9.126636275072922 5.836248661264417 1.1196035837524911 1.1007915932523107 -0.4863537306435817
Ni 5.699849027617173 0.21707821923068124 9.85578886650511 0.10134620174967061 -0.2975763945634359 0.3129922148978739
Ni 8.379420453045396 5.576699790549341 6.936037069368468 1.1329825761625585 -0.6277803453539059 1.1379941704445369
Ni 1.6691874961510125 4.361866525821924 9.328810086490495 -0.6541889172544217 -0.4969929555249828 2.2609895534873963
Ni 3.3108050872887724 7.388139575482216 1.7104041380116297 -0.02907557720971767 0.9651612735087893 0.047774696281117725
Ni 3.354814417734895 8.878690197052004 6.406163998528756 -0.419180061010562 0.29094731928269246 -0.19303611135649978
Ni 6.5315045487639765 9.225574888382434 7.628841688420967 0.7311497481811924 -0.7035325006845562 0.40921060850267593
Ni 0.9812304938631287 1.1589428795976284 11.643037249724996 2.17206357977895 0.3866550917996631 0.055530943187768876
Ni 0.10665672217643772 2.7675626262557134 4.668792246257483 1.3793227982588374 -0.3516304960953622 1.0201232315669657
Ni 6.947588603275084 5.864591109432756 11.294330125430374 -0.3119586314270369 -0.14379897159724267 -0.2884402365901226
Ni 8.06185395751757 7.269978916844737 5.527972820978441 -1.3031371549351944 0.40442887084331636 -2.8912263308015946
Ni 8.033533477401035 3.676142942134051 8.614421856541167 0.9166363293252083 0.464474156961671 1.2142528330979603
Ni 4.549299774479423 7.866676970599375 8.279607694341205 -0.10702448308137051 2.578645749519843 -1.176266583662174
Ni 4.024547090380884 8.504391207741925 12.328942985175738 0.22291850073822897 -0.8025878495175209 0.6845143077108405
Ni 0.5003470938804657 7.574932089295451 1.2608718939588783 1.7077501167648588 0.9841216166613762 -1.4421101658987034
Ni 0.352106680311196 6.605976244377466 9.02204821110797 1.6202472486561836 0.3905104609900113 -0.9966457172703159
Ni 2.38609656004478 4.710316440843346 7.289218353547047 -0.17086651723799606 0.383289774871856 -1.7098033997494617
Ni 7.4231145446241955 3.445917759234533 3.2932828199690936 -0.9971671369914247 0.6664291680743555 0.7679802867459805
P 8.457123282944966 -0.05122125878607712 2.263185310204818 -0.7500134178549148 1.0416623911903222 -0.7635510473300334
P 3.4098993076318926 3.207152496196448 1.3458214349470923 1.2206967889510913 0.7000864511174847 -0.4301769263416979
P 8.067977551957764 1.4449943741425089 9.330403685581732 -0.6940381880408757 -0.300125900458167 -1.3004855762449603
P 4.236465563444244 1.0692308480455381 8.226823957870613 -0.19386143547127258 0.021006427048338015 -0.23887348140558862
P 0.38205554226765803 4.286168280649412 2.69359985717567 -0.9787061020727597 -2.257647376488041 0.24263012023454344
P 5.132990910895471 8.635751004171274 2.1759849592422484 -0.2733280635390325 1.0613958650635076 2.2600503295025782
P 6.7858762819373855 1.903522535408748 5.315766932570653 -0.3592157646417878 0.057861648203474544 -0.2738273717729542
P 2.752258216832686 6.333599862080194 13.264177870575521 0.9164262701969313 0.468575066503922 0.528748907780341
Ni 8.502780217276344 1.3767744199380674 7.053580791884469 -0.02439256991175154 1.0109392510748525 0.7997172128379454
Ni 7.883546603713395 8.048233765399468 9.757535839478962 -0.3737964906694401 0.8432889267813091 0.10244534835112035
Ni 5.761066665309285 1.119519379965463 11.93976430211083 0.32979385983624493 0.8207382951743026 1.111385052497441
Ni 5.821149286991553 3.7830907409968835 12.399302993760026 -0.5114921775824223 -0.11620614958063857 1.6949457659113392
Ni 1.7568491762014533 4.998006385918564 4.917143817901272 -0.31593175714217203 -1.7915675656021466 0.5198228089353046
Ni 2.288961157654128 1.9152388297038887 7.145951873040262 -0.3755589818865016 0.572445320227027 -0.23247349141651574
Ni 8.804236808148351 2.0472759743971753 2.0799827421904546 0.6591598881064519 1.2180940612209215 0.4700763336397969
Ni 5.139910847213539 5.211746376610622 7.2209077811289175 -0.20608214590718055 -1.5701804139067796 -1.8458821198843114
Ni 8.295237047863825 0.5396406158727943 4.594653732763012 -1.2584449542341423 0.39872153604589394 -1.359243253900143
Ni 4.4634413053478434 5.980646496439077 9.329184458706644 -1.0464816669558366 -5.714329740683024 -0.24877942766539093
Ni 1.264966189613735 6.9663804409219 6.1770912230134245 -0.20590499689936798 -0.9332240584805606 1.4778150754994805
Ni 4.515432361282532 1.7101670661192514 5.9211844722202525 0.18825823035188224 1.7179648525143316 0.3020442005268024
Ni 7.050682839717405 2.879270169675947 10.641702327119798 -0.6591686298572003 0.277463940084277 -0.7829281663050645
Ni 3.5521790564785096 5.372863729878645 3.6088062866792043 2.7461711181997477 -0.7550514944994545 0.4912038596470314
Ni 5.647784744843141 7.163790846440105 0.8825060690586979 0.6613247569682547 -0.9392746355500144 -0.4216925430197705
Ni 2.9158927427031807 7.395947387227337 10.292030439216811 -1.697811003274276 0.26368874067705556 0.3598485131297803
Ni 8.958260311354861 4.582389152508277 0.4794371699056065 3.6437337187229573 -1.1375606824515443 0.4625196043384615
Ni 6.693674537847578 8.039007183642045 12.326048694350641 0.025452892855465845 -0.6304800036732561 -1.4616983724432764
Ni 1.819906638232098 5.7230985491090935 2.3712443263547054 -1.462400026495991 0.222954496182487 -1.5676129102899197
Ni 7.267361057338166 3.704280355152225 6.264318118705257 0.4151861093598204 -0.5768851011659355 -0.5904047329189251
Ni 1.8519250737355377 0.32666309964541235 1.969981384126951 -0.5531278508453378 0.5202221012562525 0.7664458523793252
Ni 1.6767024005387554 2.4016389566956775 0.3122072062232905 -1.5794204444478088 -0.028897399760640555 1.2184061931447014
Ni 1.2955750084597906 7.713971550501068 12.349159084847807 0.0340131237206511 2.700953126902213 0.6699202119467494
Ni 3.216681138666168 0.6863441811513186 10.398294482467264 0.24546347591828047 0.8575346380670458 -1.0868862960251282
P 8.55787426052826 8.162156420709877 7.24613351194765 0.20067640151057697 0.26800459444359004 3.182222501044352
P 2.1717341412182924 7.038774324968985 4.19951346963996 2.411389061120292 -0.5133459429617095 0.1641924476519301
P 2.10680939478436 1.5173791048346759 4.948451953063069 0.166447562234694 -0.5648065727348467 0.29928386417284586
P 3.903612965203227 4.000144246169286 5.638510565640144 0.12478900615364315 0.5763294857727816 -0.17611311034891605
P 2.2586910129400413 0.3972180746894555 13.309003680280338 0.311964802074624 -0.9898999139060499 -0.10824524286234906
P 5.115755143584729 7.313045451734298 10.59964906861967 2.101403751369542 2.788520529700236 2.219101397894043
P 5.816169861916119 7.137896005376859 6.056828038751263 -0.32140974953760776 -2.2919772601181623 1.6419825834507462
P 6.242038852834653 5.1553800170250925 2.653958507696454 -0.6492817097607915 0.7397824841555259 -0.7635093954588205
