# total energy = -381170.11002510175 ev
CRYSTAL
PRIMVEC
9.28537112312248 0.00000000000000 0.00000000000000

0.00000000000000 9.28537112312248 0.00000000000000

0.00000000000000 0.00000000000000 13.59007921838301

PRIMCOORD
 96 1
Ni 0.3589510815954552 7.536861254611065 0.42119742231648755 0.20111477459957622 -0.639201442706654 -1.2462309286664537
Ni 7.67234410101836 7.143588656657904 12.393255072952455 0.07276813300166177 0.4593206377851896 -0.8609835158475946
Ni 7.150534114070876 7.885981914063322 4.367348191056216 2.469843348602443 0.670075249467375 0.38177822332333605
Ni 7.172299023397082 7.5138799617005 1.038592874104352 0.18749127027887064 -0.04597698095074663 -1.0077233152407161
Ni 4.568142479109706 6.973554945232341 7.7221136888974025 -0.2765154601280786 -0.40079950162084516 0.3327460004860334
Ni 5.176464266480518 7.272432462891036 5.049502604923334 -0.8128686626182389 -1.2824042932632174 -0.027633959667184665
Ni 8.190922778902056 0.35892043987157435 0.3506648166284296 -0.061016391782372344 0.23597841924598068 -0.8146254974083454
Ni 1.8393669723363908 7.775550998271261 10.598820938807384 -0.6886877223622397 -0.6384961891095132 -0.4105951475550283
Ni 3.6132163677932065 5.97567470825755 12.067024709776206 0.06448043907157282 -0.47825655545774415 0.7604757508388194
Ni 1.4177925639624613 0.7483953211376965 10.179852005500406 -0.15879570211639102 -0.5032366224418495 -0.25338658742009906
Ni 8.831371949493295 3.0443759773742016 0.09283606652489723 0.23323633772446928 -0.4500312420634637 0.3903255986727149
Ni 6.859019895514434 2.5661329505626247 7.503544415381813 0.5413442279468483 -0.8138122574784308 0.4480522639602219
Ni 8.213031246950564 9.065706854214074 10.146108039210997 -0.7386943932976698 -0.05993370024115484 2.1506892278682317
Ni -0.23987548552067273 6.425922341887167 10.575704079482072 0.9411047467802179 2.0463410060674434 -0.8227496691773766
Ni 2.8889295835900524 6.445198771819422 5.877015785658223 1.210021311515116 -0.034194643603837886 -0.5599423026640098
Ni 3.2067306870878305 3.945131235017877 5.059450022739531 0.9782980680010634 0.9742033291063996 0.20658453946489583
Ni 4.123373214295133 8.802754436462846 6.277963671174969 -1.5440333231977665 0.9419992335700293 1.1221415196829965
Ni 1.3501764932655989 3.031190750734605 4.269771942700674 -1.469744125565888 -1.341242189337032 -0.7164630927032951
Ni 1.7538579919673427 3.1993209611312117 1.379705829715772 0.4252373229482354 -0.8619620777107799 1.4392017340026568
Ni 5.356303329547921 0.26265435734620735 8.210581766114277 0.23544491534001386 0.2201219118296983 0.08475410171894436
Ni 1.0116225858667651 5.185053234538001 5.919280936797742 -1.351330941031602 -0.34503613070729605 -0.0840763589256294
Ni 3.690925636628972 6.970602197294742 0.9191430775833894 0.35305231614355326 0.22909711874511512 0.47480227836055644
Ni 5.68416048970111 7.445483919850309 2.6366655562506827 -1.2200020768769118 -1.5818876750413788 0.6514100689577038
Ni 9.024182675670218 4.110810107504023 2.277616049723974 -0.8474214608924437 -0.5142926231456949 -1.0658459304150611
P 8.67188641937941 0.7277112289811006 4.101241532819443 -0.5139182705254117 -0.7889460903643702 -1.7038644085572074
Ni 4.394858887878608 1.1050148461069524 11.876927168968363 -0.2399006371185223 -1.9708870987035025 -1.610953996279716
P 2.7632242327119796 2.654631820352764 11.081445732133908 0.04264457414340398 -0.5381997687805956 -0.3376892034239216
Ni 0.6118195865786545 7.330679594377087 4.396621251270296 0.6566247803894241 -1.0226958773901484 -0.8065614894532883
P 2.8438026811474884 1.9468729963034705 2.880023055848713 -0.616613530103809 -0.848761776970422 0.20977579270868388
P 0.29246132638548206 8.7391496459831 12.181140989267744 -0.17342527910410777 0.09756925120574164 -0.7906198785223675
P 6.74974036571062 6.784142664794921 6.7312615491363506 -1.3160101542431206 0.3736129139037243 0.9476872850937421
Ni 6.256965733482867 2.9001463116045825 0.7880002135221139 -0.04453433496694911 -0.009061338871319878 -0.5679392048265572
Ni 7.302786340274728 5.175860717373776 10.039535195016649 -0.6289126591861363 -0.708652852630257 2.541295591006159
Ni 4.508103271045174 9.269028620219183 1.9482193750800492 1.5403016240694762 0.5623665958347863 -0.25629707619867476
Ni 2.5284807716727897 0.21504454673221488 1.2504803947397618 -3.0178318213386865 -0.2932471710604627 0.24066348342647584
Ni 1.8597205052899093 5.112404492827998 10.027589565388592 0.35021690357728713 -0.4373168798205888 1.3309711464283271
Ni 0.5532808944471934 8.60126188851971 2.4124972040987016 -1.9869955742295908 0.07462884035948437 -0.9163601928456863
Ni 5.625384092075301 2.529214315971753 9.807022080061143 0.6161831274346098 0.022585084389367554 0.08132039344704704
Ni 8.733002730465204 7.120059526865835 6.18079505060075 -1.0405545028381242 -0.33771080069047643 0.5062759234888056
Ni 4.931869026945121 3.28753198442429 12.212044560607115 -0.7266845133209872 1.1894167478908872 -0.9486455352419535
Ni 7.639938156671745 4.74829724478679 6.260936158068143 0.6593177538405549 -0.34621575283769407 -1.135227406332677
Ni 3.901489991914986 5.455498946583706 3.2235529934983638 0.123944912985793 0.5566188947177316 0.28322526804808645
Ni 7.873706653769275 2.434308540279274 5.254386170309274 -0.3901376510316249 0.6126879697971578 -0.02086553059509955
Ni 7.293630964593993 2.7215979150885197 2.953178778808381 0.02864466031988615 -0.04355345911091854 0.47734407094580367
Ni 5.260162599529339 5.258853362236252 6.026180626046818 -1.1597076508622286 -0.22369780210641474 0.487499928432883
Ni 8.73962319989762 5.741850498934784 8.195428969386702 0.3864352624793732 -1.6519592350474839 0.4498384093263672
Ni 1.7922065736726494 5.588660450272762 1.000331574885251 -0.7083461200231156 -0.0697296032856541 0.26166219716533
Ni 0.3806268513612826 1.142546315175439 5.897754661502969 1.039470525745326 -0.6234464938652424 0.7391885593252688
Ni 4.846480756397422 0.07442317608382631 4.2217034347655575 0.855095946718566 1.4471484996535593 -0.18066524849597274
Ni 6.77415160573562 1.371439992564667 11.989072164223572 -0.38512091454332387 -0.3940025333036698 -0.2940228728842227
Ni 6.463620947631366 7.1729118578746975 9.197820039531575 0.6614389139486156 1.2106116368009472 -0.256961449255551
Ni 9.10542967080858 1.6715896060329563 11.764822100807908 -0.5601981274285578 -0.15938242785779647 -0.01968745112659835
Ni 8.293303278147265 2.9594241192575312 9.986275236226463 -2.8573062810153824 -1.358157477035132 -1.6873687248950295
Ni 8.979167197678128 7.980924831239292 8.283180366821568 0.628770220071001 0.5661234917740572 0.35973667014226435
Ni 3.745514331991078 1.9682200639403953 0.31590038808008386 0.45602396931178885 0.4901299098565623 1.208679452775241
Ni 1.4605609822032946 8.22665288602119 6.553530265257108 0.8165913628854645 1.0471110730097193 -0.008881618760345995
P 2.6852921149752635 8.53930989405535 8.47576545848628 0.4917782440932627 -1.1203551172065351 0.7831017157684512
Ni 4.145797384953321 7.322787029135075 10.276247154680906 0.5476727412680374 2.091266920045856 -0.5372142649388747
P 9.009883204525867 3.4253733150333154 7.564767508232646 -0.10842573430427133 -0.21286728714981407 0.3562651666538961
Ni 1.960986760030363 6.361249733757031 8.207361599495536 0.3351461252870938 0.6931354737209481 -0.8322270125401925
P 5.64803111163444 0.629853633888109 0.25118506724393264 0.906536007666413 0.2912576514342597 -0.354505503650312
P 2.4702150694449934 7.156476751429567 2.7760594008696664 -0.6370406876099093 -0.11297273024500544 -0.2334875345033269
P 5.583256364424702 5.483178637155986 11.398828065405317 1.4554590764017838 -0.336730181944762 -1.0160192367009213
Ni 4.957803067793287 2.3991169846707723 2.958927351915828 -0.7937795071972716 -0.07398477901758226 -0.7474484853412159
Ni 9.18029761615722 4.34990840748263 11.350243290849662 1.9292647951770256 0.004210438536921781 1.4873505257937416
Ni 3.0240224444206834 8.319283745849795 12.633160271659921 -0.8675722248087059 -0.5135673149438962 0.023084906843921532
Ni 1.9033060361675629 1.0682819189335402 12.581029413967887 0.4233326497263548 0.6078725506863853 0.264369568794164
Ni 6.62476855913151 5.283933148964105 3.765117606978062 0.6908685320636424 0.412737904929644 0.7589685701656735
Ni 4.326936399942938 2.7527689051090314 6.91953822871601 0.2504077072974332 -1.28456916212502 1.24827135613525
Ni 3.5093223530957074 1.5655135291803117 9.327183826533592 1.3642725887939344 0.45797646505246936 1.2923048402063808
Ni 9.323812308369622 1.6335288708247113 2.0603105151841943 -0.07142164627609636 -0.07294065402378405 0.7367748076774537
Ni 2.8004307137999125 1.4242923235735303 5.533173859547241 0.8282636570170703 -0.22942853394260487 -1.8759691690776787
Ni 8.639406192065811 6.437064786934713 2.4616660284822633 -0.11225847778680022 -0.09274380479264027 0.4567515915064327
Ni 8.969621836420732 1.091523202228548 8.406918147611663 0.020840848004751205 1.0967881285198724 -0.8543516123533738
Ni 1.4269386542723226 5.887389401997489 12.287496555783665 -1.5486332838636232 1.39902259068061 0.46262681934028715
Ni 7.062610937274859 0.09837757586187713 2.53863989594489 0.1980325361298267 1.5203187531896463 0.10772665135471769
Ni 3.825377806869369 4.319108832297037 0.42978081915144767 -0.5188830707298547 0.45252289813706575 1.7969386001060728
Ni 1.8828967909888066 3.6515278080150217 12.77854689464031 -0.09045140921403777 -0.2613320675194209 -1.3256389355821363
Ni 8.093742087345705 5.302587459047873 0.23069318226440694 0.770768391014079 0.21738111585976755 0.4959120637559781
Ni 7.195930292268755 3.770881965215993 12.166301109538587 -0.9877910950931633 0.03195084187498368 -0.34139107775554106
Ni 4.368627715162509 5.105273327997566 9.688801666643759 -0.27541914174010634 -1.0937544838998712 -0.9933878724546504
Ni 7.484742467901166 9.361139499278902 6.69797906577933 0.4519611120963248 -0.7473821508796548 -0.1300631100683889
Ni 1.1171322550961595 2.905513255969151 9.361172926614046 1.6782060845591549 0.6979048700851335 -0.46773071622575574
Ni 6.390944349808744 4.73033005214762 8.179174927673593 -2.027256735742483 0.16523323021161865 -0.7274669000129665
Ni 2.0257429364983555 9.037600036581638 3.957702698642772 2.5417488764934935 1.2503593490125304 0.8620754633601927
Ni 2.132608269875201 1.1611634837757148 7.702041502681333 -0.9729041506790019 -1.8841337071663422 0.10867744530376122
Ni 5.571445372674302 3.325239875539362 5.007903214875406 1.2456886830097385 -1.6487250443809023 -0.818231469592049
Ni 5.60307134586759 5.572986744239213 13.454694602089713 1.722210000943931 0.504863616522311 1.49508106166878
P 5.739371304911704 9.143620401209045 10.317982111143579 0.5027661105633342 0.26554302027697496 0.43456425677611615
Ni 1.8065246155587469 3.097646150072348 6.768416032147396 -0.7481689084470082 1.8281775035156966 0.6603048003441725
P 5.566199138131082 4.64340041003501 2.100754805095527 -0.3405626683169748 -1.0637098579086648 -1.6497154333186295
Ni 5.2755206029532085 7.9047569339684385 12.821043251514567 0.8052926500431937 0.8016835925356968 -0.3130374663135125
P 8.727477934795795 4.605367530939384 4.38829041652308 0.37115339661963825 -0.1897240162641313 -0.535831011438103
P 3.688669291506844 4.643743968757309 7.530044863853228 -0.8400557645559921 1.8735911557638054 0.17889658663132416
P 5.860861097413455 1.2177949607298708 5.9809933686935794 -1.3125890443767136 0.4044895488779227 -0.44674794332650153
Ni 1.3870301302603596 5.16183052198474 3.2966947884017226 1.4817092683475641 1.6592732522103941 1.0351605855160624
