# total energy = -340865.76005899266 ev
CRYSTAL
PRIMVEC
9.24614806533490 0.00000000000000 0.00000000000000
0.00000000000000 9.24614806533490 0.00000000000000
0.00000000000000 0.00000000000000 13.53267230858459
PRIMCOORD
 96 1
Ni 1.9382977978264229 0.748018017168368 7.830315163157592 -1.1350939660786064 0.15464182784901753 -0.28537471029092143
Ni 6.463307278535396 5.056875666969578 8.329928010448866 -2.734951595334845 -0.06949357601544806 -0.9056386926631242
Ni 7.67344316257809 8.84047350344072 7.78429061097239 0.5397509153177994 0.34775610074162044 1.6225782107822058
Ni 1.8168219020092395 4.782089386881981 13.15217434383135 0.6600890847889406 -0.0949374700098494 1.6012105437397068
Ni 8.542396175890532 9.048872439033921 12.008041164515506 -1.0994173386126032 0.2802728702879818 -0.07341065168166712
Ni 4.207200872775633 1.5881276709891294 5.855059586128029 -1.0362826149356477 0.6505824308500859 -2.7695139066907464
Ni 3.0093161351751503 3.599442301611129 2.2609171766985416 0.41892500757696244 0.8823344707195451 0.2567619316502352
Ni 1.7835450144277172 2.5917600798315674 6.656856900025813 0.19866708439003203 1.3903204349209217 -0.929577977087541
Ni 7.936080003854319 3.5975653335147 7.51447690941809 3.150083197307646 -0.8620950037442185 -2.52409002576115
Ni 3.6516460546773355 8.446430403117924 4.258488332549446 0.49503608890892814 -0.8590711293162302 1.0953238852695202
Ni 6.295138334013937 0.5921187113856368 2.0647203829617813 -0.8818883843210618 0.08528374897016924 2.0483667782482207
Ni 1.6891973176003052 5.493525018466493 10.16720516624988 0.06465733096906928 0.6762291848839127 -0.8753428698930602
Ni 0.19019326967266373 4.561078705064494 11.5776070738778 -1.6363202429586463 -1.3913177658371845 -0.6042560369797206
Ni 8.053783471182127 0.9329825900009787 3.70501574703891 -0.2500775776515241 -1.1620347563335085 0.7967984965292535
Ni 8.974579637778703 2.009752031566352 5.366760325845578 0.5450823548330419 1.5965167378084635 0.9419622096845068
Ni 1.637021302978874 8.988180721866621 11.825999299147334 -1.1554699586317971 -1.7944801112632516 -1.5846066166344386
Ni 7.920546474780421 2.113641753396301 11.802885777731307 -0.5059247107969739 1.3351574165955329 0.6421792943880553
Ni 6.486385664588044 2.6575556708374344 8.782880170554767 -0.47784800716541576 -1.7883074067936362 3.1713876152123768
Ni 1.0573247917782262 6.5465503513046235 1.9933493645561766 0.635520394310641 -0.9607636586617261 0.862800000231043
Ni 7.141373561055804 8.548803756633516 0.27795308586605644 -1.5599291684924166 -1.107022661763687 -1.5603333459093707
Ni 7.859170542642009 6.763982773746157 1.758787527851367 -0.3213976653527497 -0.3088730505231777 -0.2745791623373142
Ni 1.0750589041375929 4.3209007579076095 3.811490691921872 0.6095558519260792 -1.6022736948968985 0.374390158389381
Ni 3.730534191616916 1.342559219397672 3.3415552066951757 0.9488141996093337 -0.0495317881815405 -1.3381396391523082
Ni 6.644762938103992 7.451054804670123 9.839470818161287 -1.3697636938154927 -0.2921925045437032 0.3738306863414852
P 2.0730049318011936 4.57073168384613 7.98893191191343 0.8944626214416465 -0.6221624849464963 1.2611124737639765
P 5.1868025422948225 4.290610376213509 3.2528892679724724 -1.516157679833421 -0.387162627563701 1.1714524501029826
P 7.359360752392836 1.6693828218828275 0.4635343767874939 0.04179328188670221 -0.0005399316638700378 -0.9498734941117836
P 5.760498303275852 6.256628126518232 0.5956470415609935 0.4077386519428397 0.2980031976882094 -0.6703457295199423
P 1.779190078598071 6.687415420019404 12.149999127954413 0.7345423188025092 -0.7208663639773134 -1.3611255585245203
P 0.45690026541218337 7.17270875750309 8.047325961238549 -0.36804467578732747 0.3042052127338632 0.05131484822389227
P 2.630649379405862 0.8600304802432094 10.216829243952029 -1.1238111940759357 1.6128229311676547 0.4759363919649997
P 6.3800087288766205 6.445961504402877 6.877101076152688 -1.8632239535968684 1.0609482360031275 -1.8771996990506705
Ni 5.822835834833124 4.253940152221201 5.730410412228607 0.37806606457907144 0.45774943664332773 1.0985799303129724
Ni 6.546809243455854 1.4314979194939945 6.498971521597205 1.0781265475546271 -0.14326135392621778 -0.4233105382391677
Ni 3.9038255022734574 4.931460911994371 9.333484600875584 1.0142739718750402 1.6235308045034622 -0.8516792077275332
Ni 4.466416639196302 9.180278698080489 9.927149268250007 1.7268585554595357 -1.1445096029655515 1.6438625740822788
Ni 6.569610245060755 4.5243437580343775 1.718811805856726 0.13503768046484485 1.7885511473733264 -1.8552021117336568
Ni 8.347209986158402 5.85860918244438 6.577041374415928 1.0649087633127725 0.6346449336842231 0.4961910284489777
Ni 5.118112906884117 2.6597747464194197 1.542020828084428 -0.015267724792347899 0.6278055421648865 0.35778854527695797
Ni 8.352202906217869 5.693223328548661 9.352227468009929 2.4169439295002504 0.9622759815411944 -0.46953640197592683
Ni 2.1560630816052546 3.101934802278265 11.427665061417875 0.1695385424551919 -1.1516449284587522 0.360333937406631
Ni 3.4999352540556017 6.916544220007652 10.819019784635401 -0.20966754926559375 1.544661700810385 -0.2689877842924658
Ni 6.975469922857622 5.50938216272943 3.7476839474063595 2.4739427154827975 -0.8935223690155643 0.5335249890127457
Ni 6.3914924450133945 2.546287522697384 4.11481243476415 -0.5005349072399702 0.6870090491082361 -0.1323699038246946
Ni 8.360561424243349 6.535288542726047 11.712825519851254 -1.270607043517973 0.36356992784542547 -0.31701933377939595
Ni 4.6780979574211905 7.828195945976796 12.857743697154225 1.1215434810876814 -0.07673277407636463 0.10535223758527018
Ni 0.3652099115941991 7.489213658532012 -0.16786567085858747 -1.755036046335016 0.5801313760173751 1.9851680341025488
Ni 8.633479982382774 5.110466342274525 0.2581034547851972 0.20218949572099373 -0.37834734326491615 0.542785074158433
Ni 6.40553734421771 4.273523494232222 12.77183865830144 0.7256542722842598 -0.6126198355633837 0.8479899318014041
Ni 0.7819079243794139 3.4179589035977584 9.257809500455755 -0.6326227610478717 -0.29371922560087477 -0.34843050110082574
Ni 0.16888644562630076 6.175502421700151 4.440503384087667 -1.3700336596474274 2.857545136499066 -0.18948773188360918
Ni 4.709932445874422 7.399479789685479 2.456694195304376 1.1679032992991436 -2.592029884136233 -0.44751001830350673
Ni 1.972462315640739 7.3028205557935 6.08732098114618 -0.8780849514145715 -0.9207737485323497 -1.045019223477697
Ni 7.351103941998198 0.6364114600020649 9.893668965406802 -1.1582593484514763 0.46806984473272933 0.06922129619066787
Ni 3.5864607094565146 4.730542110342112 4.868893151345467 -0.8509387300170829 -1.3690818372571196 -0.9621474263831301
Ni 3.4661035975785826 5.837204349226479 6.964644532476838 2.2041164944494365 0.1758806826231358 0.9680213686654039
P 5.134802204490298 2.906767104842651 7.328916884637648 -1.5754550320421576 1.514613732385069 -0.9313142430523574
P -0.033446092094648834 8.3132858681988 3.7233527082647155 0.392635220642498 -0.24159216588833232 0.4219931049793249
P 6.286705846802392 8.961015538283817 11.588243842834117 -0.3601241353886701 0.2738697949751154 0.4775860117532807
P 0.6900973706340722 4.110033100729449 1.8222013110659023 -0.9063344331785681 0.6831343966441784 -2.9108263644207093
P 4.005819763710461 -0.2420031368230674 1.5604252861925194 0.09375810498976757 3.2762202328487513 -0.5307319996486408
P 4.642019486917411 7.161946240930461 8.946436211710173 -0.7774769133825061 -1.0998431132961122 -0.0884156097309316
P 3.265249518964131 8.783387784094145 6.544454249494473 1.0979723786359605 1.668278798143114 0.09944358541031907
P 2.6347269307877594 6.476695701213375 3.976588990606758 -0.43628072524659056 0.134816051372342 -0.27568807913077686
Ni 4.358717504283945 1.0198593990357063 7.9682131428962935 -0.25519715826627665 0.6327238054021104 1.474834652714918
Ni 6.974388123511405 8.160169653041809 5.754674154487966 0.6901982454694952 -0.048275032956303955 -1.8689482576751553
Ni 0.30899887787285774 1.2336488390634814 10.430198908848878 1.5993683483246455 0.38084542709642155 -1.2324287326760388
Ni 8.840316318920328 8.10755906945224 9.893588523916954 2.2173957280568457 -0.5316935922309618 -0.44699399789903665
Ni 5.192239277470686 0.91152412912318 13.592622013032761 2.2844349289945303 0.1995471730021402 -0.7597553277330271
Ni 3.631665128291209 5.566172005331739 0.9684998193054806 0.8000391149537384 0.6025609086654848 0.011390758335444898
Ni 2.136673908707657 8.305546842106628 9.226467831704689 -0.16797942549818812 -2.5706449907025535 0.5573267194180338
Ni 3.036065242086332 2.7114607151831622 9.067783586066566 0.579229433028396 -0.098991585474565 -0.03308958346511721
Ni 1.3774634290726506 4.969157458443347 6.096969336853688 -0.5732932700496192 -0.1829573869642591 -0.5194427998880666
Ni 2.5137873115695566 7.931031606905303 0.527250509050075 0.6787434666653344 -0.9901385122794173 -1.219684802746809
Ni 7.879854176295764 2.781555765129126 2.22382440373083 1.5184693586857332 -0.13588511606680467 -0.5267439615351703
Ni 8.673719219602775 -0.03407667940586301 1.7507221127256758 2.008433689498709 0.07541405526494109 -0.7519880250827824
Ni 6.406508189784829 5.0045517139760145 10.522492111533303 -0.7439060194055962 -0.370467169185891 1.5890188867695212
Ni 5.172230612639785 6.387276201407622 4.551836255265525 -1.130716662946517 1.2980288871743517 1.445844436130155
Ni 1.8275381878405772 8.928644773231605 2.449061499917172 -0.35476132841485997 0.505311245582691 1.1130850659076832
Ni 5.337200389863882 8.3954933723631 7.279658029791701 -0.7004921711963356 -1.3260428558887745 0.2832628061542412
Ni 5.6901536073269146 2.087234753970675 10.990424881047257 -0.7001841530376134 -0.6102917016508392 0.3322477206933762
Ni 6.932706487163112 7.979287254665226 3.466895067869491 -0.29212899829561945 0.013167133509577324 -0.0698275623160991
Ni 4.517769746622746 5.386399144746148 12.062009082669391 -0.4062684951552164 -0.0780545782115817 1.6377186659680698
Ni 0.35755595006600116 2.7811027038644704 13.32501351783806 0.07307537982943545 -0.6708802618671735 0.9295052148680765
Ni 1.9330737240604987 0.6366324429454377 4.855523220964005 -1.3209669840277638 0.37190390163241754 0.6475557282086202
Ni 3.252757972667205 0.7172459111500116 12.825035447690585 -0.586125645927597 1.6456939708640625 -0.25009968913871117
Ni 1.2202234317924698 2.076046914578165 2.251809720664143 -0.7979104986465096 -0.9239490609365377 0.3097567386797117
Ni 9.43819075759674 8.655513553682237 6.271798281965581 -0.7836992401431341 0.920408394773131 -0.7216382091463314
P 8.176054535749522 4.1529074902030585 5.150223855170271 0.6641241740902627 -0.26262327552701864 -0.1456681635954975
P 5.696940280148486 0.5047204195891425 4.539494496570383 0.7015010720768242 -0.9675583129860561 -0.5117161206677703
P 8.081179808471388 3.6652194003204794 10.042163031049482 -0.8548280377691602 -1.1569881950485363 0.6227366122824113
P 8.931095002520047 1.4311835504532135 7.47992775183623 -0.023222717973366457 -0.13618002159940415 0.2501760509026014
P 3.6733282723429848 3.440223628603678 0.04105382288155538 -0.2977052068318163 -0.08457412449765435 0.17566728106074908
P 1.2035248880380298 0.6853060166066354 0.2658942593076175 -0.4116469858583104 -0.11070630280833192 0.8793761594221695
P 2.458560068022895 2.7459396020382605 4.351891073024862 -0.2071974904585464 -0.43836846101355476 1.064905677988979
P 4.203114075245478 3.6294922834505146 10.963292058983356 0.7173560368312097 -0.9569645966306101 -0.39054851331679835
