# total energy = -340887.5777211261 ev
CRYSTAL
PRIMVEC
9.11483178358050 0.00000000000000 0.00000000000000
0.00000000000000 9.11483178358050 0.00000000000000
0.00000000000000 0.00000000000000 13.34047765658948
PRIMCOORD
 96 1
Ni 6.570289835095033 1.9964125108950455 11.307361843646492 1.5841420182931942 0.4987999268267345 0.37890938641597327
Ni 4.6533768878195385 0.6090694726293164 5.9250663818308915 0.11407290528771967 -1.4540241437274701 0.13288258179505502
Ni 3.0973019048378734 1.8343052259863422 4.646515242383538 -1.432235587097469 1.3858554571710326 1.092354518228551
Ni 3.6356967940696574 4.4019898246886955 4.75693413869172 -0.5151644842276869 0.1311334603144322 0.22828362170488428
Ni 3.784678721077403 2.742069562147578 2.372510526715113 0.33107041255582337 0.5036287156739455 0.4398651001637392
Ni 5.4944935733059115 4.619223612781422 2.916135506477154 -0.35078768847909264 -0.3932553707250001 -1.4804198601121794
Ni 5.507053811630578 4.781476735000136 11.241460697702246 -0.7888221631919964 -0.06669672999660126 1.139567685579244
Ni 5.843928882923283 8.056672813555364 12.372999625310184 -0.8444456660935714 0.5442251490390692 -0.03980504781207983
Ni 1.634717752404904 6.598017153660806 0.35142051999989177 2.0311151902566245 0.4107681827977828 -1.3345982016579532
Ni 3.141499724602973 1.7176171483140779 13.637303371052685 -0.8709144018080615 0.1900520890275114 -0.5909588056501823
Ni 8.124459818214685 9.028596451289406 6.722506615935452 -0.22440536969640063 -0.3513556451674207 -0.0697709980465508
Ni 8.758578671804704 2.8228543170615974 1.266999913011323 -0.5149999336253647 -0.9379572022901718 -0.40034313080971695
Ni 7.079909200095344 0.7678972410291555 4.391325471394167 -0.9018257466749372 -0.1846203764889788 1.1493227080834785
Ni 0.8695139441950075 7.506966417965878 2.287451827134594 -1.0578390009501848 -0.015979406147391836 1.480900913513656
Ni 7.812039840844388 4.208035317206419 3.8281965743845783 0.7351529558033146 -0.3210541659704019 -0.5464666367750782
Ni 7.578381125711715 4.254602993259192 12.591876817590093 1.147121843777418 -1.1419667819390398 -1.0022211544755644
Ni 7.914572584613746 7.147358955975265 8.817162430719167 1.0422606868959534 0.5057915276532193 0.3279053845642804
Ni 6.832532662989793 1.0774460463586168 0.2408557863816993 0.7912276873096954 -0.6078183004096822 -0.014582782910181337
Ni 2.083604992617657 6.3901442979043885 9.319097080965102 0.6427937880436027 0.03513746713308142 -2.0207526160753777
Ni 0.044506812565684985 5.127020011406598 1.2702539079909354 -0.014747333512503633 -0.3826549695013345 1.1141662147870037
Ni 6.623456649425788 1.868950701945745 6.705457322912021 -0.26201855206348423 0.4681068686182519 0.5825492414302483
Ni 3.3846105203907118 4.630380166997236 0.15004289343807306 -0.37686613073369934 -0.4772178297805846 0.9130226438320211
Ni 6.223069429623449 5.930401292927718 4.767966731194025 -0.5864120668197642 0.2624808364118834 -1.1799067515179227
Ni 5.388260207795035 2.8960828763506905 8.88586547598199 2.331056228397495 -0.9881153112018015 0.3579654371744545
P 0.14613263056341272 5.649473059687845 12.5416231035268 0.16349285048174425 0.5992835234657937 -2.1033842721346803
P 4.091739177304808 6.410880540421527 12.520064703174477 -1.2835142384979445 -0.3933934389647612 -0.6137747751034333
P 2.4190034611465054 8.603498922272138 1.4047788001606887 1.0225251561402389 0.38024867405268703 -1.5689971922319559
P 6.341425521528959 7.995412028519019 5.533189680550859 0.8852956102303979 -0.08738202626009468 0.682255850693967
P 4.902266487016449 1.159579796390235 12.52171904515991 0.0574610703309462 0.8253498258043849 1.0459923860242435
P 4.228835363546686 6.236486462144427 8.297924183640466 -0.8583139394352314 -0.3958776388391956 1.0838811906502173
P 4.8280079517254055 1.1484414718381721 3.659800055481666 1.3940747597570313 -0.5826289456282482 -1.5025292904167091
P 0.32638572277019007 5.919846317615698 3.7275032036877316 0.009475543590603035 -0.6767017536449572 -1.0437079608654414
Ni 0.8380778005390263 0.43654758081947814 4.774490216367438 0.6420152580063653 -0.14740160134683647 -0.0911594910246559
Ni 2.0708077686642237 6.555068065862673 4.986283361313579 0.6156259693795592 0.9462184138576994 -1.0220649286743688
Ni 6.2613426086693655 5.296984281392125 9.157290585508296 -0.6580658837113248 1.4583914195572303 -0.6247464436235887
Ni 8.998781836224106 2.2870298104187508 10.221700599318337 -0.17781800885516472 -0.6314356827183062 -0.005045789954023569
Ni 2.51445398054847 5.228313138040865 7.028257270822324 0.03318162895829124 0.1211848337421526 -0.08743653364711393
Ni 0.6377155662481566 -0.10762702330466561 9.2818639042362 -0.7871530030196896 1.0925951734844475 -1.9236361361363385
Ni 1.9717022016801176 1.4756821658382997 11.439966240740043 0.4950443164390442 -2.3100089208088925 -1.285919248395011
Ni 4.042528200008093 6.996380880786749 1.2590426647838675 -0.3358490648913893 0.8454401687963568 1.2631359319519084
Ni 5.551215172068175 7.960556911426475 7.76545211216149 1.2909367562142606 0.33780721705902467 0.7478842873270539
Ni 5.491440104627564 2.92930643853749 4.615512053241651 0.2939539673195002 0.08855882017701522 0.62224193203418
Ni 0.7224889715909671 7.313531455900515 7.073507853669064 0.7732438491377651 1.4216976636806224 -0.8487190966579448
Ni 5.105545467507532 4.754670014453805 6.904484234333106 1.1488809925603698 -1.4598857447145697 0.38291002293493404
Ni 0.7782070273637202 7.460708646196879 10.847209582718603 -0.9746990377958955 -2.1385001420012073 2.607388368870174
Ni 4.851451299309617 0.8364006714739038 10.45334493660649 -1.6495714515415978 -2.2352324991279504 -1.5318876889741682
Ni 8.53038885579743 7.77526149422608 4.430492815447088 -0.8573929702828589 -0.9962687935468715 0.7136991568049128
Ni 7.088714127687235 6.114293026019261 6.8603802973363255 1.3617958451186676 0.134430128787833 0.4248763400643909
Ni 2.41516611692685 5.318230954494301 2.5742983207113364 -0.24229973347831818 -0.0736587631367312 -0.17664532870330224
Ni 2.301741149066074 5.363504324420728 11.408683226259571 0.6115438288903855 0.5442539453944756 0.803323699242281
Ni 1.3787185843449747 3.2133610591107167 3.5507018983122682 -0.7067610349241827 0.9207812047315175 0.4811089373048746
Ni 1.358520116908501 1.300686508657406 2.0666267952828563 -0.005459480452674468 -1.3439349056778467 0.6117703430788948
Ni 1.3089172018411317 3.733663007069306 8.385304430899717 -0.4801897679247149 -1.695186164056919 -0.6887054629740526
Ni 3.824164172762784 2.854063501403875 6.883019716749102 -0.24355520315197413 -0.6616942244925313 0.09849176302001103
Ni 4.211927350417328 6.704195830180429 6.232951730343045 -0.23782138599199046 2.1449716086581643 -2.1883268357153476
Ni 0.9919580381967542 -0.1712850091243105 13.034220519999305 -0.07103392391937442 0.453526913921548 0.8278684784611806
P 0.33065055260481374 5.530014073125379 7.9484834051239694 -1.3429776839709 0.31934489658877907 1.1937750248595829
P 8.965603848196684 1.519515392328373 8.037104181001498 -0.9958517606141107 0.7096591824075843 -0.17343967728181098
P 1.9918459801253372 3.4350428851587664 10.430719189441527 0.9811707615631683 -0.49181346820657235 -0.3167797069647641
P 4.197288930425009 6.208640650764271 3.639135820136346 -0.7034453402873885 0.5993809682756065 0.06478820011997874
P 7.264776220197581 3.7016699471857213 10.303091490552088 -0.48764442443054723 0.9378551294946686 -0.5434625598414318
P 6.458140943696851 7.879972682813721 10.216658274324718 -0.05937885617894935 0.9948073785099963 -0.6533193701652749
P 2.5843738558666964 8.577640144240878 5.91618215520168 -0.598036281322254 -0.04864604314247751 -0.78990511184353
P 6.891706151526611 4.226638689064651 1.2378907859331991 0.9128987166596472 -1.0479677645830596 2.694165157446102
Ni 5.317164519164848 3.282323877081998 0.08924787631057457 0.16096057097819375 -1.3199002333261463 0.21790922044909566
Ni 1.711510210957382 1.529313836594713 6.877536233892702 1.023406530303928 -1.5909685542967245 0.8884503538092956
Ni 6.968972581336623 0.7426427763512502 9.042175727817773 0.6481985039989417 -0.49746089630033685 0.2676112156599133
Ni 2.844830176713826 1.8870254135551887 9.066588893513554 0.39723595263930295 -1.1441468203094942 0.16772077252016276
Ni 6.614660836665771 2.179493023949654 2.336971797231895 -0.3999096428167242 0.48230835692961455 0.7304761191529355
Ni 4.272723279028014 6.973192748495056 10.492805778245806 0.3031495177758392 0.7767053253238043 -1.0638942060053291
Ni 8.168684982475412 7.435159772449389 0.09457367257552567 0.14336882603835954 -0.0292979776331689 0.879617328898698
Ni 7.719688364280151 3.83266831090278 8.055140610317064 1.3492149231298636 -0.693756909355031 -0.485200590875745
Ni 3.3097321765321235 8.614536983673569 12.438928115750057 0.5983710389538534 -0.626734677698211 -0.014005570250472653
Ni 0.21731946751235695 4.711884993629433 10.338750535816065 -1.467634021201421 1.3126162980702232 0.3191044984431989
Ni 8.943008179976912 2.3801378180286696 5.855255884495173 -1.7784698518779243 0.9183466271480959 -0.6466437579173121
Ni 4.072069370117123 3.067669586410086 11.338231956242995 -1.4382367989862261 -1.0388745440325398 0.12010677018662541
Ni 1.4238825762888951 3.2634014861081178 12.54649224671478 -2.21538846781883 1.7799284387013217 1.1358298158033664
Ni 3.100811115110004 8.616287031393696 8.028632856256255 0.1066061645970293 -0.1200383788425352 0.7205043526522042
Ni 5.572015218408443 8.025682385178103 3.3341590144757176 -0.24954073131144763 0.22226698319715912 0.44417246928984144
Ni 3.0109024134884437 8.996913295689595 3.464081828031448 0.17411819140607432 -1.4603832531762784 -0.08683052463199885
Ni 3.719097505731993 4.197106633787496 9.172832285339494 -1.5220375356529658 2.516380572932034 0.2948769933544019
Ni 7.23246414119835 6.309915547734785 11.428147038246866 1.7435064484288616 0.11713971713850149 -0.7308497004422704
Ni 8.165248690858286 9.047309201130147 2.3520194731754303 -0.43496072088358634 0.48678310487151655 -0.9318711439970919
Ni 4.757951353929045 0.43083896161574914 1.3903181193899459 -0.09903683689020362 -0.585469757511153 0.9625855423618132
Ni 5.813877282229216 5.750574774852722 0.2580591200638296 0.9449128076723986 1.037201527205491 0.0542271367746808
Ni 8.21944548119099 8.883934954590726 11.559617550255085 -1.3769563549091897 0.6021562170278985 -1.3279004779228034
Ni 0.39158411517682234 4.950265191673702 5.697757970065993 -1.9744964133213154 0.4268234364884327 0.46974466133199105
Ni 7.539770697886397 6.49123689823739 2.393708891208347 -0.684425604651776 -0.5582065509198257 0.45398662716678584
P 8.751295921136048 1.8377141731078408 3.495872538647393 -0.6110252373827542 0.1310154466793292 -0.741843994670245
P 1.8529997461633312 3.255189022588143 1.2917093107430635 0.7986754018369923 1.7236996981155797 1.1762892093699935
P 4.943675168227595 0.956911509634822 8.152419564993288 -0.6683083873749393 0.5361822241299347 -0.8072693141535904
P 8.778294053151768 1.5786433067058123 12.574053675340418 0.3096842335705634 0.6312551912763839 -0.0427301918786748
P 6.2675589240085685 7.897855982953776 1.1891446650621422 1.0170222240441387 0.24656056563720116 0.7558693624150595
P 1.792668673978304 3.444668147619469 5.895584458129052 2.348467481895407 -1.0655003741501843 -0.5962156831737474
P 7.001448727309618 3.9342348824933158 5.8673020463020515 0.3509355269108666 0.5797557378455112 0.3140592227098075
P 2.425019250184444 8.68772908363516 10.344072686148266 1.5582782631525551 0.13218144196297235 -0.12172065164096457
