# total energy = -340891.0315522822 ev
CRYSTAL
PRIMVEC
9.09754979436004 0.00000000000000 0.00000000000000

0.00000000000000 9.09754979436004 0.00000000000000

0.00000000000000 0.00000000000000 13.31518371847624

PRIMCOORD
 96 1
Ni 6.696369950356875 1.6477027694081694 11.550096649278556 -0.31126751889728327 1.3284671490595505 -0.7655516226998299
Ni 4.350875997908228 0.23270077308356524 6.058182275938293 0.49015150712311706 0.9313510098275637 -0.7305465673795548
Ni 2.6646632993229904 1.734366030769085 4.679807925694434 0.2628991548962247 -0.4601662736149365 2.0363322156811896
Ni 3.3461425752020015 4.46745200369017 5.059649743316425 0.8937465692112285 -1.1595713823946803 -1.1630431429933648
Ni 4.922111162809749 4.021080712626415 2.719053911791222 0.22329311046882833 1.317480825251376 -0.11713894580755312
Ni 7.326520849099807 6.147041685870752 2.4932281572474886 -0.4614919344048955 0.4009774219596062 -0.638687479184713
Ni 5.267899941002804 4.639068187010798 11.816067162735505 0.4911488380393799 0.6016108860473897 -0.9111100001903406
Ni 5.673923597788198 8.161685037236843 12.525793421629373 -0.1737978319521781 -0.6602274101390178 -0.6954173277765895
Ni 1.7197007801587767 6.6303945177105 0.12676799105410516 1.8510035002712766 0.6831986742232105 0.9960263385187619
Ni 2.8351877766428517 1.7704378165444397 0.23771170362708743 -0.18937023246913837 -0.43790103445883294 0.38431384526099616
Ni 0.234603980544903 -0.01617362440136843 4.76716896914084 1.0305739945866446 -0.3797876752558685 -0.5563602417397063
Ni 8.73974336464316 2.508776779963418 1.241895634312928 -0.2285070505696 0.7468563602831718 1.0539250106077591
Ni 6.951428862336155 0.4397910331441289 4.766703174580513 -2.635786460396893 0.11094721517454442 0.3314437367348421
Ni 0.6904540089603197 7.4677330202990655 2.1771656237003287 -0.2154363334285709 0.12366774806500637 0.7544344297407459
Ni 7.749584217047179 4.290650216865895 3.8185546934040597 -0.012126350949888794 -1.6211340221365111 0.293475742131501
Ni 7.4992378359712095 4.260046058644384 12.623420140502995 0.8764594999960066 -1.0027849973988343 0.419552099638
Ni 8.051131609559135 8.742563605145142 6.76746912316685 -1.0060122460868803 0.7860404866818012 1.142337020794265
Ni 6.904612870003248 0.764836487567603 0.5298376733524226 0.501360231354743 -0.020315314518584367 0.043187848241383685
Ni 2.1846492683355887 6.270577317407585 9.428840928897527 -0.8443711041018941 0.39244084524350475 -0.9543819235050982
Ni 0.2537479550233593 5.0281976934343176 1.3900519654320667 -1.3117413516644376 -1.1130179601151735 -0.8587697960257274
Ni 6.293621411573783 1.8346392269395668 6.973721498871825 0.27222171784873117 0.2554663527672632 0.16815168940999428
Ni 3.512564057468979 4.339094670649947 0.42553062350910525 1.0791115371757158 0.9264844257638818 -0.43084669871521286
Ni 5.869775654325862 5.510040331973005 5.060409388741959 -0.17417604122720326 0.5004246069143511 -0.2671718141296496
Ni 5.35430847096354 2.4659091243332862 9.363956292496919 0.2571481113450604 0.9230823420608684 0.5663929433853601
P 0.13676255949113034 5.713388769715937 12.522278128306901 -0.9982349161343065 -0.2764918059789948 -0.4449746534761627
P 4.050211067746891 6.28434191056726 12.723057417928029 0.05719084738869505 0.6298356852210379 -0.6715834585817854
P 2.440727105915586 8.509939251481631 1.3901183775471135 0.2593690302557791 0.7293283787017374 0.702744457565622
P 6.244576519489309 7.69946581406195 5.828108875296574 -0.20622021414694164 -0.3228076583263989 0.5331161836101012
P 4.778488140858797 1.066105495049365 12.535167537155962 -0.05088110312058334 0.4355155649457919 0.356654945893147
P 4.13164323785413 6.177309234742027 8.213937725453572 0.17280744301445078 0.07056881135749782 0.8213615305805985
P 4.687539933444869 0.9578901377233003 3.93140161343838 0.16732225153016345 0.37163393580048254 0.02542049695563364
P 0.2987317007849783 5.724178464023521 3.4550639024085625 0.6527827809355145 -0.27088962930086896 1.2230709456102227
Ni 1.2560987293829111 1.0484835406869786 2.693328769638139 -0.28711611846206037 -0.08545781265418831 -0.4916211496901081
Ni 1.9640609733305372 6.477810409003249 4.959839612441268 -0.832301831642186 0.009049511796777963 -1.4601405410378532
Ni 5.995003430163885 5.503208071918202 9.383942700105969 0.6446784066608252 0.6593794603164257 0.5182588068822945
Ni 8.941872730685237 2.3437017350973863 10.185077502444084 -0.8186083933154934 -0.14513697368237585 -0.16874227180614165
Ni 2.6300016337986265 5.231600716477289 7.070082748539557 -1.3157093351732503 0.12035642430358627 0.9448292468196566
Ni 0.5959040814988605 0.0508653118407532 9.196212026459012 0.17995768090598685 0.17315377061027598 -0.21476064751778498
Ni 1.4747310511365876 1.2432256961238626 11.610853727241262 0.516935974305813 0.5514268089938309 -0.8972535539232225
Ni 3.9646577074867557 6.927902598019618 1.559274583346013 0.6044997775594105 0.05132179020242774 -0.12678623908933004
Ni 5.635495546561186 7.812803092041615 8.071864016268709 -0.40001274405349174 0.570809584395817 0.01162575716438643
Ni 5.621066832251045 2.997287922656792 4.770963557248508 -0.029207731912207765 -0.47425643315941546 1.0116532464227417
Ni 0.8299649383083819 7.4519669661379835 6.992255937499852 0.6906656720242169 -0.2547626418320193 0.194680074717826
Ni 5.294301031121361 4.4057524195468005 7.38338963418978 -0.292821910597586 -0.1809465271818174 -0.5061985332836508
Ni 8.245282424245604 7.235936543686135 9.14345715348193 0.4406739692182798 0.40324256384469903 0.38569941275461317
Ni 4.617224969445444 0.24076029263423027 10.44910386946467 0.26741761159186844 0.6010892092159648 -0.3716012827903343
Ni 8.0130947529824 6.9366544411257705 4.668290427386339 0.3255183723893426 0.2202196137498272 0.7239185205400759
Ni 7.435554985926447 6.280666500364677 7.217907928838463 -0.23238273147492236 -1.431190433662406 -1.3585500844878604
Ni 2.3175735714790213 5.361768461968784 2.391606704166059 0.5274803254805626 -0.08520070233805972 1.3674355599029482
Ni 2.5063204414616913 5.263906116549997 11.57600829120677 -0.2790999330258032 -0.13830658102410376 -0.026804778897669964
Ni 1.177495897327661 3.3287116693897496 3.801111960776799 -0.8219629116100231 0.8787439251548091 -0.4468885826694239
Ni 3.412682055948772 2.180018615382334 2.522095593172779 0.8350516264731813 0.32581430636320663 -0.028889172230524438
Ni 1.403788356186722 3.6715346462807195 8.502437411746358 -0.9122392286987773 -0.0014547301686555591 -0.8176881954940692
Ni 3.6873007004418015 2.6205674744419953 7.227601368370277 -0.5716601053215703 0.7622536686748485 -0.9566159550419396
Ni 3.92962304241213 7.065575822266388 6.102455503044412 0.9777457950420194 -0.8711527430711126 0.011947916390495552
Ni 0.7253240083798299 7.407489044156719 11.256629700682279 0.7400439653470287 -1.1645600938585234 -0.16899244014373477
P 0.3494496323156279 5.729473238127243 8.180849026325314 0.49437351562426474 -1.2374099879407139 0.058145240882164384
P 8.701806581116495 1.7185726839579836 7.933639480491551 -1.1354595769481413 -0.6008966335891844 0.8189061270615703
P 1.9132420589948167 3.365775088115801 10.554746439648925 0.37163470713143093 -1.0127176831315141 0.6215914429343746
P 4.114858258092331 6.021122496232243 3.6341400767344347 -0.6812253525469235 -0.7122948202582184 0.7908433073870832
P 6.944642090031384 3.8119189404293956 10.481579393722496 -0.27926551206939004 -0.26618271074350286 0.630203867193734
P 6.612135734847667 7.921482424418006 10.299321806159387 -2.8236772801070273 0.8324514698461727 -0.6413406005368438
P 2.1986140075954044 8.657219488535155 5.631896555778656 0.4135624577134684 -1.2713099831222685 0.5648379401934143
P 6.789219545722138 4.071390164161778 1.449224250183659 0.7103618649015637 0.6206717593335827 1.0006751501446831
Ni 5.342254217205068 2.7416103772770763 0.5267390478202446 -0.3086246819577975 -0.030824441580024335 -0.3045224868639659
Ni 1.3979750217326359 0.9947079225991796 6.937370418311273 0.1764877200795154 1.5035322777599267 0.38724927374023627
Ni 7.011308936478245 0.6087589196578963 9.068199490564032 0.2937405657571135 0.05349000149834013 0.16941950037882433
Ni 2.733922947521673 1.5471839393875146 9.249778400896664 -0.3595209545870324 0.2853914224614698 0.9974746409295142
Ni 6.252373119844789 1.780408731351448 2.688495241319742 0.7477467333079251 0.6127658742229447 -0.3023475906998341
Ni 4.2958995032195855 7.000983217220987 10.382421557182798 0.10559649238559234 -0.39091952350297193 0.7863433626342006
Ni 8.221082941228595 7.812166263541167 0.06127745782307189 -0.8405604721065525 -1.8184127108194488 0.824340153592948
Ni 7.589221703084459 3.7184689067637096 8.409790691746236 0.7873504637424763 -0.35304871659912745 -0.18938797308095126
Ni 3.0506632485443097 8.632210323567575 12.566164709537748 1.085908248382575 -0.83308190434132 0.08549277965718179
Ni 0.048346200243982514 4.780416821460152 10.382102233177573 -0.06368468264315483 0.8629331833747976 -0.008378196761366216
Ni 8.350686638619692 2.0226400978217125 5.639007200863655 1.0216782347589115 2.076969786696894 0.27944626062162836
Ni 3.826174801289416 2.9228699636044833 11.67696380362773 -0.5921204300584512 -1.1907012710302654 -0.9507803221967689
Ni 0.9007065774031061 3.6123277908391027 12.590665321459971 0.22553974041115993 -0.6848894316620721 0.22838003807343246
Ni 2.9227516954544006 8.443499843784931 8.176041880901936 0.6619179104675633 -0.5341677648030672 0.025041773459976227
Ni 5.448149699279502 7.781452934719578 3.609999727792467 -0.09042595529274104 0.33375181604272847 0.3892845590027102
Ni 2.858068114908934 8.461194578547369 3.597589759828744 1.1131025494091797 -0.22020675823402078 -0.4762413247999282
Ni 3.757433713441098 4.266923806449219 9.607331221002989 0.0839953691760489 0.41991616784563807 -0.7223923137035366
Ni 7.401229929752319 6.423925620315373 11.432989346576242 -0.04139810333081257 -1.5091884476044395 0.6287792189320656
Ni 0.7432398136074229 0.21799367374322762 0.43935980927382573 0.04413401420473689 0.07084983293302637 -0.08146000434870486
Ni 4.619199137796833 0.2247567924179814 1.4364822216447026 -0.5424801413235044 0.2610068229695182 0.23680374336075347
Ni 6.0591593528089795 5.961770079990525 0.39002288583414685 -0.26786421221098383 -0.3749794552339477 -0.1289397950972231
Ni 8.228670297933927 8.936923663481759 11.267854257880169 -0.1857750589187123 1.4556200274596802 0.09410468969590889
Ni 0.1700577730045335 4.89240766203887 5.855910988116117 -0.05515941878096307 -0.3179086783628848 0.3497361072861267
Ni 7.825903564050823 8.695720320162216 2.8291570107436126 0.02405112741193277 -0.07730613008133137 -1.6246821444990855
P 8.374595000036498 1.722566508410791 3.3872234720108776 0.31013751905789816 0.09700643672373617 0.45140935335791293
P 1.9754965936885756 3.386508404580375 1.4087201380451884 -2.1535282399789235 -0.1252011539903973 1.061394322401611
P 4.597601554081652 0.9155501399935397 8.10881371561968 0.522462560550997 -0.8617877569164449 0.9077212862237658
P 8.699386632814795 1.6124406655833836 12.612155554085076 -1.4201321189657155 0.4716920148663489 -0.918509120867889
P 6.250981194693811 7.833481823206149 1.4371208696551514 1.1714789324655437 0.2786358489051911 0.17374409589610723
P 1.6895878896376102 3.2620721155929084 6.3229018762693645 0.7295011568341758 -0.633554785943838 -1.7853084720663124
P 7.186127457401124 4.040594957390132 6.306483527772824 -0.8212951961190372 -0.05785522044557133 -1.9967701371178512
P 2.324787928634092 8.619546533958674 10.537170882791571 0.8907190952388144 -0.1565570425938594 -2.205181702489157
