# total energy = -381177.5525358715 ev
CRYSTAL
PRIMVEC
9.18543893837079 0.00000000000000 0.00000000000000

0.00000000000000 9.18543893837079 0.00000000000000

0.00000000000000 0.00000000000000 13.44381836470957

PRIMCOORD
 96 1
Ni 0.9666112951544407 1.5287326014895857 9.30035244743893 -1.282469599283514 -2.355264193102266 -2.241188716711385
Ni 6.961763577436618 5.254962056806991 8.6975322982829 -0.17741177455568155 0.4111713317734725 -0.2564372013209648
Ni 5.457390759995283 1.774075675369216 3.6752713957531213 0.5900095543630355 0.16917524557850216 -0.921188210361949
Ni 6.528073078251792 3.660388229051243 10.543341658993297 0.2832872316342734 1.1472552840314887 0.5298400839619908
Ni 7.266876302448212 7.143277036176243 2.449746459240587 1.2658330191680973 1.3542234320880484 0.17081766627793163
Ni 2.2481361786611553 3.759774678297877 12.622481376547764 -0.36272840578073656 -0.19872724820400614 0.3733082381791119
Ni 1.9444288258061917 3.120550797565667 10.184418795628963 2.914050270674646 4.186575357150938 -1.1761974209871355
Ni 5.002491082315957 8.792201106093943 2.49666476276248 0.30992026084076946 -0.23745371823992656 0.13978856488626892
Ni 3.6989487016887086 5.187228630120791 11.67512276139526 0.1302178904786983 2.188808660447772 -1.401422201261038
Ni 3.7885526584725264 5.561314816074435 7.269852384662252 1.4031209291196995 0.6866622072917787 0.7573199788186571
Ni 5.495142914006713 1.4401023012325826 0.7699896264590987 0.3404670232793749 -0.4419667198877743 -0.4207643747785463
Ni 0.0130681239688712 8.735481020687478 3.6537471567032473 -0.3712161315367736 -0.14771836125630688 -1.6008711581224169
Ni 0.20903578941223908 3.539167991462719 4.1638733674186605 0.7734503087216164 0.946489665241215 1.3348118603306558
Ni 7.841627587315161 7.309735560505956 7.332701913468189 -0.8226599376770476 0.0600267741755934 -0.40559460901664346
Ni 5.334719223055468 3.5466816805092765 2.0374102684853876 0.03359171991251634 0.44415035780265444 2.108055452358105
Ni 7.005412783242535 2.5121991770846526 7.755227511630902 -1.2122077776434736 -0.8057546772812768 1.7268256453390713
Ni 4.636616678767719 8.384606438915558 10.089518514756826 -0.14431422067076435 0.9532526949966615 1.2074332390729656
Ni 3.3215282014026686 8.920135899541922 0.5288718544882904 -0.5863462465788354 0.6687053657030418 -0.13837342970629718
Ni 0.37341197473601834 4.615738176074781 0.1927141829735751 -1.241256615380314 -0.2516503214552827 0.7288889771714737
Ni 4.757203121069921 4.1776111098856905 0.004615683063441188 -0.1772703638818108 -0.6578668803266412 -1.362230361552925
Ni 6.1117522440877945 6.343923398538619 11.873674290810262 -0.7976274201884522 -0.38381582257865515 0.5345783699779245
Ni 4.2638531960203165 5.562793671742522 5.020338390161263 1.3161500222550946 1.2498618405508217 -0.8473355860468568
Ni 2.116141421205136 1.5213750649048765 11.665039905079361 0.26482722515687296 -1.538865405843582 1.7577303053377278
Ni 4.602244766283348 0.6646133524847632 11.905751680649367 -2.347098369462022 0.4671190507836859 2.150800556635115
P 1.1493556027109828 0.5338760816185646 1.71344167443373 0.18616200994448584 -0.7718310279506385 -0.5510632550068251
Ni 0.21546559666479398 2.151652328117103 0.06576498712302462 0.8358476400119152 -1.5884925819524063 -0.5508786497998448
P 5.794652521269652 6.915588375924343 6.467081763741842 -0.4535024884415157 -0.029422161915859005 -0.45742162099026384
Ni 6.050320028509098 7.860071948691061 0.5075267314975946 -1.1346879888894394 -0.8399858305500049 0.7950347197606114
P 0.924982885913614 5.075956222895863 2.430857522620367 0.359430194645439 0.34218503441174614 0.46895121889641816
P 8.396850629012208 3.1103641457898337 6.438109970805723 1.5450813048463068 -0.12491576153949455 -1.4485636348335311
P 4.835545729722836 1.2626120647452712 8.044149063436668 -0.6533988172529586 1.2741785629193152 -1.2107995844420374
Ni 2.883134757484544 4.781425123534188 1.5424896333783737 -0.38207955661383874 -1.2557648362988179 0.0477906371207177
Ni 1.4340215406594523 2.9067045937846236 1.9303576519059218 0.08022613194160377 1.7034314347848467 -1.6963693857317432
Ni 1.6984886983959668 8.583434450042418 10.618680629115376 -0.6787853756468633 -0.32285959461025693 -0.08817881112977717
Ni 3.1185391864395107 3.6851154306567833 3.7481229490123544 0.871987323157266 -0.08577740077713614 -0.4454914452115812
Ni 2.7278181705796145 8.757480146930147 3.282577347610584 -1.4608967024775874 -1.5742034190232437 -2.145342104623705
Ni 5.036403722853718 6.34826811115356 2.82611890094446 0.22411226393601402 -0.27115368159553305 0.022264210714839076
Ni 8.079585568293286 4.528889850970629 2.544471298229119 -0.6629468659527099 0.3876357105453776 0.04114227856626463
Ni 4.2720925347425185 2.8582881451728857 11.14657882707685 -0.47611302675218 1.0175395300001895 0.3882769436738023
Ni 3.5548199794032245 1.7433687530188 2.116352686300577 -0.6530442621270172 -0.087682588219649 -0.223250430156351
Ni 8.612037906877356 6.778798819345703 0.019108468610699907 -1.4805604994551018 -0.5597378999626876 0.5356785450206387
Ni 1.1030977322483166 8.437808501210982 8.012219559164375 0.2822942715933848 1.4797410888776001 -0.2331823445580823
Ni 2.6026849360059643 6.799998812401269 9.415365165397057 -0.7219899360587952 0.9115069785184431 0.008280494841237352
Ni 1.9296035273695864 6.3348114431178555 13.08361796726207 -0.019535756040082484 0.09993209501096338 -0.9835464608841965
Ni 1.4653806291740556 3.3741975082400253 7.379782799259183 -0.2856403052474823 0.397871786451089 0.4123185580040383
Ni 0.06472795106757684 6.385974337970327 4.203828189686037 0.07576732483930176 -0.8621595384335667 -0.27217852331562153
Ni 0.8020063924012492 8.535679353033801 13.075417207383383 1.2639121479963007 1.4532834089067037 0.19219638906402384
Ni 9.1736172723155 6.697415830406222 9.019377218853426 0.2340763171272614 -0.7691156859020044 1.612999565954835
Ni 4.2159052047941215 3.5332709396682334 6.101799821004732 -1.2340958359658165 -2.938004467497398 0.22098297427841296
Ni 3.697405547948095 8.231246350503191 7.9140529362079395 -0.8879803561514127 -0.42887363414924196 -0.952847746248759
Ni 1.6125497317461046 1.677977613260317 3.704968838364886 0.3751167521427604 0.2929363246882632 -1.4162718646793608
Ni 2.5770759322629315 1.0039317335360558 7.131528859781931 0.7161273066304312 0.7776247518142801 0.26898598452025285
Ni 5.772717693099508 1.3536856917582452 10.14471841002001 1.7577249060210889 0.1964227684405456 -1.8562135837173066
Ni 8.204544279527223 0.45048791136018024 6.724503689817343 -0.12326896996469092 0.5117256337494671 0.739276748163701
Ni 8.909894135132495 3.9429690723620987 9.033627508812875 0.11683118475914718 -0.14308111959461164 -0.10326990113494472
Ni 5.834002941655288 1.2172911090536915 5.83808586926066 -1.017326642658435 -0.8833929938910462 2.2002595825971913
P 5.624382039783066 3.879561987412975 4.371257614910886 -0.22052274681254277 -0.15472564581207546 -0.6900552921337276
Ni 8.650965797072109 1.8107715039034398 2.5932992545050206 -0.4464679501922375 -0.1261231515840344 -0.6017808359663507
P 4.367722139465874 7.668527990637451 12.38146097022964 -0.20524962270355618 -0.4551713915035064 0.09326753850659421
Ni 7.449482828420771 2.9343895067263386 0.893716570332226 -0.7397279767685067 1.2399826337638966 0.6755614693929268
P 7.919795672628364 2.12885406868733 9.891356447952552 0.25579031176558525 -0.12607044396922804 -0.2773893780925997
P 3.454919145576386 2.179300499303089 13.338055544228492 1.240003202589187 -0.7121665222104703 0.4132513542309528
P 7.037148474753359 0.37828025737009563 2.7779770969567954 -0.19008937002335005 -0.8357224272879606 0.5864249223355706
Ni 1.6432474686575882 6.285935722559506 7.328372816099433 -1.3394606719565771 -0.6543282710457635 0.2831208812597382
Ni 8.182095066776876 9.15815817859257 9.299183141062858 0.20572296279554894 0.490307058864375 -0.9441239932225161
Ni 6.5838746197650355 8.884670919824616 12.026799231985963 2.05762737761454 -0.4386086020488188 -1.0948981105860112
Ni 8.7212619612204 5.1468218842579505 6.712646206699738 0.42866794589633916 0.18913549075051297 -0.35508297342033684
Ni 0.9661795795246264 0.6682654830042143 5.381157128121206 -0.4464121572536376 -0.9680403948287973 3.1576000745099817
Ni 6.902379714739808 7.366354606084169 9.831827455320612 0.07185796248256657 -0.44983095312719945 0.34271802409708074
Ni 5.063197648219008 3.598524297842733 8.665414492512493 -1.4683837548832517 0.10839796639012944 0.011082483066406721
Ni 2.3646534715163825 7.726681004517345 5.660626863265718 1.177875837130823 0.33471160885283646 -0.6502235048487706
Ni 7.928788217343009 0.08337255501219958 0.759164586677476 0.2541476339558397 0.6500751521963644 0.14150014826073695
Ni 8.238502847259646 5.610714106651921 10.966862040192368 -1.0134301358175062 -0.23401049688633246 0.6895865800274253
Ni 1.3044884808372679 7.185015670684256 1.844707108038531 -0.7475829540365512 0.8031000132672491 -0.5315593806459425
Ni 6.057962313700707 4.607434539280053 6.502506327527846 2.527591868266821 1.256442579092133 0.4455791198293809
Ni 5.928153690710555 8.679403916006267 8.011951344347555 1.8251703412582567 -0.5119701456601053 -0.49649210462916427
Ni 7.185217750340765 8.160959371793833 5.028821143015169 -0.1920133265189403 0.12672504683409144 -0.47783618009087386
Ni 2.746381942661634 6.371323562873436 3.479380887996784 -0.42358590338774144 -0.5010894941918597 0.2438781337090316
Ni 4.599011491779207 7.962691672441838 4.797964424875546 0.857849083983671 -0.32449455911051855 0.18592906799807335
Ni 7.048758869563685 2.0658235867344277 12.329245424075532 -0.3246351984534409 -0.2556586712837275 -1.13588869406576
Ni 9.0221861260789 0.9361891214109239 11.296383232078554 -0.5062705241721668 -1.1543852102080505 1.535352507594317
Ni 1.2453066977969662 5.418573095067717 10.714172452254747 1.463993596235356 -0.5239167764990202 0.597494806996487
Ni 7.757645119157862 1.8229881376832942 4.761235528761166 0.3664793881827366 -0.2796545199776926 -0.05812132962276442
Ni 6.786863634728193 5.775601920924224 4.248138747095072 0.107291363589512 -0.7528202911760905 1.3715796639783089
Ni 3.3693016692891513 1.1597535195822575 9.582807450236414 -0.7145586765917307 -0.00034349938234779555 -0.06073434176557928
Ni 4.7769150730184675 6.312702091607998 9.76166448003684 0.95055843599395 -3.466102371957301 -0.9610205118675386
Ni 0.0882307336634514 3.3269567958116113 11.390597360662454 -1.5126661217403947 0.4409660465374018 0.838044647663234
Ni 2.040012503334886 4.950124894963364 5.466444847150774 -0.9002134078824948 0.030174723811167387 -0.06196795706236425
P 8.508876242229578 7.7658293452464715 11.550377152344549 0.16341905982101532 0.5896889377988231 -0.9673863061845662
Ni 6.551991961231296 5.417636180296629 0.980857910938316 -0.23636408472017353 0.7974322734585105 -0.016252200192804267
P 2.3397150048154014 2.637791683604914 5.57066100018797 -0.8145956726116745 -0.37004756514996917 -0.2057036795218393
Ni 3.521146160277701 0.8910454446907361 4.72378098297114 1.35899771354824 1.4855947194448995 2.378671773392929
P 0.29940764889079124 7.75469659326062 5.917538997480481 -1.35405862437541 0.13769080181697577 0.17826152415048654
P 2.9692758037909153 4.76708665336099 9.043884888468487 -0.08571852251474271 -1.2984526049753315 0.9789938085165075
P 7.017895794751423 4.4410311275839325 12.629271253006463 0.8564401194512864 -0.8485208646042095 -0.5822358239548876
Ni 3.8293084510147923 6.629608920208565 0.9647879855263949 1.011361683324252 1.5378747597955387 -1.0473108477253512
