# total energy = -381164.9868143217 ev
CRYSTAL
PRIMVEC
9.33224513722576 0.00000000000000 0.00000000000000

0.00000000000000 9.33224513722576 0.00000000000000

0.00000000000000 0.00000000000000 13.65868407612906

PRIMCOORD
 96 1
Ni 7.190280023687284 8.699686639733194 1.816550392132151 1.4086068919349353 2.673188555194435 0.711464096826807
Ni 8.480220237339543 3.1697622927167868 0.7556327996111004 0.2636409181582556 0.20187402136310395 -0.2247730374484645
Ni 0.005851317527780747 0.43569078292262947 4.222473109107167 0.37540805813093414 -0.8068839057897136 -0.3836186189661845
Ni 1.2536657778779623 4.027890204410603 8.973590826073902 -0.4946175133142708 0.3268540604816306 0.4985641566668446
Ni 2.5635676632876736 5.916568583848121 2.5133480540177433 0.22780771050973025 -1.9379237564036043 -1.2054092666644016
Ni 0.37341204684345114 1.5796037618895578 8.504947886547454 1.8927145068568176 0.25406792975783987 0.5440901661231017
Ni 7.570951623808025 4.527977209771349 9.017845264428749 -0.5445352240803203 -0.9175855806123552 1.3913265075879329
Ni 8.456133713353575 5.429192095987915 13.336680334296053 -0.18162067043070654 -1.1116845860157307 -0.8819292648613263
Ni 4.264397285920249 8.226999105284035 6.578609232973799 0.23486847401125355 -0.261224338296963 0.817579694940663
Ni 2.4687613877458485 7.554984152851035 10.78634486099664 -0.5494357467057311 2.389996711487445 -0.2110662293853333
Ni 3.4034323717887203 0.027585182584317563 12.553627532834673 1.2839500404837823 1.087276332374695 -0.2989300803778529
Ni 6.436495941783127 5.607046018546839 5.440089358311981 -0.1355184767560053 0.030361385900676746 0.1779686755004161
Ni 1.4107927846008401 7.633449667641435 3.2885197746940977 0.6655544787788861 -0.8277610063490389 1.2106792568140892
Ni 9.104192793228659 3.721867230932157 11.36392962735571 1.252361981264856 1.8860975157609323 0.5491349276358608
Ni 3.181735562873315 3.4020138705698644 7.7805874394652115 1.033018342362079 0.1809904930458754 0.08675339153716027
Ni 8.834808213074083 -0.08033196376257842 6.6383113362468835 -1.5129576848388846 0.06659337164951756 1.346002843950469
Ni 8.27013274103109 6.651856156437986 9.798070395697277 0.6887113765113235 0.5155491212606154 0.25070775503635534
Ni 4.6740175095994845 6.830270013688564 12.84424390327227 0.4330735311632025 1.0710418727937037 -1.2341850532455132
Ni 2.2445542049628617 3.3292690218791927 12.288567514948634 -0.08412623832695833 -1.2635480797886627 0.10820847608714267
Ni 1.180995587146178 0.9750889365354054 0.41586162904220114 0.648133197978645 0.5240854408664006 -2.931355851832629
Ni 5.464775945642504 3.6532565667148615 6.925703416085041 0.40880745952698627 -0.2679102349575709 0.22886906189470904
Ni 4.67627591285582 2.2182466067000006 11.531644065873273 0.4988837447897924 0.5770254833985416 0.9801536331525637
Ni 4.226676352192514 6.552859702953619 10.013945750268457 0.7331251267400084 0.12701995236669092 0.7590349046272348
Ni 2.766469331053238 6.875494072284457 7.954338907183287 0.541825281348325 -0.0714301309165286 -0.10074302094803293
P 8.729717803695554 2.1546660224627274 6.602689224388364 0.2992823215109491 1.0151478898395614 -1.6153492971339343
Ni 6.150938581284621 3.5345690765740074 2.5255863599283197 0.5022503472691802 -0.6192077731935465 0.08186778131008482
P 3.3467389842587876 5.396239939384096 0.15311134175923508 -0.6659576277545756 0.01896240003511573 0.7198322662858442
Ni 4.636772520359655 4.9855838365253025 3.7684444650328803 0.09369357030041928 -0.2637918419138231 -0.06309204336447843
P 5.372340060295347 2.3588368755293736 4.728513153464677 -2.4575015392076387 0.24008087145012846 -0.7010282462054637
P 2.288173117442682 0.31010676382957436 7.904416996524418 1.0687260801763334 0.4143065349683445 -0.6919082861820665
P 6.9286972002364156 4.994337482204822 11.238815953403645 0.21550601032424174 0.8913197049372908 -0.9150900678840111
Ni 1.9590994991578259 0.6723966412478116 10.34359796773469 -0.0661007482838152 -0.2874125666565566 0.9318570029297049
Ni 4.681585960181669 9.163816505644915 4.520833376330334 0.2922876353606708 0.6512745718211042 2.0317119433003588
Ni 7.712325801205713 2.12161121116544 10.739276750816234 -1.2698863633018647 -1.4781122950249252 -1.013295924232487
Ni 8.57388797900834 7.174303220485434 3.0514042308195224 -1.2393899944852205 -0.9895281323889282 0.5474421133144701
Ni 0.4027787549717134 9.031027993519249 2.0155166522398766 -1.5625038711981283 1.549655040259918 -0.35265148116070877
Ni 2.3110931108210386 5.351127867726533 11.00522519841303 0.088014517637771 -2.099215485468972 -1.2501150942122081
Ni 1.1130195155794238 4.551541128045106 0.5730026341323704 1.6524621428258315 0.22787430208160753 0.33140311330489375
Ni 5.438729650235748 1.0971267025813207 2.934800630956106 0.6757429892761136 1.657131780387359 -2.359700117386433
Ni 6.722659898197591 8.153573002718518 5.878137466286472 -0.5121516655432922 -1.1000873680964345 1.0998742236443637
Ni 3.716734496258665 7.116443302347888 4.316513207345913 -1.430989887615826 0.08915248789695614 0.38491085541504677
Ni 7.2171848856212435 3.227976836159046 4.954919946361376 1.1148179894383896 0.5578800208183425 -0.03400823862464466
Ni 0.8224768698762281 2.123253686260957 2.248123788622154 0.057676271665545835 0.740992445303227 0.8242481080997741
Ni 4.286449380526542 4.763084454551859 11.860559035995493 1.3249390813016342 -1.1311131270539874 1.5691005505790396
Ni 0.5478027733344975 7.09485781998464 0.9071837900295938 -0.46342129021712447 -1.3694713593860544 -0.6144162653421741
Ni 5.8724550623906735 7.261419726261882 3.662671868555018 1.0549930468609574 -0.8997146138692055 -0.11278323994201868
Ni 9.080218256181023 9.26311159096483 10.673196058180727 -1.6082062583312497 -0.06626092801076329 1.1416999014308984
Ni 4.640178789733881 4.390662558888149 9.679703934779639 0.8120639073287564 -1.7040006770247556 -1.939026759659796
Ni 4.115118697125383 0.030516440695124474 9.230811758276788 -0.4190936719443427 -0.49004609189350434 0.003879794670380415
Ni 9.317621233197313 7.377708829473486 5.451658542266031 -3.1285183266526766 -0.00584206060307381 -1.1248437491055079
Ni 8.744845372615062 4.671339155324407 2.498705761831 0.01687877803320964 -0.023243543908972875 0.42855815979135226
Ni 7.333548646791734 1.3209419310801496 0.4835036062429355 -0.3120704744145529 0.12437865808910194 0.5841366405220263
Ni 0.28411272899403933 2.8901122432152273 4.434045365572989 -0.33063306790808866 0.07417375509993679 0.046370873955055625
Ni 2.389922583161013 0.21475921808581697 3.795010566478388 0.9496819469262676 1.0834281622731987 -0.27283441173206563
Ni 7.120820125187648 7.107829640341283 11.997514395451548 -0.3199989852330102 0.2655304218714846 -0.11198465530012326
Ni 3.051000144617046 3.00742789336153 4.735274364866394 0.07109511617461305 0.26747931806773934 -1.6566275870574307
P 7.735637748868227 8.525033677161558 8.628285634302493 2.259272313685974 -0.9151286344314304 -2.612563742423527
Ni 0.4982513527966068 5.741234367401638 7.263878772782728 1.812107080316395 1.533475088065946 0.5996992708469736
P 4.261998898990999 8.561158797018079 2.4580031758702092 -1.38058778101419 -0.041483978176399525 0.7630301418295569
Ni 6.232035789125793 1.1563957896928605 6.223578908832851 0.029447615837155734 -0.6117374329584303 -0.5574064236160335
P 6.727755303891639 5.667406978307103 2.425358983346801 -0.4405199601389187 -1.6992713898698866 1.9061575197356009
P 4.989018102634111 8.409145860478972 11.266652173374721 -1.2934119572276306 -1.484542109810669 -0.7670960843688144
P 0.5224097350680039 1.708435402194204 11.775616010047147 0.08547041105967859 -0.21378774208155438 0.0625798796147503
Ni 5.128189870244629 2.0282980948013574 0.4631005193035622 0.9832847225823775 0.405759673839598 0.044529192760626536
Ni 1.3028467082948754 8.538360122822915 12.472850420992229 -1.5079311781585707 0.06540706465090025 0.1828720263393044
Ni 7.469659438087878 1.462978697862961 8.14583377205538 -2.2643044767932423 0.2906734967960155 1.8187942625285836
Ni 7.835651417042432 1.6577613125995478 2.904519362831476 0.3070113147240906 1.1045317770210332 -0.7366812195223829
Ni 7.222952212945276 6.854263215225923 0.8708365627453827 0.6367226421488582 -0.3305633910124178 -2.3918805587737193
Ni 3.6793961845702263 1.4598150668551182 6.223469721567978 0.8019021363044061 -1.0775835305669634 1.2256736733403923
Ni 8.427203754284802 8.88862726918686 13.297944052327452 0.06605343998564753 -0.8230510024678793 -0.48033632080490823
Ni 8.954858210964629 5.315469360113056 4.8731993445634965 -0.7977624031044196 -1.3050613685411008 -0.9083743464267324
Ni 0.8301927699272157 8.394344920129594 8.85329912304146 -0.7370563434736145 -0.6018877938578602 -1.2732107996894073
Ni 4.847634592991562 6.653955911531686 1.5168649461387373 -1.0980173729412832 -1.3672105883763357 1.0412870101287743
Ni 5.344483309385577 8.708869568676315 0.6560633462922743 -0.9674351571446307 1.3724360984413333 -1.5626905332876377
Ni 8.23777784809837 4.383336746672347 6.823250299104199 -1.3207692661946608 -2.3488004397547937 -0.3447707928610514
Ni 1.7901765349307774 8.192124506238875 5.996066244920136 3.1562551304463127 0.25058279942271683 1.0264435173580386
Ni 6.917069223139742 3.4162175472481455 12.5979370314342 -0.23127227201956296 -1.6182423024110129 -0.13444298430363943
Ni 3.3836573449284852 2.216809440991423 9.659734797226298 -0.014611065044955482 1.1339842779541955 -0.3784000508797225
Ni 2.735402287911321 7.804463054717323 0.497282665780046 0.5291340590339016 -0.6124480858722097 1.4828917186914397
Ni 6.0328576870597255 4.803045127046209 0.42509215243411175 -1.034012587954548 -0.04148886327240597 0.22690396774853827
Ni 1.3715320304710577 3.2849781877693887 6.50744806623602 -0.9213370772349875 1.4739005709364228 0.5167606250702133
Ni 5.633390945789143 7.678216446239144 8.773040884013282 -0.3497890720112492 -0.8057744747756187 -1.9285867952733948
Ni 1.816988074416127 5.988212227645207 4.969821674955251 -0.2300548546726941 -1.0017735254151843 -0.114231542352771
Ni 3.4511014785381686 4.888901779766437 6.029107057850132 1.1759585655034521 1.328919406105621 0.7945292408791026
Ni 6.142371580502321 0.44327696477005046 12.305914291696066 0.7750107112302007 0.8781880526513391 0.7658110470088036
Ni 7.22622783089145 9.05723293708864 3.9708795205554006 -0.0980706163221924 1.1189003870378795 1.1961319551275338
Ni 7.208645881573525 6.505199928449031 7.625274621143291 2.6904136608234697 -0.12616428923461495 -0.9756066372118294
Ni 6.59846638358881 9.21302543279641 10.077922954912319 -0.37470614696790305 2.8481189580891595 2.0194182135346708
P 1.1761801487979566 6.355118766596128 9.360282657354405 -0.3745716782725678 -1.8479793687329722 0.32024298292301623
Ni 1.382124128388173 1.0592284562012289 5.856010713721291 0.835902918729883 1.4237846281166384 0.9571106352901709
P 5.652494051019394 2.2332995176606234 9.492812666297425 0.22421073718709125 -0.051742936900246374 0.016166068236901192
Ni 0.4789056091999729 6.374184542846935 11.64180188421127 -1.2671707641429144 0.8496740043720464 0.5533880464852599
P 1.7474348534678814 3.8959602588121403 3.090372885685159 -0.3684300841512042 1.1592517942717326 0.4161405028532898
P 3.100880993398526 1.968198437897198 0.2696496159086253 -1.0541759502763006 0.1972295806125571 -0.7725784476396242
P 5.285484857375002 5.82650308869563 7.450019728778126 -2.2287818584066 -0.416676834972734 -0.0017532352456808514
Ni 3.5201880872433695 3.1885387693769065 2.0862140064080674 0.39525543187416445 0.11979258138031625 -0.08261597233001901
