# total energy = -340872.766404613 ev
CRYSTAL
PRIMVEC
9.26109943081410 0.00000000000000 0.00000000000000
0.00000000000000 9.26109943081410 0.00000000000000
0.00000000000000 0.00000000000000 13.55455514327294
PRIMCOORD
 96 1
Ni 6.198611421800499 1.0688790750250277 7.289585628325446 1.507192243110017 -1.0761784226893207 1.5012002871926404
Ni 4.223922714055156 5.155867169934484 9.857726526542745 -0.227801282751827 -0.11783854297773899 0.23085472486617017
Ni 4.21873649826173 2.5824391099377806 11.949533878553085 1.2839004181927696 -0.6251961295664974 -0.03433374028486345
Ni 0.68581961986283 8.460810967593877 8.867240807675199 1.5197631377964924 0.9626076538490002 -0.2943398899040092
Ni 5.3843199756348845 5.859534781006404 5.337146712443863 -1.6377616033908635 -0.5124954220359561 0.10648455141750048
Ni 5.298710370644836 7.368843971188474 9.612876943945452 -0.24998836037182756 0.4351193579486377 -0.6634382037668315
Ni 9.187029356267567 0.24185454297658987 11.318527929076948 -0.3246884202888795 -0.40033413194865247 -0.5117724278270025
Ni 8.727243542881489 4.9955204909213204 11.461894381916458 -0.042420888168372105 0.31794801624125246 -2.03673665020846
Ni 6.67442819864804 5.410075093709022 9.747365706678572 0.7830924597970708 0.08020222068220383 -0.6805432388782344
Ni 4.584512889292337 8.804638552498735 1.7842675337900886 -1.198208378040588 -1.1519274926961773 0.6345078938857266
Ni 8.943314258375086 2.513768056173046 10.405927131997135 -1.3318203818025 -0.1430968033238955 0.37534738009632773
Ni 5.723109522340415 1.1616289878306667 0.7923167089608996 -0.02565678133615581 1.4713531219242206 -1.1890619356546295
Ni 2.6732627140201473 4.044044375919966 11.31801301193746 -2.350693028791816 0.11782440191035191 -1.9009687764458099
Ni 0.02625429134425427 5.896597701730134 2.446854759118298 -0.9408113839095151 -0.8885755665332504 0.552250847557023
Ni 6.756129619593756 7.888697276781977 1.9851055926104235 1.1070661134071127 2.2744415652272445 1.3490971666050766
Ni 8.972245933622695 0.6380406807559331 2.715045091115896 1.270051171014503 0.30116205503216514 -1.1042355859368533
Ni 4.030208293071077 4.775726813376015 7.389916677289118 0.23969083510056138 -1.061934768286113 0.8025346276820823
Ni 7.074424352815625 2.08333992861761 12.053699948874003 -1.0405143936288082 0.9422506874592032 -0.9157598402575261
Ni 7.285716340899565 6.666352519769706 0.16030870850467635 0.20734455755937192 -1.337133566485297 0.18257017882816942
Ni 0.8139552682490051 0.679080317661266 0.24634154574786618 -1.014221007149918 0.8974137336501705 1.0205739459511394
Ni 7.979141175779469 0.3588287140873424 4.81882056217953 -0.763244314722892 -0.0833281679056952 1.2534385021584864
Ni 3.205405498824144 0.0030163401498548856 10.673765542208752 -0.20228051277290324 1.5412549891216811 0.4342166436287103
Ni 5.8237221087328725 8.478277401498163 6.057815850218587 0.14247511057949658 -2.413242569389263 0.8583602192921347
Ni 6.75060074311398 2.8337297873285157 8.521423938569576 2.1201612344827034 0.6541122983802153 2.1292426279586816
P 8.096034775323432 2.085673725724652 0.36432980726822606 0.23722000496256562 -0.3788430519544121 0.6809990954687304
P 5.258313454053903 0.6148564439393941 11.787027511105943 0.8300225486897059 -0.325045289407666 0.29830170276523466
P 6.133820768781203 8.7334670018336 3.982003343381148 -0.012124551177675892 -0.16529056581211532 -1.4779472302019707
P 5.96320353027713 3.5638934044450616 10.555921753842636 -0.22027232136463357 -0.7567993304284966 0.02802656711991302
P 2.482761894608066 8.493567476989138 1.2332978595459938 -0.488969570999874 0.3508877043920667 -1.367343514409774
P 3.4952316117799582 6.128671597386302 3.9093101940466197 0.7755622128582966 -1.468102219087091 0.0019046732218805905
P 5.147022819786768 6.166475406080521 13.395085954434691 1.8994225150046127 2.251770863102606 0.018062513928665667
P 4.670974515448447 2.359487397418264 6.715455796123853 -2.8408645905195913 1.234618541238506 1.1216674082600553
Ni 3.1601465049268738 6.304502834982693 1.0680085316597026 -0.46152664429757284 1.3373099441621614 0.4534616079012513
Ni 1.0162852902199129 8.80800033166483 4.874000972111616 1.1547371942308307 1.1226133171130925 1.2208988776595682
Ni 6.62543698159943 1.338904956969513 2.98209723396883 1.0030107402563953 -0.30057250107728234 -0.7930120329036279
Ni 2.5007747333905885 5.430171679908546 5.808317195606472 -0.8327350625248626 -0.30324182037932934 -1.3579011380499517
Ni 2.0064820627789683 7.47748593096111 3.100415190636057 -0.4843331006691271 -0.009304822340693653 -0.688710090959743
Ni 0.8297982313879573 6.981100251832856 10.72176211715698 -0.24462426784643676 0.01973681630729504 -0.11368441160004937
Ni 7.801967078736565 7.6770163225135315 9.209561611670074 -0.7863721589896069 -0.31471613956751604 0.22605036149899135
Ni 3.84496777824947 7.017450067884992 6.719806660730552 0.1145912396850349 2.486766606720343 0.5995825427634512
Ni 0.216051267184371 6.463284388158198 5.316571327393409 0.3146055821315808 0.6325088611778268 -0.11769456120070698
Ni 6.356207554223221 3.5760717504599806 0.9397645284078435 -0.3216437199252848 0.10122818811456762 1.0224063711741875
Ni 2.4642674786447247 2.9769063876255886 6.8419874220539185 -0.7235858197910053 0.5550356093910118 0.24756355298041882
Ni 4.384010082278649 1.841606706046188 2.9137688408904463 -0.7919848771906941 -0.04739520145451192 0.06477997258986262
Ni 6.735912639099028 7.355998826000114 11.459373510596869 0.7012784145430567 -0.27717726208179366 -0.15499998251938465
Ni -0.18486544028654683 7.939975985439474 1.2181531833192276 1.0637227134244713 0.20319582549832102 -0.415951012550303
Ni 5.437765781606061 1.3201419691168694 5.102626034265154 0.16399575826009177 0.7625706856946352 -1.6716181469289924
Ni 2.0337096956944527 2.361376661743012 2.00622367809926 0.7025174291564804 -0.5361472571269411 1.4847092315161527
Ni 6.119354931157398 3.866629490286653 6.600485726973274 0.2901093967624294 0.9249376501020523 -0.14885350330201458
Ni 2.96033828038552 7.6597721550003905 9.041037381682635 0.39684900161352943 0.4288720914873453 -0.9699628086624908
Ni 8.155787390143399 5.98608770746562 7.305078521898342 -1.5634834615025783 -0.1256259002326417 -0.6765305181744155
Ni 3.3672154315790244 0.6361467858813696 13.137292132882987 0.29037370616740954 1.1217555970984874 0.9428842072781439
Ni 3.8637585494010067 4.717446713397394 13.094567901954752 -1.0594037743341431 -2.8591219940678827 0.45040713734564364
Ni 8.48677909095953 8.482769034819256 7.031019431064505 -0.8794769466660918 -1.0400058294235057 -2.008785673521489
Ni 7.854310813851639 4.499801610966507 5.2100862777248595 1.2445805375472245 1.7731291563913012 -0.5148351259127263
Ni 1.5048175568609783 5.623858317593732 12.784372000360296 -0.21225227927363444 0.10350027197819595 -0.4733411204339977
P 2.633634468698597 0.7922083540952156 3.736001679989744 -0.44399583450266117 0.07157874067925092 0.2098621817749031
P 1.5072995315621178 4.869838107827428 1.2413707600944388 -0.43590200175093313 -1.3220841283513425 0.18197548266696403
P 8.435361465807567 2.4234260292714978 3.92545321681362 -1.3824515736958063 0.15879133124101685 0.26850801644256983
P 7.17244383131137 5.210155735972093 2.7020332461341763 0.5815863632963467 0.050578484278499994 -0.7120927315497413
P 4.011389738620647 2.7492685586927266 0.9207857569337949 0.2948407407998277 -0.821238888959805 -1.3365080170861565
P 5.758107217846407 6.035412324100951 7.486573848029125 1.1860244343798865 0.4952471764784696 1.0558687645976914
P 9.024886023925966 7.738472979665625 3.5654177814443435 -1.0980821647409476 0.8593714341654684 -0.9473633260954202
P 2.3489482660380525 4.223996802852205 8.724931972413561 0.9956185615573819 0.05699184400401152 1.0064488194036665
Ni 7.035861133951653 6.742173142449664 4.369080263563324 2.768821765719728 1.0586288438413316 -1.4067911788824354
Ni 1.4131141483136553 2.8935750131447957 13.388878239351955 0.27630257278632414 1.5557326139125658 -1.1145094570590355
Ni 9.05244705642817 3.333764339711429 1.9560581536174242 0.022625964929632 -0.6018538552961312 1.4128075602798444
Ni 0.5214943724481381 1.1166385658226992 6.8566394077803094 1.9933811660409604 0.11324063919441144 0.8448164191694288
Ni 3.0030504718842326 0.9720542783816968 8.30644881116234 0.5678720990340478 -1.4996306287126755 -0.3148742624119351
Ni 6.375035369773282 3.602790022895754 3.8324689981873137 -0.7787655502869426 -1.0021741032877127 -1.128460777032805
Ni 4.308504336986149 3.8108869316069587 4.869514895450302 -1.4205008151590441 -0.7506554223142878 0.4464026441719409
Ni 8.099174288098379 2.5092115951545364 6.2446789096955655 -0.056256251389567635 -0.5922875517639348 0.09339018012738755
Ni 1.5481872864335002 6.17118930579276 8.03138581712849 -1.2061428023963163 -2.0312684280050375 0.8323709943172245
Ni 4.0283653342444845 4.192481280807513 2.5084466283250064 0.3170021073882154 0.7556598175074146 -0.16853992598734843
Ni 4.4539313844935835 2.7737549061174005 9.056909980340405 -0.8473702959395342 -0.006143908114208774 0.108956924217393
Ni 5.349155580335533 6.14763832943083 1.9573454464661495 -0.0908195911867339 -0.6834840666741132 1.123966231596561
Ni 7.221407265061087 9.15622693889447 13.069709258324908 0.5430578682038454 0.16253768565732654 0.08622348717561924
Ni 1.109359341512641 2.336417998237151 4.802718288250905 0.3946795047660364 0.10682856502048053 -0.25076483352653584
Ni 0.1598947373511654 3.94286686245001 8.123041994067695 -0.4259960554911309 0.00032293055705750833 -0.27061837791735327
Ni 8.518053824413812 4.396947838463319 0.012953500054043686 0.39241102044683385 0.030246457589367264 0.4562273435718466
Ni 4.486354494302126 7.8667299484569675 12.203424146610276 -0.3098384997602406 -0.6455224998286754 0.31610273550239754
Ni 6.4732400702616495 4.76457644942015 12.38098813594765 -0.5619454491369676 -0.43527131014546977 -1.3298478314571613
Ni 1.5422046160717988 2.3682947031674564 9.232794006204696 0.8158485711821691 -0.5791510143819768 1.0051696955809268
Ni 3.0149972904083735 0.9293143035840908 5.939104296817036 0.19467107585676152 -1.1547451646506306 -1.0838837617533785
Ni 4.049147241816712 8.279200803827667 4.227666050526054 -0.33443984324868853 0.1824886748579567 0.48003601595567
Ni 6.865021629056433 0.5029730992958668 10.00792489258013 -0.7186233335794074 0.2435778288597934 0.3702702226837365
Ni 1.7961532290566646 8.228311061354677 12.68524767267856 -0.04058589184216236 -1.9901927410106501 -0.7785824877418591
Ni 1.8881807760910767 4.4656837199254715 3.522964900735302 -0.47728750667625547 0.44882950844587866 0.019650941461708094
P 3.003652443360255 6.6903758122128245 10.914019767169084 0.08722338919504333 -0.16407623378904 1.301738731925771
P 8.42536873930559 0.768472155740662 8.503030468592213 -0.5797151144155629 1.166159062914527 1.0764972394813201
P 1.6672572443907747 1.5516046321973826 11.60839201254125 0.20355320883773978 0.40065372007160027 -0.35349197478413313
P 8.78884837762768 7.644546907206834 12.49713714308127 0.7575650049499275 -0.35860332786876953 -0.0012639543140881458
P 8.853490853052879 5.779537402392813 9.28569711173749 0.716994796837049 -0.42350697052069003 1.3954387299840934
P 4.758769739951439 8.955020288308816 8.229092698163544 -0.012193199632082227 -0.3897445293582642 -0.08130882348282126
P 1.6507169204495995 7.736963420425753 6.738416840439283 -0.16032268028387872 2.0158083846962254 -0.9554173067481481
P 0.6158279332906984 4.4140253061831 5.961876414699991 0.181581589662655 -1.1690965482762963 0.1315659198661605
