# total energy = -340872.043231474 ev
CRYSTAL
PRIMVEC
9.21121240467348 0.00000000000000 0.00000000000000

0.00000000000000 9.21121240467348 0.00000000000000

0.00000000000000 0.00000000000000 13.48154043786167

PRIMCOORD
 96 1
Ni 0.9740765115247909 6.41291983787697 3.4260773320428988 0.24867246977388138 -0.7856424799124341 -2.089254517601518
Ni 8.627175579074615 2.087592357998019 3.7394418604490514 0.039923318557498984 0.5014504770757041 -0.08742136413846234
Ni 0.7815695390743762 1.9681781990423088 8.407560929333954 -1.8656567314080774 -0.5517435689033015 1.4894907120651961
Ni 6.361585750569026 4.766249800219272 7.3969435377893165 -1.9238155991369965 -0.41701184971464955 -0.3610990977074297
Ni 2.1156036552353155 0.2285292612060531 6.415649120143135 -0.24461424054410774 0.0021676970752801373 -0.025580419572265624
Ni 5.387914532394594 7.200285071861476 7.761511354285796 -0.3265532414117602 -0.010554378477078597 1.8062169400842056
Ni 1.2201540536801285 8.154069282230804 -0.0635407861237488 0.3727377103876226 -5.639599598858983 0.6266290053582821
Ni 7.796572913576834 7.849574230348753 13.026740826163035 -0.19648884579179066 -2.340997912991239 1.3754057225926182
Ni 2.9205991499604296 2.9633299647857565 12.08242666337334 0.24539868411861607 -0.555255952931934 -1.0001527019823095
Ni 4.593640889028972 1.460069294667511 12.465369927702337 -0.12529499925578422 -1.7330698264765703 2.1076579598093703
Ni 5.289492726744967 2.1563448481588816 7.052341945525511 -0.4099444013449069 0.5516906041781788 0.4707219376435957
Ni 3.722186496057526 4.830138770175829 7.593518181683331 1.8078213084568477 0.8032118562547651 0.23840862595402812
Ni 3.3517483738296 9.282967853592648 4.282033859969375 -0.42939222565687335 0.2108253170191208 1.0254500430965179
Ni 3.593736137631317 7.002575606586456 3.7558765058061 -0.007788128585851103 -1.2901381715723652 0.20495651694316958
Ni 1.0022628217997425 7.5213695174707125 5.294888655032244 -0.2222160753545657 0.4832210985518711 1.8253040386226433
Ni 1.2271453639738175 4.465494500615532 11.53882327271962 -1.4616952871194826 -0.14796210183599678 0.08566144402456215
Ni 5.571365040706992 8.474868180252287 3.5850656232973916 0.5925469760729085 1.2368104066835022 -0.21182161949411907
Ni 3.545045668313214 7.616723989355124 13.224016443328921 0.46028788679446536 -1.1374472968021314 1.1139790384768622
Ni 3.28982139213728 7.099698631272433 6.431611230298516 0.623767624650087 1.242060085118216 0.19418847979338813
Ni 0.365006270211868 8.844339125166858 2.7591993632713017 1.4776824065763583 1.3428033631765648 -0.6102544206550006
Ni 8.169921778957336 6.280011252596814 6.603703392467108 0.6908484774589844 0.6857013860404062 0.4022832852552233
Ni 8.75425346683711 6.390978729682547 10.325282869620347 -1.195123054247045 0.28325586417570575 0.3982672221172947
Ni 5.948785262016099 7.0056245179266545 5.604977676270496 -0.05114669807714417 0.041026836034322896 -1.3316319199407776
Ni 4.426862675356333 5.691654264850977 1.5174689654120734 0.6564643435521597 -0.2640448384648936 -0.994358721008352
P 1.0825845948708466 5.87103341723477 7.167757517131432 0.0065650548120274035 0.4362362451619003 -0.4276621303396441
P 5.385823587155243 8.535708238868645 12.527128344205758 0.7700819064700157 -0.3365728304312913 0.539735745809148
P 0.12067517394807642 6.2431664025641975 12.460462193677992 0.5527254732005964 0.6608663292745973 0.314150239761717
P 8.7244183495232 0.0651481427064217 6.987563172440666 1.9769091365278662 0.2793881536901833 0.9903483142973782
P 6.910813507580224 0.41196871606344093 10.672271087045015 0.7895369298708337 -0.13283064551119705 0.636436221256691
P 2.6206636482699146 1.0998556183236354 0.35775059811919496 -0.0959330011538993 0.8633820979867582 -0.5026856350343859
P 4.428465426332752 9.023441941175406 6.382093594097181 -0.3527450693157796 0.09844111228773368 0.18754706321747056
P 6.3771711221328236 3.7603946055413497 2.0816170444439797 -1.5906618216895831 1.6030655946705745 1.2723055142663184
Ni 7.666657972361827 1.580432208511561 8.968649043570652 -1.0619213985496743 2.3577036557816946 -0.6194360871542687
Ni 8.542238988536926 4.151235563474837 7.780668834060254 1.132364225852269 -0.6275425183114869 0.35850665438990514
Ni 8.927120291977639 8.884453955639868 11.339324068854268 0.43327613409231186 -0.40251648431195197 -1.260509807182971
Ni 3.3203473503893024 8.464045005555207 8.542645203008536 -0.36199769826229916 0.49270384123132566 0.051000916527899266
Ni 8.669878760262419 3.5747426174395027 10.029160809908207 0.12922878709255162 -0.08009192035658465 0.8748651589256934
Ni 6.449690998209521 1.7191714913093783 4.770659207646925 -0.2830956844487576 -0.40758258598094965 -0.15011745761610276
Ni 1.8465994051471826 3.2917281131264673 4.538978790641833 0.7009544555447348 -1.3691052342958872 -2.1038938647812473
Ni 2.87927765064885 1.896533388153886 7.961793511214344 2.8263496847328677 -0.17272979569897995 0.7133592569669909
Ni 6.359531650179708 2.4196473577044673 11.293297482193521 1.3183915099911037 1.0318968271631261 -1.6111272886327865
Ni 4.260379220483956 1.7981944834168326 10.32663047001029 -1.3062103945438794 0.0790735063943993 -2.385141183167357
Ni 7.724707033588215 4.577014650451754 12.293358824203816 -0.5156334534443054 2.4780832200137324 -0.4868874916598647
Ni 6.1888478824036115 3.0100123897770814 0.0656916042444028 0.1541738870736635 1.3931797587465877 -1.1947299325736842
Ni 7.442991310238829 0.8716948056179086 12.934338547887487 -1.203481196403753 1.506312154497909 -0.10873323824236111
Ni 2.271715284823512 5.422290777475026 5.391146746863705 0.45063750818889486 -0.5350218852732463 -1.3400034318339245
Ni 2.543860558376926 4.663885595616155 2.4394311999294804 -1.4424392671033481 0.34382179868422075 -0.1971367637884347
Ni 2.40176839422614 -0.018924436098002654 11.915659503155712 -0.3215789281256204 2.399109986642623 0.569313973686897
Ni 0.994221433280124 1.7021399593818014 11.168863212420868 -0.733054421403073 1.276563518211724 -0.35525600866309137
Ni 3.3896801469381788 9.00006388382971 1.8661824429395182 0.38583413856026455 -1.7655408025210821 -0.31605079921853957
Ni 3.8959928648738864 8.16207382590039 10.871231434978641 3.6708442017865037 -0.9006785204443714 -1.9733016216822663
Ni 0.37811935233847616 5.1588777333793425 0.9148576263098681 0.14991048381161926 0.7789380713090649 -0.49585909903085573
Ni 2.8204640587842857 1.8618808066982102 2.6242357564805765 -1.5538438815302853 0.8930073770523588 1.0450678173274455
Ni 1.3810278801350404 5.558478554408084 9.365046204889056 1.311049982024368 -2.86167304262451 -2.899978108852296
Ni 9.26030827082259 4.181485185351615 5.465254635976809 -2.728858337952913 2.0758914660310506 -0.8331384686108684
Ni 5.468052081215535 1.022251152942437 1.2100935673787225 1.1950081259357355 -1.5547622795794964 0.43872764412518633
P 1.16695009023303 0.9348459574525625 4.213709691190141 1.6581591932106086 -0.4119316069782647 1.3381607221982308
P 8.682636289586211 2.882344984414065 12.347325476046588 1.0380006260680188 -3.230911224499307 0.6302748296409856
P 7.923024438888773 6.554560652614856 4.535352336277373 0.4054488274673985 -0.2881787553986198 -0.6773884952993366
P 7.544904165429047 0.056672906077669095 1.7153773928772698 0.3820134792625937 0.3973956181456188 -0.9342321880301008
P 2.0278115888200987 3.2211057468264497 9.798437437882713 -0.3272618374430106 -0.19546657517486338 -0.3926840716025624
P 0.7889771961734336 3.4447079304618913 2.539261399971604 -0.3539917972386871 -0.02227423801716809 -0.23590514280588404
P 3.2500842213771026 2.8075867836978863 6.012712919065191 1.9005201189441656 -0.6689719891008672 0.6577401249407898
P 7.349488292068556 2.8985659296409247 6.3499133020786935 0.6019209610886409 0.5220725242014299 -0.22904595379220552
Ni 5.8648066375792585 6.200711924114115 12.422632665028253 -1.8464300219679812 -1.3036891707839224 1.3237196070722363
Ni 2.000868792233748 6.825084752766834 10.989922513752463 -0.39318877915312284 1.2001338771980752 1.926407271123573
Ni 6.994359205029182 5.495648873889965 0.8269697632845662 0.18370352110166427 -0.1479747002414871 1.2451536364418752
Ni 5.816576728886563 7.569663904650964 1.20619354000277 0.11680135996247627 1.519504741928783 -0.4884563788088813
Ni 6.47309668919274 4.267259996227547 4.690646010194845 1.422362550958131 -0.3672846576928513 0.8396269045486894
Ni 8.368579999120698 9.043844776880968 4.895497849648688 -0.8279219574069354 -0.28378936808167254 -0.347911138262246
Ni 5.514163411031355 0.08718136302592637 9.109396370695245 -0.2683491222672023 0.3496882847673268 -0.46413579978564584
Ni 6.066762471820537 6.201255385652095 3.3036382108995106 -0.4692175851839274 -0.9817759992473348 -0.6644908134010621
Ni 6.626583123216113 0.1793036204412266 6.780500641984867 -0.8971851625791323 -0.5788350258034548 -0.1744292948885899
Ni 1.5393225670876691 3.05663033628085 0.47879974729510244 -0.6761476809136999 -0.8206552485421931 0.43062506962270997
Ni 3.916524657554562 4.409628496753577 10.09859032418842 -0.07656590948119717 -1.010996329565033 0.9320817173460012
Ni 8.067050957666272 7.303671721052998 2.569460360179588 -1.423956634918128 -1.0427268278990944 -1.230718177742835
Ni 7.865822809213137 8.57296759346413 8.88967394976824 0.5531034253653055 -2.509552494266607 -0.11531346256304012
Ni 0.364117388204831 1.9796185249774363 6.0939935793583935 -0.6411513673441732 -1.0870176793966697 0.07850734947828415
Ni 8.110251544329515 2.804482605082639 1.4605501199604365 1.4234236452327937 -1.1342856112446982 -1.1616953707162188
Ni 8.267744855793934 4.775921573352834 2.8586261122055685 -0.47545739544605214 0.15900833234782938 1.676938273590325
Ni 6.474754707444208 7.347682894416958 10.710733425994063 0.21642877924882725 2.1360876759049727 -1.552377581397404
Ni 1.771325376530547 3.8301695402906173 7.074950866626776 -2.0147989695951045 -0.7313181554382566 1.414274631743674
Ni 0.3659347604326899 0.6786867432070502 0.429913079150576 -1.816838938574426 4.046542023243715 0.9864587494349851
Ni 2.688237103229733 5.105222420519343 13.184933268656822 0.25402164990093673 1.6708738125638 1.3030631071641494
Ni 0.997270344620323 7.795053063512989 8.251754190879778 -0.7904044200774516 0.3599883811417542 -0.6584330372427564
Ni 4.511393972543663 4.1306208698815885 3.428490669720035 0.4864948842071364 -0.5092249788148004 0.6757687003077265
Ni 6.485421291528651 4.93347936330481 10.224292977923447 -0.3125808383920681 -0.6054289742418992 -0.8619857318598638
Ni 4.232883751147115 3.0331970116601052 1.2587066625117567 -0.7422013780096637 1.0525628401529097 -0.7492575135254967
P 4.499520719620653 4.335819050925738 12.454570702157778 1.923830511535332 0.09489376125610753 0.4078366109732847
P 1.5135219608523292 9.096339476964937 9.976636633944212 0.3574712711468553 -0.2993388857804974 -0.8571721125213043
P 7.27387344858912 6.3807266501609705 8.611159122765438 -0.22467610685928402 -0.080296580168223 1.14355469525145
P 4.881859728409115 1.3557062569501246 3.2614812546134417 -0.35428618855065436 0.083017835754128 0.11077366571115761
P 3.9600200030180654 6.375135444168521 9.378730382191172 -0.22706491880643473 1.5670403256159013 -0.3634902236474256
P 5.607638795564103 3.0311705449083113 9.111404415022024 0.322881706097444 0.32725335280257833 0.10517714545998659
P 4.632963555226282 5.172289258791214 5.51962566004869 -0.4806782775253592 0.9552388721887549 -0.0021227027699576347
P 2.6245784135858803 6.8957715975544085 1.8026167865419975 -0.7650392018397857 -0.5411506238788035 -0.44765965650749356
