# total energy = -340859.40416544856 ev
CRYSTAL
PRIMVEC
9.36080344730166 0.00000000000000 0.00000000000000

0.00000000000000 9.36080344730166 0.00000000000000

0.00000000000000 0.00000000000000 13.70048204964164

PRIMCOORD
 96 1
Ni 8.263408420172532 1.1192244700560043 7.117236069010875 -0.8030488483143395 0.14873394700501483 1.960344547300966
Ni 1.9007205107626959 6.2113705208893215 2.6989124805856997 -0.05194991070472989 -2.184527516573915 -1.5452494549930549
Ni 5.891025103632963 9.147236764702685 1.5406880949223327 0.17722794067964961 -1.158794909239972 -0.0069098397459558415
Ni 4.449573694817808 6.729556520043674 0.9800293220634246 1.691644726562564 -1.122162602728919 -0.5444303230713399
Ni 3.6377767331930273 0.46909045697604235 4.910101824835625 0.832507777005405 1.1950158392452195 0.5974223018873388
Ni 3.6276951478273243 2.3187833557187547 8.96870564825722 1.1074504933297251 0.20289552064908284 0.3522768714301095
Ni 6.207420261813809 1.404148606881703 8.901271355948964 0.5300650554886033 1.2748532203888367 0.24980504071642787
Ni 3.1547967159889154 6.824915025262263 12.65554609689667 3.259566426342154 0.4279966308609274 -2.4436052408415208
Ni 0.5945504979982446 5.297128925799122 6.479944142247727 -0.9987244541762156 0.14561905552511695 -0.054130206185500324
Ni 8.033853436028481 1.3092955850519241 10.44099996851291 -0.19418410891801396 -1.805598075553284 -1.2174186324204517
Ni 9.318052706906357 6.978862799565287 8.794065817825238 1.6513637675553303 1.7677023289487748 -0.9161807298450286
Ni 7.261793085246236 3.9294968133571664 11.297608968636013 1.0214987717582535 1.7187112437620526 -0.4034981314989309
Ni 1.785357968472141 5.170692552972237 11.3300385362692 0.17917169466958174 2.426590708561395 -0.8932989401508485
Ni 7.910131696215574 6.920479468157773 6.989492928015884 -0.9539366084375636 0.7477976411505186 -0.18741336585308366
Ni 4.848035017252249 3.8592533439196197 10.454179979835946 0.9765083230904925 -0.9312036856164222 0.8945852630624399
Ni 2.5480013509369326 7.364499821209558 9.156909282955592 -0.2079297406388806 0.014358325604201078 -0.4394850911165012
Ni 7.523586676632147 3.580263956510686 3.655371299445001 -0.791010686202883 1.8007286632761244 0.1518246701151966
Ni 1.1258706405385015 2.7911763041683537 9.954523691202866 -1.1210840249527596 -1.7481136081835702 0.3350396816162165
Ni 1.8978467440892781 1.0479981162513279 3.3146258831287745 -0.7814364122508864 0.6304949160715915 -0.25539976119538593
Ni 6.049737526915692 1.5256986402834276 5.481891529132191 1.1618061852624701 -0.4641625392585232 0.8347217539375883
Ni 4.716122574379926 2.612553451848622 3.903212613219415 -0.9566694339876944 0.49990652962735194 -0.45240694138449183
Ni 5.417396529121829 6.236831906399733 4.636270240153248 -0.10150252482187681 -0.9847528224874719 -0.5321358219747029
Ni 5.689243623462953 8.5999293058708 11.920926151859275 0.39633452387095613 -2.0795681435516893 -1.3317555900028353
Ni 4.874507369540279 0.750472465758675 13.351599531528588 -1.9312126629320159 0.6288609800125944 0.903324956928283
P 5.483081287256592 0.37943548932785603 3.6345734662365334 -1.8151240127658483 0.055993998867116465 0.23377472672644256
P 8.546151489783552 5.42159016908825 2.0644568772819833 -0.04214089503410807 -0.3599621558895091 1.1047109829113748
P 0.040812167164280294 4.898012347119927 12.471973251688002 -0.5911300411207239 -0.962299378579962 0.9006394396763198
P 3.416983461121677 8.500386521489286 0.3386261304046247 -0.27751664769908335 0.7509413289858228 -0.059060039386949904
P 4.991245949944815 0.8784646041266736 10.69981588830659 -0.26823676505905414 1.0571972536011276 -0.3401590051206529
P 2.7059555491364478 4.138729493110371 9.671060775802966 0.22140077854212192 0.07198291809620506 -0.6158658533045072
P 3.9346639768872205 4.487513031389019 12.563369328786534 -1.016058831689605 0.44212330007029665 -1.1179375089039778
P 3.859824352932905 6.306869438160358 6.627566821628183 0.37002596788341435 0.33846361969610095 0.3124473981379973
Ni 2.150139119926266 3.200982920440522 12.168508171376835 0.10887799135034151 -1.8550810127747601 1.083964751502959
Ni 2.3637526557158197 0.9204655933350062 0.9374638764042547 -0.038662192456888254 -0.032468147831034404 -1.2831681680124354
Ni 5.854171620267341 3.95859019062421 -0.31579606675707245 -0.46484516714784463 -1.479561368766626 1.028639753678409
Ni 1.1593167914314058 0.26888440003448916 5.6589979312854926 0.4314583641572827 1.0307966521204117 0.4668966503602346
Ni 3.749788107831844 3.065681866702476 14.021072964632268 -0.37057746951151016 -1.9827285714231209 1.0632000081517816
Ni 0.053319136715920215 2.51786892448178 2.3687035846851052 -0.38355074184272653 0.13388454069700811 1.8141007137076561
Ni 4.143437977269097 3.225274205513874 6.317251505318297 -0.02399687713522964 -0.3751465769394314 0.30875837932218436
Ni 2.8551012312457797 8.371076381988985 6.781423796137291 0.511979401631486 -0.7449948815944007 0.20918212498874297
Ni 8.711023321766962 2.077546088811104 5.027309381495334 0.7605094322902322 0.6725807894980481 -0.6234930308324617
Ni 2.239918586260955 8.26107758010191 3.9837436056995874 -3.2979391125830815 -1.2841166479686337 4.349085532004439
Ni 2.0805977107509546 3.6625735016551886 7.410111272326481 -0.423159100262968 -0.9490240016272945 0.030842953522785595
Ni 1.27959375555761 6.730576847624791 13.408785616168903 -4.696356979800157 -2.0982348667232573 1.8181419736565656
Ni 6.846809944640517 8.135361989144254 3.7537402390680557 1.1962137162080626 -0.17193789592530387 -0.6811793298003366
Ni 2.4408763157232753 5.612101241848504 4.83879122379948 1.291677233924711 0.3238852076612938 1.697867053323192
Ni 2.6312656980380753 8.635659492816844 11.125256918578572 1.1423449912140649 0.9276370513110863 0.09015701790207055
Ni 1.9956109758064604 0.6172860175304824 9.113122252440133 -1.0048308241842694 -1.1226431419097633 -0.494062155031433
Ni 5.431858970523883 5.8227754853401645 12.051862262926914 1.1640903533109566 1.5580275805943298 0.3153077504049279
Ni 9.005673333425497 2.2283954371567947 12.151806625778425 0.9100257659872264 1.0257912284860204 1.7023348592865586
Ni 7.2122369915358995 1.4281684286536573 3.0253817354894528 1.0086278293328566 -0.9651659014944797 -0.8642840409757373
Ni 5.585535281525508 8.304184080203175 5.625445067232729 -0.8185024638652484 0.5218817483468624 1.5111460855514425
Ni 7.3114240653845455 8.215247086183169 9.53493316311618 1.3359441741628864 2.8290984511225985 0.007505307238109655
Ni 4.379835708769071 0.17750610846260187 8.250951062879423 -0.8256727563614426 0.09134255356973947 -0.1416958092113108
Ni 0.3793643472212828 4.945387373615586 3.894115784381541 -0.6488356233623084 -2.98670398958563 -0.0033146661955297755
Ni 1.4032967737635236 8.069368324494107 1.8470849788885948 -1.3373035164042582 3.0830098006979165 -2.6026701374588983
P 4.287145032546977 7.136442565624943 10.690349307730605 -0.7159475865194573 0.598104415556028 -0.6191362965256627
P 5.767752682387886 3.9216337384201276 5.174206598604814 2.246250447505009 0.5805972599102001 -0.8824342295222029
P 6.793284870247675 7.3173026499803315 -0.21469751683444574 -0.6591208073384004 -0.42331079534948385 0.8347479791898333
P 1.226040598754278 7.307361476667076 5.767340807034041 -1.2069087340280635 0.066616254467653 0.03544908483622927
P 2.8542868413415863 1.5306411445295662 7.032074287040998 -0.11262897375234152 -0.9847029430861429 -0.6204850972440733
P 9.197682134745188 0.06533185584294628 3.0305741731889477 -0.18765864909467037 0.35426536261504793 0.18136741676931992
P 8.055916849869671 5.462300303494418 9.30697045164688 -1.3735285601745635 -0.6485018941719735 0.6860361436720056
P 1.6006786762901906 1.2431895907598196 11.303226386814247 -0.05876796206782782 -1.0661722034062282 1.0385966077808049
Ni 8.038824022685109 3.1571369168630343 9.061991671581689 0.2342609223342417 0.5008753212985244 -1.1557499517660612
Ni 9.220597381704557 7.049873854889544 3.5935132377795966 -1.0034550268826652 2.5397369882697873 -0.11184530150878158
Ni 4.139749820691486 5.5115755730998615 9.047537654902781 -0.0437869152779633 0.39876704457184875 -1.7319830211702945
Ni 2.74110536626571 5.198625190605718 0.5301687637101905 1.0239631741383461 -0.6912562544203643 0.9361255483980717
Ni 5.229890274283943 7.420814415044349 8.203478684027402 -1.1138972773963334 1.2539951459929048 -3.4117623637538403
Ni 0.685511297734189 4.71560773018762 8.988612332972822 -0.27778815619291514 1.6238318806836485 -0.6548514905390851
Ni 7.5542058648691155 5.199739126221798 0.07211750229754083 1.9975206421306306 1.3479098311651947 0.524779895830264
Ni 0.17578746494064912 1.0868548115651946 0.6671351043902595 -1.3287543412826663 -0.9473399290566524 -0.5129139976306135
Ni 5.870487500761697 5.332849751941669 6.846062016441149 0.03710744637525868 -0.4340070987210654 0.7372815721105431
Ni 2.1122746697830252 3.272359047101142 4.4005670802727135 0.07177260185761189 -0.5759880432729628 0.425314456043074
Ni 8.294168020461948 9.12539801014541 5.423596189277545 -0.9297877791055019 -2.1725778004112066 -1.559433459802921
Ni 6.589509538932916 6.574653943784011 2.074362479541953 0.13363025859435695 -1.1471025605037082 -0.3581387295275251
Ni 7.77246235919292 5.601504812290495 5.055902891855666 -0.7065293785293509 -0.04771119003303396 -0.20558849410021368
Ni 6.211239469640371 2.14229476659622 12.165069012172232 0.6084831876871908 -1.8513865946423083 -1.1969847900461321
Ni 8.063658234361256 6.50282849855556 11.710911845014115 -2.0379576670997546 -0.6458364315246683 0.00978793262469927
Ni 0.8453002134190132 4.202570172956328 1.0634659079489028 -1.3457423912002309 0.3783985082178257 -0.549441403132686
Ni 8.297650239362637 8.09556921348074 1.2683561109600918 1.099588574083145 -0.42350594207942543 1.1529374220179307
Ni 3.6757909561922113 8.120571919619824 2.595268728192382 3.6081421947715926 1.401216255897819 -1.645009286092212
Ni 5.1683897953121045 4.319655103090234 1.9654167680482315 -0.49497695353621857 0.5801506592910848 1.0361646013005446
Ni 4.232169033612181 1.486327100777255 1.9466876724124849 1.7004921496508647 -0.5295179247358817 1.1106016373641971
Ni 7.464828913084775 0.14748226732800873 13.40085233520564 -0.2343305992299126 1.1628865628108425 -1.2939606306422489
Ni 0.9871996975417243 8.773459881088447 12.854504358732143 -0.5654519196283294 2.6528012497873346 -0.08556965564170424
Ni 6.149720269061539 6.474895860922079 9.816710197806364 1.2352340633353178 -3.696913130959414 2.423677905789974
Ni 0.5742010472772581 7.32744976097051 10.979128223436152 2.053938101688411 0.3563772667517282 -0.47926442789696816
P 3.872817148186012 6.026560177458421 3.195185774835155 1.8865675134188156 -0.6047748855976681 -1.2317206508654208
P 2.7009662408728268 3.063079563330456 2.342686167447003 -0.49913674134086294 0.08694031073698574 -0.43843685235764485
P 6.006060017801141 3.649131387834251 8.468692713010922 -1.1394525001576183 0.29835055372529906 0.20960275746592932
P 9.164835075276057 9.30150280632459 8.665609383603815 0.7246703111044358 -0.29510350754291115 0.6666137732813359
P 8.46466569534674 8.813617728088325 11.527900648015237 -0.34263420613402285 0.02923575693666578 0.05549854728793668
P 6.446167554991398 9.220934370630431 7.36340647936117 -0.05253766488739984 -0.5871348039184017 -0.00017637767686421238
P 7.648412991257637 2.2757330204384676 0.43767840868292196 -0.10558569375231494 0.45892288812613863 0.22540475749519243
P 9.132942817763569 2.979188042395049 6.972408525554467 1.6735531591681758 2.4069130276268096 0.17705824787100471
