# total energy = -381164.9925737472 ev
CRYSTAL
PRIMVEC
9.34865732634368 0.00000000000000 0.00000000000000

0.00000000000000 9.34865732634368 0.00000000000000

0.00000000000000 0.00000000000000 13.68270497387652

PRIMCOORD
 96 1
Ni 7.585350948221395 3.744127896793282 2.138182826871038 0.8399048408004244 3.0886186622442615 -0.7670875997283821
Ni 7.606572400274261 7.571234475710457 4.561129494319661 -0.44943963122605174 1.9679064188086237 1.5638853249266873
Ni 5.2959302180088415 1.5440148896913142 6.340059314176096 0.7542796493304365 1.5628183171147536 -1.3882499255451382
Ni 8.080801738726123 6.450068703994111 2.7351179666091974 -0.9039299375021335 0.008517036332075654 -2.5388515003410403
Ni 3.8729523942771995 3.631373741194332 10.655434110200549 0.09836809295795317 -0.854811839819244 1.5066767369261793
Ni 2.006221854865651 5.120951399474264 12.060934619124776 1.6811541114438855 -1.1862123820209765 0.5029072641268887
Ni 7.319063793915742 4.975140391690762 13.241999107842497 -1.1142425765508939 -0.8877926656206387 1.6443497981313422
Ni 6.368548412407772 4.134752193082687 11.229861422642461 -0.10333160761081558 -0.9723765603103061 -0.10210904805762414
Ni 5.431971878922192 2.911601918967789 1.8244110375820712 -0.5157609801611053 -1.7275638090566763 -0.3956698937037637
Ni 3.3109859071398087 3.774539078964195 2.484724464565693 -0.5700035435547538 0.2564834811778679 -0.682064046398135
Ni 4.216468806472159 7.285932152472853 4.3671775758109455 1.2302471516436877 1.1881162839119086 -0.05159098470341438
Ni 4.468031825542894 7.874710588723731 8.109780706599901 1.3364820489442273 -1.7070150383710472 -1.1201203754879097
Ni 6.94091060645388 0.7494089355736779 0.6214379705005212 0.027292002946733642 -0.5862755412419 -0.9593852902569606
Ni 3.861416151178857 5.2828888410864865 5.249013981388883 -1.183962666754851 -2.027504590087231 0.6998244557053496
Ni 0.6778215923601005 2.1312321001744277 11.180576236264706 0.9463878495560283 -0.752896910050297 -0.48065179516279805
Ni 0.6192101854678348 8.045117913842516 12.997666340321402 0.563823639996287 -0.41151020317013004 0.2805058122343943
Ni 5.325256955933882 7.248453385389179 13.282800387727752 1.8171983787963737 -1.2757441076342222 -0.773693535080674
Ni 9.458690988338395 0.9461402098953079 13.675494476741608 0.27104698081433964 -0.0677169437309995 0.9936753217880823
Ni 6.488398198891359 2.8999347946673586 3.945257714370803 2.548417803873237 -1.206112206268697 1.376080894282772
Ni 5.1211570699346876 8.661830138081926 1.322323635265743 -0.20641227555308966 -0.06645376074785975 2.3351332266803464
Ni 2.6448379831402433 5.137816377229052 7.640996961020634 -0.03825467260582444 0.12367211894038056 -0.6790304017781338
Ni 7.460097637823025 5.574987638175383 7.430406302263598 0.32126062555425317 -2.5482411690860567 0.6295469503360255
Ni 1.5748374127830758 4.121065758807182 9.668541233437905 -0.2692713769711556 -1.8130097946363228 -0.09049203264398609
Ni 3.8483934715710855 9.087044466351774 9.898506984432634 -0.5239514863916976 0.23848421638696995 1.0668113796521241
P 6.18653005493231 3.946984411372638 5.8807990457802015 -0.08618749173136124 -0.0010497814207530308 0.3156175683358629
Ni 8.080885876641752 2.544143595447988 12.71806015397182 -0.35275123996336666 -0.07174251995062483 0.08173871193138826
P 7.064097863590714 9.018369229884657 12.251439687689926 -1.4816285357082999 0.06947146452826099 0.8028989530000367
Ni 3.364890265085547 0.8198491985375256 7.390316455198264 0.16584026766799825 -1.0135844020071834 0.16629715269975875
P 6.753928111956359 8.461413623055785 2.7708980826629124 0.20880828658909198 -0.013537886585434752 -0.984613211585814
P 3.507849932394985 1.9849723568409088 12.41838240041629 0.1526595073116661 0.9404290608694319 -0.3984428284632106
P 1.5324319033065121 8.784147970090602 1.0980222357242422 0.288908948696425 1.2927385853096898 -0.22756782658478225
Ni 5.682085856112666 8.526620507667564 6.093742761577638 -0.5414144190631515 0.8534614964389367 -0.7437772071372157
Ni 2.4477682874246423 5.857868659174357 3.4594397803397627 1.2826058677510621 -1.625570717751626 -0.137465316069731
Ni 2.341109456380084 1.4924009527821192 0.7435314347341903 1.0106410031081432 -0.5682441376614858 -0.3062937198317757
Ni 8.922853998332176 8.77353724406417 2.216885433149565 0.25755743096833705 -0.2681650312808543 0.4867352823527167
Ni 4.000982255891296 6.445338283404355 1.950852562322255 1.1674494995911764 -0.12198136150151893 -1.2491961819423647
Ni 8.9694009629891 7.045699706040035 6.544342433858214 1.3749449809061158 0.20197043773165219 -0.4366802746778544
Ni 2.30028386998587 7.6747521579049 8.475833926928711 -0.34204645195135286 -0.22453495329572942 0.14249465096352235
Ni 7.690439204840895 0.485926378455628 6.4884075475486505 -0.4759459050466964 -1.5287198327691478 0.2563680386459262
Ni 5.28988163674091 0.4399122872643478 3.728017355681959 -0.5811143087559347 0.30347656209795476 -0.07527778679739293
Ni 3.2180976482863834 3.15157260299643 6.288858587919209 -0.1669502129027254 -0.25201953186924336 2.124228719683858
Ni 5.61243835928718 0.4699719599210813 8.361884078062115 1.338539188583572 0.7822990173614979 0.7483882235466659
Ni 0.402902822776733 4.076650288012837 6.67310990453265 -0.22074206191220047 1.0237741980559918 -0.18540379162222265
Ni 7.1296226025504215 7.841092817101659 7.891965405487598 -0.12110152999972693 0.1414081027675629 0.5966147183843789
Ni 2.1231081169876695 5.105077379392428 0.8144821343861818 1.4624648182956554 -2.209634081833556 -1.258136678965104
Ni 2.3523371937877897 7.755833062598515 5.865720596433917 0.8563367611042026 0.07439795529560089 1.3825063381931415
Ni 1.8888775085363236 1.402177061256917 8.996542919704998 0.7707555354982726 -0.20131737752868556 1.8797972845745172
Ni 7.51421701488648 2.455836178667648 7.324734689429076 0.002718684482743705 2.483169119177072 1.2281499027950267
Ni 4.372086555754981 2.8270246164469612 4.382256025157231 -0.7904216464686322 -0.34732569807242114 -0.5084739595813889
Ni 0.34995109300905114 9.180970426164611 5.6260958127250795 1.0805210159287328 -1.4745376902997895 0.01574209332560515
Ni 9.074769679327362 0.9293378681443757 9.322601649272855 0.6796796053263585 -1.0432523613852613 -1.3809225386457895
Ni 0.9993714645160208 7.366844781335212 4.04110482325715 -2.252382528544676 2.253001393075597 0.15704760907703277
Ni 7.694524568077504 0.7348633596930374 4.154083346631109 -0.15280297486806588 -0.3057177927236477 0.4847341927622878
Ni 7.674443652214264 5.34277633969911 4.925431711137678 -0.9465210326997828 -1.2082989295073705 0.5566602894786283
Ni 6.1842022392665985 8.144484792199306 10.286356599237772 -0.31153079986099896 1.6998277765939884 -0.5185789092258747
Ni 1.0865476937640273 1.8482482439452417 6.910148849634515 -0.17993454097753525 -0.373644281362292 -0.7574313075855406
P 3.139036053567843 7.440867449773358 11.302310712058361 0.31892966342823137 0.10414587598199485 -0.2709801321321462
Ni 9.027717887176669 0.06685411802663208 11.513681048833552 -0.5510681401028316 0.24451602440334663 -0.5036960785767712
P 8.720259246156997 3.884984116212018 8.884494587731595 0.12108198961570116 1.0128513804959007 -0.40239769934590053
Ni 8.920619669239386 4.077201858793065 11.215426160917865 -0.3966669675097104 1.7407615386938728 -0.804743462407943
P 9.47953849409958 1.7424307920569646 4.905605078752781 -0.9152078244087981 1.71310289643634 0.8560254005113709
P 7.217976762617221 1.5817460705218724 9.564689804178137 -2.328693898812906 0.6352180325788738 -0.6388479160219772
P 0.32896990144858984 8.341853644948252 8.348803436779132 -1.188527146197082 -0.011021805031800374 -0.72747795575656
Ni 2.9767246656639403 8.55389054098836 2.8741755043649504 -0.0036903043673936443 0.502559908089799 -0.9859445288027279
Ni 5.392679472323868 4.86721014325449 3.363372978007053 0.02352842213924335 1.3291379498743305 1.686491978717031
Ni 3.244077566900883 0.7719317207215919 4.997005966231048 -0.4133153746996688 -0.30619910323544036 -0.1206623855797793
Ni 3.145832527419135 7.413728297654649 13.50485717465344 -1.936039652007014 0.21890192337966816 0.01968153758932739
Ni 0.45803185482772435 5.903032022552063 8.620213655280807 -1.839022930870633 -0.1697365173986109 -2.5816629390796115
Ni 1.2386596965623453 6.40609262009249 10.498151365054019 -0.3458773956616688 2.4338378770421114 1.8829885378183056
Ni 4.400366244063315 4.838089075789874 13.068885346437677 0.35822588992469273 0.00633776929256973 0.44845207050180186
Ni 1.2448765536615327 6.809131933265686 1.6772398001625815 -1.790968241455251 1.661674148342403 0.7926909021187832
Ni 5.647533218761391 1.5718925857360924 10.949612048671188 -0.389294072084407 -0.4586161555189972 0.3678032492004827
Ni 1.2744276593615809 3.1280513812497293 13.127296692063892 -0.033014507252807655 0.5621452238525996 0.18887092423521665
Ni 8.524489013804986 7.539374251659282 10.079870935897656 2.1372948088391968 2.444981038143125 -1.030084713655052
Ni 7.765349995721782 7.567336085619688 0.4576551039388563 -0.4691545931564759 0.2227909740214292 -0.02986490588023244
Ni 2.3546650094535004 9.497113969808561 11.959135220140604 -0.16921792589097956 0.24974719089529893 0.15359384620047742
Ni 9.335793539577612 5.949597684523572 12.777936434195697 0.692651077885362 -1.3632112374089556 1.0794866611269474
Ni 0.8445576997603118 2.9587285003768184 2.023548656290665 0.4635501024855049 0.420913755872217 -0.28340036017336995
Ni 3.2935506612902077 5.724846614566325 9.86684495191605 0.5474431417557346 1.1318978277388119 -0.032373274124382956
Ni 5.678467925740657 6.248436863520009 6.162347883115063 -0.05491850641475057 -0.23737221426971378 0.0755166422810764
Ni 5.493560833161963 3.038154692729748 8.992437924288076 1.2134581051108069 -0.5049173525783821 -0.31237077926379103
Ni 5.775637869633824 2.5162191561167497 13.177621449132518 -0.9479541656018835 0.9708606378864116 -0.20988506459303855
Ni 7.430621321381314 6.885136517049739 11.907620378998704 -0.48062814101371415 -0.07904445292867678 0.408065182044323
Ni 1.2946394564269095 0.9131263615342987 3.380695105103421 0.015777317438914765 -1.3563551337190707 -1.3398154841928345
Ni 8.256752817619072 1.6946311073229101 2.1722661616262533 0.2355935251027362 -0.6235642503900293 -0.027015609356895412
Ni 5.301819872102809 6.199580780511957 10.991029405071988 -1.5747482357831202 -0.4158278567088774 0.7075686184271426
Ni 5.059530721065749 5.27960746237699 8.442091818164656 0.5276438476416203 0.633075018093942 -0.3417484610949598
Ni 4.764505794244453 0.26397523135733886 12.984189315969239 0.18491476780094607 0.18262417199455647 -1.06687540012084
P 1.5236815600811893 5.704690909444748 5.471221281696973 0.0671142771499941 -0.4785607169617242 1.1787708381412667
Ni 1.8495757532807073 2.9762198381701714 4.374703244931015 -0.48192320567605385 1.156841385058027 0.10416978724139479
P 3.430611325848387 2.8504149569915738 8.578768252908134 -0.9257879139174894 0.7762111592962052 -0.7636394932787817
Ni 0.18953748253542713 5.1571867951381 3.6936460822821493 1.5598924017172102 -2.429528965254113 0.44385879470416456
P 9.407740806096934 4.848344552839211 1.4335100210368223 -0.8450329060556092 0.6630018875603615 -0.7572862973672443
P 3.3766976192453573 1.590318789258647 2.5960744518393826 0.8770634521285927 -0.23439204859546728 1.9322598732496075
P 5.687947464234756 4.984713416757782 1.3602511378994333 -0.08961142981124567 0.5775803274607473 -2.867254907587662
Ni 7.251734764098675 5.891430338852677 9.754482505057636 -0.8280579687641675 -2.5372921262737207 -1.0564261797630579
