# total energy = -340891.0703406133 ev
CRYSTAL
PRIMVEC
9.07457153915685 0.00000000000000 0.00000000000000
0.00000000000000 9.07457153915685 0.00000000000000
0.00000000000000 0.00000000000000 13.28155271930511
PRIMCOORD
 96 1
Ni 6.359768273801521 1.791175229734915 11.24255565319546 0.07617638735226236 0.8797942207961945 1.0004722901052576
Ni 4.596397531278882 0.4038592693011467 6.333507371208961 -0.22812138509540714 -0.508224305464428 -1.148340032455235
Ni 2.7462466610764147 1.4831751969438443 4.724792736604523 0.34152503223024405 0.3443977257923488 0.8346477061665432
Ni 3.252380888969582 4.081524490988384 4.789872841350044 1.1990534996497026 -0.3619902420631314 -0.22930692076307607
Ni 5.354804848108491 4.568475074636528 2.660361286150873 -0.909771226774259 -0.35500146945012406 0.04675808209114528
Ni 7.137631472022487 6.171997239403217 2.733755513345443 1.0602954329104772 0.44680887847142403 -1.9648491200395388
Ni 5.2998310936920525 4.414497744669854 11.705059341102784 0.05460611738065435 -1.1031984029215904 -1.1823819525312926
Ni 5.96686654964033 7.945005176906091 12.596410945973279 -1.1722741746733296 0.297672553821668 -1.1553231486412878
Ni 1.773625008367898 6.607640195538893 0.23823291184282808 0.7990397271549464 -0.9249119390704393 1.3524725108352127
Ni 2.976695405448391 1.797536504387593 0.45452623206257575 -1.4733380135647334 -0.68812850742466 1.2292716751042958
Ni 0.41349192699560827 0.2756283137204606 4.867078388593295 0.4817643115006865 -0.44320084940519155 0.04761965876049218
Ni 8.380693505899488 2.4418310840454125 1.3561130461780866 2.0761899711080756 -0.9238583009949444 0.15249829914345348
Ni 6.703667311622541 0.8799158298101469 4.771357993027849 1.1121797804845943 -0.4768938707822626 0.6678391610480047
Ni 0.7807870251725965 7.657559048663259 2.3915824590321835 0.6765438879108542 -1.5666885987034374 1.0236124756671467
Ni 7.798632337893688 4.104138323277219 3.746248111048926 -0.63610223495604 -0.565247259816691 0.5051724060119815
Ni 7.62721368141853 3.777707835679317 12.637663040757316 0.44835179747851167 -0.7107845542612791 -0.09710979507081986
Ni 7.949669506679951 8.676333972246983 7.031347367722118 0.43715258632858256 0.5914696838483297 -0.23736990027686858
Ni 6.672704873512787 1.0721697025514225 0.3576125303390319 1.0468228523453391 -1.9784916505236376 -0.3956506104300541
Ni 1.8898793444241841 6.365349135301375 9.249631826512282 0.23275477010236045 0.11189646646169116 -0.6700829627768589
Ni 9.038926627449623 4.940296569099901 1.5276841554551917 0.3976151903555926 -0.19087432781849065 -0.20410548179678395
Ni 6.402473207489827 1.896050053074428 7.0485863312851595 0.12250226700199549 0.718666271002201 -0.290278575350442
Ni 3.35266397910759 4.356701798503084 0.4909978425569806 -0.2431978198125553 -0.2605177991482417 0.44815999318267974
Ni 6.230546375008179 5.771091743139797 4.834073264428879 -0.5761420523523239 0.16717904108407983 0.4107455570899636
Ni 5.540679297053999 3.1102549494399936 9.150856930164966 0.19945949838434038 -1.6390337852350674 -0.19760881832884675
P 0.2804087980100907 5.573601842617359 12.590274720694904 -1.4287836239931264 -0.7063666276992415 -0.7997917748296226
P 4.140944785461615 5.924061795665034 12.56324610934968 -1.4277729233404248 1.930760662996262 0.6704444598813357
P 2.3235440439631634 8.78180771730843 1.4130904659915444 1.711242960409466 -0.5169699128675419 -0.43957122307240426
P 6.302988679647733 7.9618475816926395 5.846672034619432 0.4709926748064792 -0.6858839343648575 -0.08228507135316152
P 4.562776243706597 0.8719329292224711 12.700843837678576 1.5006356729384218 0.552732672289448 -0.7409752189120464
P 4.003083894557931 6.178567229201418 8.067493743613433 -0.5970158104775395 0.009058253547526336 1.2588151930893676
P 4.792281232637948 1.1909649186401619 3.9011111191983416 -0.8839414101953488 -0.2874848146553887 -0.3257047773685358
P 0.3029654604981955 5.881492980549896 3.7517463939477245 -0.3808873360779505 -0.3769820874862733 -0.32810104551485425
Ni 1.3701967812151137 1.1062900915586533 2.750782131934344 -0.29403984216508716 1.077674547618873 -0.6839730904953897
Ni 2.324868931408657 6.205355364400712 4.676926186621719 -1.274401991784031 1.5568034783792415 1.5430372778330843
Ni 5.90031364193314 5.520243361935838 9.394041835699614 0.06200986604389321 0.7610370226589279 -0.18985308564282785
Ni 8.801862520421723 2.1764724629418355 10.261659806152688 -0.3589478556923818 0.3610978121558491 -0.2151727953545391
Ni 2.4370941576991956 4.955623520438522 7.019407046483895 0.6001980648602631 0.7048026256462313 -0.03740183768722591
Ni 0.5677469388515435 8.678729659134724 8.810172105585 -0.544748625642707 0.009226403694274434 1.435245063347754
Ni 1.6194117395410672 1.2717104562429122 11.54241307293967 0.25428570219560076 -0.8206591051969351 0.004217637625773382
Ni 4.092813257989713 6.842163422534338 1.6481082571361647 -0.008190506230592346 0.6472777919568852 -0.33707419554774204
Ni 5.691807211555708 7.772806107278108 8.057373781427032 -1.0298006067557297 0.7271534825376057 0.4407732138003055
Ni 5.484289909476623 2.9955069922600903 5.105614391125707 -1.266848090696173 0.05765827394341683 -1.1498425851426908
Ni 0.996778162159913 7.096088083491875 6.786023585674436 -0.6057801869337309 0.38486457555814363 -0.07194795109321157
Ni 5.25396820910627 4.668404256484302 7.03185191389999 -1.5042871536480802 -0.9409895613585924 0.36968838203833754
Ni 8.006639666836174 6.943199702110538 9.531758440915743 0.3178235748482462 0.21215406313287333 -1.304911473226798
Ni 4.4515310711428615 0.4289903877364194 10.497062359130792 -0.5910179410228918 -1.0472771662739382 -0.013295945777957747
Ni 8.123211612896517 7.612013774081532 4.390098036701066 -0.26662082672218596 -0.6262883341894117 0.8109508767702356
Ni 7.137531651735498 6.127268676260493 7.230198453976227 1.5875626139389691 0.4928982166303189 -0.8776041551234112
Ni 2.1841495504684625 5.483173737176653 2.447205952771206 0.20220415100901304 -0.9525685244454434 -0.02085087530708022
Ni 2.3452322699544617 5.033746506864919 11.350361563143837 0.12069272459708247 1.1897756738922027 1.2692708412050526
Ni 0.9644908366046664 3.4953888403591136 3.8883078062062393 0.8567324538807244 -0.35758259991373903 -0.4897856391432662
Ni 3.769658690719366 2.8110572510470653 2.7100472877283446 -0.8353467891160969 -0.21116573107767503 -0.323167869879295
Ni 1.089728998489984 3.3346418800202597 8.097470683253455 -1.0681077298660444 -0.2918472053891425 0.5522513617776554
Ni 3.696962298076566 2.5848554061579034 7.066596633429481 -0.2603249664111452 1.0201713111960817 -0.6279250984618864
Ni 4.362346182003749 6.804630994626384 6.010141366421628 -0.5072295456513265 0.8999976923272629 -0.4264639962664849
Ni 0.7628030392857533 7.426701948571782 11.220521686028315 -0.38923185138790384 -1.4023300577872881 0.5304622909270219
P 0.26676699460727943 5.386175641937745 8.07649934841417 -0.27153394775308715 1.5131428042664972 0.11530009282660143
P 8.496829872525696 1.7595321987593262 7.988800874094042 0.03633174455149872 -1.1335425624310866 0.08434915297104183
P 1.7567553798667166 3.2581976893295916 10.43591335877834 0.2402305096541153 -0.6044303577740558 -0.2766008207530333
P 4.188522764069305 5.97379952230031 3.712658584477047 -0.034135251120812185 0.9119841752651778 0.3515469352426203
P 7.073274610629061 3.8756043135011273 10.474735283302763 -0.3300455708357348 -0.24280392680824633 -0.17052121808343537
P 6.023392055790873 7.769992990099321 10.234684734779577 1.4724934061762511 0.016797016952680748 0.7008991768267671
P 2.350359402877091 8.53999760936277 5.738055765432132 0.5490709071671447 -0.6951535325922414 -0.46662539897671895
P 7.018237334211812 4.033166099227869 1.436214289201179 -0.6897184776195993 1.0323598828424736 0.47021260210734506
Ni 5.312154361849452 2.8317744978831043 0.42902033382251614 -0.9891995454049157 1.4380349673880655 -0.14667655025535384
Ni 1.3006674140413361 0.9141541882474561 7.054178082270865 0.34623837854551337 1.2541321857914014 -0.8007060591137759
Ni 6.8785343052845995 0.9235917426537115 9.087025486463965 -0.644657837835535 -1.7835524086071544 1.0039571633300646
Ni 2.551578952304309 1.7563923970049373 9.084701488691426 -0.09257179799115026 -1.3192026930384892 1.2513916469317867
Ni 6.3051212039606845 2.291501731839617 2.6309560445181526 0.4231974097000712 -0.8294826170258359 0.6238301024569063
Ni 4.05238604175907 6.7071247233809865 10.551077838792134 -0.07881768162985135 0.8521029255285132 -0.43427089390541346
Ni 8.133202716166986 7.162123740621029 0.5238042336045714 -0.30016420989527015 -1.0053270470943976 -0.3292518712898459
Ni 7.6179939167293425 3.948945000723585 8.112810338992238 0.9369835255229928 -0.7712864683010782 0.64264852071499
Ni 2.9210773564522956 8.217323994384282 12.475986844292306 1.6139580732133625 1.2211696148224518 -0.6074974267351537
Ni 0.010178946901439095 4.761518435102173 10.503463561898267 0.5318491439722196 -0.29147979474739477 -0.8743766493250489
Ni 8.666533434978948 2.320867045357543 5.800545080001704 -0.4951826417891213 1.1723531075403808 0.1692860601247536
Ni 3.5967699536540034 2.777535783761769 11.660101191299985 0.3001552110342056 -0.11607708020194202 -0.8231818716187886
Ni 1.0478407762406814 3.36999641075754 12.87382241300223 0.08456204031279631 0.11201987941343287 0.0068427339534462795
Ni 2.9644628830064375 8.374822258110212 7.92860924103953 0.6124483429825258 -0.3550528915133498 0.6541020139675703
Ni 5.800538727801623 7.991775518646321 3.6242305146047427 -1.4971240602407379 0.016120045490314174 -0.25478706731205153
Ni 3.206390960382176 8.465350183837907 3.603431596624803 0.04230775962927552 -0.6424163500995259 -0.05515144836116308
Ni 3.673931035496685 4.309450504470996 9.285293077767765 -1.658888872287782 0.5264583119739514 0.12357107458614204
Ni 7.284394517611304 5.9679010507964 11.59662819317499 0.10210724828541125 0.9153610621572107 0.06791851821884431
Ni 0.5797535044620402 8.724601618292052 0.06318987149280644 0.630541710149127 0.9531143696465844 0.04059926157860105
Ni 4.675182961428025 0.4597196093574796 1.7818402179871125 -0.27273748114288515 -0.6914236332361641 -0.3342079297435406
Ni 5.960087844696606 5.661597962884147 0.3823706838838267 0.41582425716445165 0.369679383177273 0.884114188327787
Ni 7.997120441286018 8.8205470632318 11.171260374399125 -0.8697103541976311 0.6012912979244418 0.2890752990709602
Ni 0.23257219411338376 4.870413293635889 5.809763029776583 -0.7442163515571635 0.05778348666737145 0.24195392010312525
Ni 8.105271184953088 8.986339485349383 2.268449597745184 -1.7650036990706892 1.4379269810552913 0.024299495977312992
P 8.382281555919771 1.758842531321946 3.571196903584515 -0.13843539329248417 0.011692091625947606 -0.012167231490153238
P 1.6416353652534899 3.2562738801621625 1.828962653103269 0.9988990320808667 0.16122359483159332 -1.2519508618693664
P 4.492448314236905 1.1255191086613987 8.424010973167047 1.8937313781571066 -0.0011377131488690083 -0.5548576890522509
P 8.718567028214975 1.3733728812556807 12.577789925164014 -1.2141211926161026 1.3234432134823981 -0.43952905698055916
P 6.248641070667865 7.823333321637752 1.4173673115604564 0.168221109195349 0.09003386206064494 0.9174205157894008
P 1.7476717337506957 3.039482365964623 5.935685414356355 0.10554918408742467 -0.06359135159840015 0.6216428649976005
P 7.01610480989886 4.094800589157953 6.006276506400836 1.6932362394194 -0.04186424433395371 -0.3969467035336583
P 2.228587727321763 8.534253405575116 10.229306236225167 1.2041869642215262 0.3680133083287597 -0.4019762955377658
