# total energy = -381164.080154141 ev
CRYSTAL
PRIMVEC
9.28750088058869 0.00000000000000 0.00000000000000

0.00000000000000 9.28750088058869 0.00000000000000

0.00000000000000 0.00000000000000 13.59319633372631

PRIMCOORD
 96 1
Ni 6.7732628916124344 6.445887775517768 1.2180009351366132 0.20834908756448633 0.5389137641284848 -1.1881414807228892
Ni 5.929567742919659 2.0078926628799145 1.097140829580055 -2.030706127743664 0.8891975163879654 -3.452357254457067
Ni 8.01644131269818 1.7370319892215174 4.838620747630605 0.22606038880132037 1.6983211101414752 -2.8670417631355916
Ni 8.937687093164637 3.7117032616997006 6.0814462436855266 1.8281160541501418 -1.4439083954497067 2.841602754237196
Ni 7.600537738870974 5.480972166236961 5.347848844609268 0.14122375467089873 1.4568878384285104 0.06164091274024869
Ni 1.4403427758071197 5.9174382668602075 12.020123167400829 0.5945010144754858 0.07151754842401231 2.747980917714977
Ni 2.2064408552221586 2.399277234565503 12.734663543562547 -1.9052609760632608 0.007672171833277108 -3.3847619239055966
Ni 8.339172678387238 7.755156052376152 12.683838624123231 -0.07599126792464977 -0.37431405373580695 0.537962198848493
Ni 7.150920537099042 7.8773331255477395 5.320390348460898 0.31673702665228676 -0.927164482550042 -0.7621654798364164
Ni 8.964657995520417 0.057573217528747875 11.096874073009394 -0.38946607888589696 -0.03303970406378826 -0.4892608769880477
Ni 3.044591365930636 0.3752633277774744 -0.11284220610623226 0.5892122552727207 -1.2593597527389278 0.4162585164883928
Ni 2.7036657861524014 8.774821478939097 5.065219049922894 -0.34121187186519947 -0.8838262247737231 0.7514563209490284
Ni 7.526302744886899 7.461801051752982 9.593888032980683 0.36101476552373957 -1.5252413873022441 1.9881001201476793
Ni 6.878620300814904 1.982955723201791 10.498528690746758 -0.6178689997774649 -0.8616494315663676 -0.13002274374875672
Ni 5.114023009185689 -0.03636335192616657 5.5743524143932826 0.5401077844365859 1.4787607272422016 -0.6275358334432676
Ni 3.6097265027925136 6.7179929742848685 11.58877076472424 0.33461622092555277 0.4504809280063725 0.037507252916838624
Ni 7.19806389121679 4.071621780636879 0.0778608343007751 0.4009568531343159 0.315825827691927 -1.1196791741854328
Ni 5.148786124722083 3.1860957282903724 3.8032808059485657 -3.164803791347272 0.0017576061210550376 1.0306902084495346
Ni 4.606646839868783 7.901759252681247 3.687494462085177 0.2315926314734592 -0.2549590741135415 -0.3940722101993407
Ni 3.799888081902227 1.2827060245382962 8.76281274039019 -0.4455919753451874 0.362065318275441 -0.3392424068436544
Ni 7.208177979600208 3.642232755631781 3.7134985356065093 2.535561773846175 1.2590612476619027 -0.008908615343539497
Ni 6.239677395006268 0.7304062137975235 12.51911643848553 -0.35664491859081804 -1.5803887218983492 -0.17966071849085832
Ni 3.3277486906630873 6.069372492630942 4.1702698992533245 -0.23081075900211218 -0.32464831107956343 0.15534502456362922
Ni 0.6468670015007688 0.8618206352759508 0.2551796572887345 0.6266305480201788 -1.0765728299142623 1.1374982046447248
P 2.2525254342474286 1.1899703289382721 2.1272676970567583 -0.00034092827918650963 0.5366632775314112 -0.41883784717979483
Ni 4.69216614733849 9.380097194307064 1.8388062806110197 -0.4495859269959289 0.1840627042132959 -0.30431911260390815
P 7.756261264972687 0.17882618436962025 9.184106779688229 1.834734073687292 2.1023347478242433 -0.8931490448365457
Ni 1.9245744931024669 5.117830884518289 1.2258971683263118 -0.32962519546886454 0.4091437598204824 -1.3713750041666706
P 8.919316416560045 5.647905705817814 -0.273229915115339 -0.2239780523509949 0.5250573178613667 0.8343399451181372
P 1.6158579661375403 5.430596761836908 9.269037259606504 -0.18737557063661278 0.8705673028812879 -0.39884417766668734
P 7.0940160196287 6.0601407168245895 8.035903270648092 -0.8871902561499495 -0.86985587863656 -0.8043518833964793
Ni 6.800261656470649 3.6396972679103183 6.527384666386136 -1.6637852811481348 0.6244672218202728 -1.218839166917062
Ni 5.667112257495416 5.731131000587149 3.732106972231868 0.7596409136423499 0.7321841029829778 0.39861097860995864
Ni 5.014618888003209 4.719833612255112 8.133108111638474 4.038253300872362 0.8493749850743887 0.7274095644124698
Ni 0.2779953317815756 0.6983039672435443 6.28038265356168 0.0953871559527583 -1.1428301583805995 2.7216083412587193
Ni 5.3794319198678995 6.322215414715573 5.919605969549545 0.0926090789869889 1.6441952748313489 1.6903836004619535
Ni 5.157117012949746 6.397369871279959 9.995607735568996 0.9714345081120108 0.24340453650672275 -1.4739957017533905
Ni 2.2109174306131663 1.7287103884946649 6.795225044780725 0.049102156843289634 -0.5437296974598893 -0.8595280143479906
Ni 9.258078008649267 5.636398492312713 7.787651160214446 -0.5663273802547472 -0.3570408684776561 0.7171719458448617
Ni 2.9781671601287965 7.189277915449376 0.1801626557363547 0.3489876591558764 -0.12341680839646489 1.7881441417428945
Ni 1.2421196459932682 6.702129922899306 3.4733878483839784 -1.5893446455400564 -1.1479831633364488 0.41175600063234896
Ni 6.238284269884586 8.182232489679256 7.626028213597446 -0.9282335472445046 -1.7543626744170753 -1.7330153190895508
Ni 8.737253538157715 5.07335304313336 2.106537995246117 -0.34093624960630964 -0.5056732569078001 -1.5612424879872016
Ni 7.475918052986034 3.97930402257336 9.119267950274866 0.3587871617448014 1.0695040959929387 0.10069468420860075
Ni 8.609782589523732 2.008607800442378 7.787460766447815 -0.574292657848411 0.23860840066966002 1.597002162085314
Ni 8.153385512159609 1.704098511344934 12.814618709296251 -0.18904370236765505 1.0719970376181218 -0.8083412070615303
Ni 0.8669399057230949 7.45227207592067 10.022794107943596 0.5028586702771404 0.00544456805433901 -1.077760165354144
Ni 7.928358655004578 7.132224797966057 2.9680474992448915 0.5176895646423858 -0.28586579099472703 1.8709897135852165
Ni 0.32862614245393706 8.1650506131785 5.088314278190153 -0.40472686169970945 -1.341681847977612 -0.6691427103507767
Ni 5.842868922846927 4.480058203811866 1.9564009008823529 -0.7194298886411028 -1.5715762658130419 -1.2427509405376533
Ni 8.951692644387956 5.527604707810092 10.707945116538292 -1.2437490427848645 -0.7905818261955804 -1.159112954701023
Ni 4.901998653166365 5.4329279245405235 13.55380346886054 0.5317095330705618 1.2251625380319286 0.825459869019688
Ni 0.9212151317137788 1.2901453126880829 4.411182097795864 2.2073511993366504 1.2263321328599976 -2.8710663109139523
Ni 5.6467354807156 -0.03771746954444233 9.382119083233667 -1.0992044512708488 0.6262813922108762 2.9433947852750344
Ni 0.5083615731529758 7.21481854268023 1.362744777779302 -0.3144862829448971 0.40484796065860595 -1.5913786452509497
Ni 9.35706419229524 2.3029472761515373 10.350484999065843 -1.093494288259949 -0.26164471366383324 -0.11739374213083655
P 5.031447839473139 2.8673858504525738 9.687055597368428 0.39355850378771573 0.47371752993680993 1.306829516185117
Ni 4.429543486899645 1.8977893407629105 12.117667930920902 -0.39176773043588015 0.7502790128114756 -0.9525602969153272
P 6.455927563894696 1.7597492162057595 2.9709015482441794 0.6349629791452742 -0.37880319985541216 1.984916065992743
Ni 2.466834515466312 0.12289499698429594 10.848471505062605 0.6116710984968692 1.2277799210501177 -0.23002168744191354
P 2.13408193640195 2.0582402047775337 9.957315369724338 0.01927967416521841 0.5978323928415639 -0.0523502314669421
P 4.16045672589619 6.1250231974917675 1.8563819471461709 -0.3733766295232021 0.16370316672033744 1.744500436911015
P 3.2147105182897384 4.455873551699451 12.73528859236714 -1.2436112316554195 -0.6057891857947955 -0.7430794097392428
Ni 1.5760053001565988 7.652176243381353 7.358187835202857 0.7327942257631509 1.1966896274032164 -0.18498958690293948
Ni 1.4821922544624737 8.08705418136588 12.226087429140833 -1.0004098122984384 1.0646948475297535 1.8967747929691205
Ni 0.027314539885795693 4.402554009542242 4.180220527622465 2.662953507729988 0.8471214131535219 -2.4363904682606368
Ni 8.63917752959124 7.97963494698332 7.4043225667325085 -0.7259697466421497 0.3931288724494649 -0.023699143389152733
Ni 3.3868171958224416 2.6736671585321634 0.816771612591132 1.7668163267993957 0.4429169996161856 2.6102307234149755
Ni 9.071436392347005 9.169335938398067 2.8637600101358736 0.3644603008701788 0.3402718765494333 -0.614884206117528
Ni 3.3695981693184414 8.155326599829154 8.990948124066737 0.39012145308170876 -0.2400731581406446 -0.042066590152746906
Ni 6.862441474401762 5.939876868820113 11.646161018487007 0.7424803427026633 0.6156642788166622 1.0025600258722218
Ni 4.023466088930707 4.594600951316632 5.93462664461153 -0.19402007253632392 -1.3321679949499057 -2.3748919946355227
Ni 2.425700174373422 8.441771699848777 2.675888728726207 0.3442709704064974 0.49316818246225397 -0.7822841049631624
Ni 1.2732884987157198 3.3944422339884524 8.257322862488044 -2.3527931058539546 0.4373063382976275 1.1057257973291343
Ni 1.216486143754303 5.861156011944218 5.8487850608636744 0.1567694157149816 0.3154843851921083 -0.7416370208657614
Ni 8.116003321394452 2.1161942098395414 1.6161635249142294 1.5127576530129367 0.18142963746582302 0.3825487829407734
Ni 2.9371999940505087 4.022528051348774 2.8652283640141274 1.092911933393918 -0.19053854174562668 2.0365317332865054
Ni 3.523176282732762 4.326396502890244 9.974279918706111 0.29181815192342 1.007377501865523 -0.7916598897511075
Ni 6.1667890886398204 2.244380296035989 8.052881750881081 -0.4858788478896922 -2.4755745946592653 0.44382382770117107
Ni 0.33115698642499436 3.4476874761391723 13.533018970795114 -0.3706679723427874 1.2249686768535677 0.09331253281191672
Ni 3.390680796159909 1.75167837800081 4.616099658194442 -0.015372368691012234 0.520151395919317 -0.2611027251174342
Ni 3.305152201189391 3.497886418023812 7.68137893218207 0.892075866377025 -1.2700707113985288 0.1922323845082818
Ni 1.0810929569283496 0.36523561315160097 8.840946627214816 -0.460811106287787 0.3741453893684266 -0.6123498697314487
Ni 5.900739340401635 7.793708468243523 13.02523136519227 -1.5083402406715314 -0.7343710833319674 -0.6874001138990679
Ni 6.638380517331098 9.035633076719755 3.3579274957990632 -0.11066156561332555 -0.006377621391569661 0.409296740458579
Ni 7.289313586687018 0.6167327763686871 6.36043348055374 -1.7875062510485795 -0.7379346323135098 2.6868884212790305
Ni 7.154143299880534 9.053687978296766 0.9356794854771716 0.8455273291935246 0.13785766641214323 0.6834565558702874
Ni 1.572671087365371 4.059891667112309 10.964788165222316 -0.7459752432297991 -2.4644440319637426 0.3419544064581788
P 3.9407608942068 8.120907121822775 6.800622011502124 -1.1557689779294547 -1.597431793423565 1.3552973818785174
Ni 0.94634060765837 2.958421933404144 2.3261493106781255 -0.022347257346948608 -0.447198657710675 -0.09827733301635977
P 4.7195085497267195 2.1930111290491356 6.3927446958759715 -0.3297115845350838 0.14209792974573593 -0.4558427065389181
Ni 5.189381790767922 4.467724402734567 11.60327505474112 -0.22781516670889798 -2.309501642155171 -1.3244801393873447
P 1.9596440961656305 3.9452188945961852 5.334948505982485 0.4595960029337633 -1.219032770985107 -0.7781441146528598
P 4.450700413747602 8.822048420564146 11.458833055874797 0.9217137438481158 -0.18183998553036426 0.18893623025551332
P 7.9189875666860585 3.563298286237229 11.450405577638696 0.15887077832870058 1.310308218762337 0.7039335927777167
Ni 3.2749492485513065 6.098637407687093 7.696317877236916 -0.37232299144770714 0.05427418796253233 0.20264869474559935
