# total energy = -340895.2565158251 ev
CRYSTAL
PRIMVEC
9.06391646216470 0.00000000000000 0.00000000000000
0.00000000000000 9.06391646216470 0.00000000000000
0.00000000000000 0.00000000000000 13.26595793710086
PRIMCOORD
 96 1
Ni 6.1745756234468265 2.24255797995191 11.596848891473572 0.6122529391422682 -1.127569375566787 -0.08169526028796253
Ni 4.691845768835915 0.2897969786505741 6.111136365042028 -0.1689793275176122 0.27586959901396363 -0.6052428263730222
Ni 2.8119169626719414 1.5812546276331783 4.8388643082449105 -0.07843818680324556 -0.3313408926083906 0.5542807335028583
Ni 3.603477859894353 4.331990153515763 5.026378614066867 -0.1410913428580925 0.30816779692603696 -0.504109511965106
Ni 5.286674357093441 4.619035327098301 2.6450194414605135 -1.2150431902097398 -0.7969059686413954 0.2663403193672897
Ni 7.272533156110335 5.997856442249481 2.693970935633592 0.37296628145866084 0.5182829752520105 -0.8842005773940063
Ni 5.176964711034423 4.479976719213514 11.81480798663357 -1.486663527029046 0.8499228871580589 -0.324603316774241
Ni 5.907344171467479 7.82936580614253 12.445843295987208 -2.718529959443712 -0.1260395907312926 0.6689128537281576
Ni 1.79816321486371 6.45466877302678 0.49532400585497294 0.6293294350085806 0.35535679590701386 -0.5462087551280013
Ni 2.573971025102433 1.449610303495606 0.4894406176149772 0.3830864006117983 1.2908951043430479 -0.29469573058153115
Ni 0.4366197374618434 0.08687764024088603 4.7445297838489715 0.6651598144436287 0.1918346348492309 0.7990476975747464
Ni 8.505316447624462 2.118844582805551 1.271492559972839 0.8194959381267692 0.5808715966175093 0.005726360960815945
Ni 6.971910235518841 0.6560635021545945 4.791133723632651 -0.45649191008714285 -0.12145068580902954 -0.4384877602002384
Ni 0.7250770692446447 7.490701627742899 2.514390275977817 0.4339998996322139 -0.5153773715694414 0.06905366026455205
Ni 7.759192964124279 3.9671403201702873 3.8028196704372617 -0.7584934303014679 -1.6256995300200066 0.0804737291760356
Ni 7.612312196247017 4.038119850762502 12.522308308882373 0.864459390211337 -0.4534716352035803 0.4725325084897733
Ni 8.028989504490498 8.729032036192596 7.080387188925511 -0.628842210959517 0.9728355022245956 -0.1819060628816093
Ni 6.61578895382198 0.7930582562383529 0.30385239406231557 0.38506023650871746 -0.3414036761610314 0.6755586411794495
Ni 2.0137212785265945 6.330275582138317 9.20605780729344 -0.45745144578693475 0.9010292189155708 0.025784308052955594
Ni 9.114311937467434 4.790651523271586 1.1752627706239147 -0.14067122460153836 -0.24887867224741655 0.7438810797049318
Ni 6.441109153850947 1.8760494498757008 7.029405377442681 -0.49447173176502585 0.64113696916647 0.00802595562827005
Ni 3.1722892212360922 4.160455532591531 0.3270215775765308 -0.16387517352182746 0.8107194774857198 0.3142929359871684
Ni 5.892860032802384 5.631311656507026 4.892737509110821 0.10476036963754215 1.4167662878172762 -0.7208900181263972
Ni 5.3543002385579435 2.8231471552914984 9.361136887700477 -0.48384150574468926 0.1767653992209343 -0.4713017214064657
P 0.33139582370905574 5.683510751984049 12.319591095812005 -0.6893220135121289 -0.9742727488917542 0.7624914957172675
P 4.066381142600904 6.240715022595261 12.782599519950667 -0.16681163044233208 -0.7312590200655471 -0.8902593819935765
P 2.368265438741774 8.487795896911303 1.4221502618812307 -0.36635520390004644 -0.10202882963899203 0.3290731796201365
P 6.387813324469997 7.800288761813603 5.702889405592292 0.35064190692984776 -0.6102837312310393 0.4672242089029825
P 4.61909877451423 1.1010755199606255 12.727758292796 -0.00471180365337253 -0.05801642861378395 -0.8786899319884222
P 4.08557851787792 6.14830839325193 8.285970573230575 -0.8241768885422065 0.9523592366481146 -0.25057765721639425
P 4.716753411546604 0.8776327552809907 3.6063375255694705 -0.2546425713143873 0.6833920211809392 0.7375165709394846
P 0.24845282964746743 5.441196006631952 3.4397835267957193 0.4279184693248243 1.5280456895202588 -0.20556535417176214
Ni 1.4881138210483744 1.0867907874598808 2.7610575140626916 -0.00045868480397340353 -0.15202650171335752 -1.032510292377409
Ni 1.6432336890799368 6.760657532222615 4.7935211592549205 0.6487739168864375 -0.5714089085427126 0.06475708977172719
Ni 6.02884597297286 5.7478554956533285 9.308045902833813 0.2898936812071975 -0.45871925675576486 -0.006238010489911838
Ni 8.588414434659251 2.5299566462803416 10.213911851811867 -0.7041961024104839 -0.9327455761822453 0.39179138458496393
Ni 2.4219600804514254 5.111405402545918 7.113034509987966 -0.5009108025221503 0.7551440542132607 -0.44414238738285444
Ni 0.5314310238689107 -0.15206895371699963 9.098165476504981 0.38221916751549656 0.788527514769713 0.0028045593283306538
Ni 1.2134408935721293 1.131820324936847 11.178122231695562 0.8999550120147857 -0.5179736715417079 0.301189565835991
Ni 3.939459118991814 6.844281226417963 1.6662043728214575 0.8572795846334461 0.19701155106448007 -0.5623437130166509
Ni 5.7042489930765 7.8236827304585415 7.905966777786117 -0.38114084684965327 0.4998437947102166 0.20226020105792905
Ni 5.190053006549064 2.5377878701893795 4.929842464338168 0.28358830781446 0.5729896227662712 0.1850572069160813
Ni 0.856552804534175 7.417166072680373 6.999344898166845 0.3460774274876169 -0.12911514433282278 0.1029971070895323
Ni 5.215169119340667 4.770094560510361 7.119189815724805 0.17325327230261772 -0.8139801505148626 0.0747090587781165
Ni 8.301106407496432 6.9610516634783 9.39411594810908 0.16179412262308265 0.6129597354013057 -0.6137706613383752
Ni 4.793896405400561 0.4118018275251121 10.361004715336666 -1.1236386730538133 0.1690466904204379 0.6465537693066672
Ni 8.311575231124834 7.242042140797832 4.467523804249827 -1.235320195291221 -0.4843685818927529 0.9545418461217303
Ni 7.502729445019858 6.2158617633839395 6.908937768816955 -0.327010897774469 -0.5301154491105645 -0.3260037966661934
Ni 2.366679253343532 5.313512614031706 2.822823573470257 -1.1739263655647716 -0.9544076345367113 -1.3246315773635444
Ni 2.4063520161327188 5.350429946186232 11.435720553153466 0.2540998114370398 -0.6464645520269705 0.4012443024677477
Ni 1.1758075120092542 3.304794617446996 3.8137108725774236 -0.21747059024978033 -0.018864183894354607 0.24099438440333334
Ni 3.518014190637043 2.7263354624993332 2.8055377781960376 0.828904890145495 0.18187443831272548 -0.3617966379950866
Ni 1.0317093665163373 3.385943862421086 8.307554477738202 -0.1922192718821593 0.2475828362541284 -0.6750616469383729
Ni 3.6596288229921403 2.8822529551882976 7.225768785003519 0.25864989270156746 -0.38157742016643964 -0.8267621327708794
Ni 4.049594769129217 7.0032260672384306 6.0282767590128055 -0.1263373244773695 -0.5861932659407388 -0.46007037146702057
Ni 1.0382263225239738 7.418797577661422 11.316353303998293 -0.433162491332583 0.951462178755142 -0.36088621036567525
P 0.2196567667319437 5.588747504334756 7.993256826230545 0.7963670654187898 -0.9078428994032947 0.097477977043516
P 8.426351606541667 1.764953024582791 7.999597942256892 0.711258151463588 -0.8341262864454345 0.7492256318462968
P 1.7459731833032484 3.3010693477402664 10.421338675927533 -0.04580188882546306 -0.1603548190733948 0.18625714076145342
P 4.038382704342783 6.131186654867471 3.725625012258905 0.520133141086872 0.43388882797564626 1.8212851472712377
P 6.7704556260254725 4.027351917887575 10.487562369499988 1.3832843540097466 0.6834311019489907 -0.970585015627522
P 6.3917923838404445 7.897426755601979 10.070798954049174 -0.3254749207459169 -0.8925759459418949 0.33524408431753877
P 2.342360765209333 8.646496011984611 5.8148405582169405 0.5636071531101067 -0.18186004013502227 0.2749743408932039
P 7.008891015089296 3.830683056338619 1.5707558930801246 0.30478859604115893 0.5204758691382714 -0.8335799270236612
Ni 5.172876884665238 2.9845483175001015 0.6184301205917193 0.06283467593803373 -0.32589221078899355 -0.27141850522114547
Ni 1.435425274077037 1.1930652091421332 7.012783060860756 -0.2103368074184765 0.3044273560469983 0.14270188187832197
Ni 6.88702665692146 0.8303689623716428 9.305565108870962 0.6760386661396615 -0.3665128125238333 -0.328608324168576
Ni 2.714461731803918 1.705004280445783 9.108632487350071 -0.06894927347620383 -1.1010253065296713 1.1254320175088102
Ni 6.295361375543857 2.0206189190298094 2.577204124139879 0.7078930916460969 -0.48416675029459205 0.6477357054299102
Ni 4.260222062182708 7.050294985941709 10.39326772633692 -0.41314953854576586 -0.23870096038346633 0.33453137452123033
Ni 8.234296278522455 7.192235919293015 0.4078363640295056 0.24329603595331642 -0.06868882072596558 0.019661482984669364
Ni 7.640301570588577 3.9526652454217532 8.309026457787771 -0.5885512246499541 0.09662874166934325 -0.7387298745212955
Ni 3.2190590306928444 8.393667123421308 12.360861827090964 0.11902562130730468 -0.21667097716662037 0.3007702189103852
Ni -0.014932802534883646 4.811625426194633 10.277575895347386 0.5465229439343103 0.6444256672200708 0.27691732355218757
Ni 8.58574057927364 2.3284567172041664 5.871022338631037 0.20173363913049772 1.0460731186635082 -0.7000257730828784
Ni 3.479800718414239 2.580551428525999 11.562224730209078 0.21109579707168807 0.3776960828341624 -0.12623422324060196
Ni 1.011886580996586 3.181842589291793 12.637257805105527 -0.2592898402784115 0.14809682764164817 -0.25551391817574703
Ni 3.1288549330739297 8.386715099418725 7.996215288596182 0.17408528128560985 -0.05986659444864529 0.029234728495401263
Ni 5.649430425713236 7.888399094706838 3.4375148284804045 -0.14657833411459273 0.03425763563128938 1.094657969550747
Ni 3.1235706697186414 8.284655398937517 3.716033575753646 0.5011650846248015 0.34311603086644776 -0.5825672391523773
Ni 3.45770288983758 4.2850390657277835 9.294515288190977 0.08055111938119029 -0.1507250092931146 0.5478565751440694
Ni 7.359120751021257 6.279907397806694 11.490110397263377 -0.15946521737958988 -1.8909882681943306 -0.14182950657569768
Ni 0.7706966676897572 9.052006575024466 0.038027661933295494 -0.8967845847066039 -0.7855522341914729 0.3751262652244572
Ni 4.440666513086782 0.2552969930429701 1.4632215869958398 0.7452797598246712 -0.5445917883498684 0.8384321129096398
Ni 6.138945367444017 5.64128196472455 0.47750525228694396 -0.6062746100716462 -0.03221489416964775 -0.19046063731983973
Ni 7.8508744801427 -0.5427763282287977 11.514321024790496 1.8772254100822834 2.08590385596173 -0.6469905997337696
Ni 0.30287983581527883 4.833986108351572 5.485526716142036 -0.6148386975915734 0.32819694766277024 2.0908347176044444
Ni 7.966756653380021 8.907210507956323 2.297000394777876 -0.48413332595349523 0.601501614163035 0.4288947171951646
P 8.603125171238378 1.7086117192372148 3.597860044409606 -1.0724811763433917 -0.331069641224875 -0.10486012844020005
P 1.700943645826282 3.225140918705535 1.6984800733048975 0.17124498362333732 -0.4687506728498379 -1.5257985453572946
P 4.645293493376635 1.0872077276217047 8.211972758423418 0.6424790850166612 -0.08803740045590645 -0.7308674410540832
P 8.350250963092268 1.385265559826326 12.372084768577272 0.1537735663114513 1.4252473287050937 -0.37791591215445236
P 6.307371064987694 7.585229213561595 1.4365038801478418 0.4472032856963653 1.0067342118545695 -0.8406561171441522
P 1.8328326957110117 3.3146561586657843 5.99982149935999 0.18313067931732976 -1.1502943279681286 0.14236275337134838
P 6.758971643742196 3.955465995639222 5.819550169262238 1.1335978411490542 -1.3753177908645022 0.8932120368639972
P 2.5464892300883095 8.549811214024306 10.135709286111883 -0.584430003392729 0.4869908500069484 0.33735033202726417
