# total energy = -340860.50516552327 ev
CRYSTAL
PRIMVEC
9.30242632889855 0.00000000000000 0.00000000000000
0.00000000000000 9.30242632889855 0.00000000000000
0.00000000000000 0.00000000000000 13.61504123600598
PRIMCOORD
 96 1
Ni 1.877452876364155 8.518761959433018 10.953259934034127 -0.17379808906249422 -0.5006166683204991 -0.06976971249497016
Ni 3.524884658736235 7.975490963750923 8.07384179556799 1.2016086619713886 -1.1165090039875674 0.42144520289565485
Ni 9.214611350539466 7.478415816848084 6.292858800432266 -0.6397501161212724 -0.5235948743832273 -0.9911163028116544
Ni 3.6676024823309454 8.292136251023793 12.95562392965686 1.4017924401162634 0.859634458018868 -1.3936065618713611
Ni 2.950813329725886 8.094134108199297 1.391879249282232 -0.8164347827029422 2.1280951446177996 1.0115977105944578
Ni 1.6599621505367312 7.27039496094762 13.187583649280345 -1.4201580871076445 -0.44909818872623297 -1.5091179993778203
Ni 6.680025781139596 6.761077821094016 6.363030722639563 1.5307885423727186 1.0469362379947518 -3.302669171068899
Ni 1.3115769848839152 2.634233159436798 12.611707649576646 -1.1885315170724564 -1.370052685810821 1.1414461335488795
Ni 4.00430380060826 6.604490079954023 11.083773904625717 -1.092340891381796 0.9803816900029697 -2.8794740753616734
Ni 2.9879765226121373 4.589305480467506 8.621684003511486 -1.8404658339647464 0.3697205208278536 0.7199559363479019
Ni 8.50596182090699 7.5873751355656465 9.1756667430255 0.42818586405359804 0.8871344632113496 0.9700761943119035
Ni 5.770555473527546 7.38434038013753 3.7406507147360966 1.329215082969169 -0.3152010496237346 0.3888091620281885
Ni 0.06694770126752789 6.894279262630494 3.050749294976699 0.7426567203795275 -0.0923735659374151 -0.011115907407503437
Ni 3.837939209474913 9.339635959398345 3.1535569192122397 1.1466006811666252 0.3736422244797629 0.5206833571633871
Ni 0.21751398189305954 4.6030079543402085 5.029015355387455 -0.005195428158010407 2.3549026959977897 0.5495496465757761
Ni 4.353721535575311 7.148607596425267 5.769346158114477 0.39490987560928764 -0.6090611716778479 0.27186330606804787
Ni 0.7579235512593063 5.72325263602402 10.948658023766086 4.199843535014755 1.8277640701273619 0.7720734829787478
Ni 3.5794340862919243 6.968921930895647 3.328714163641227 -1.1570948958297298 -1.3110409831633034 0.6056027808156021
Ni 5.2096749849459085 5.285750226854235 8.857932141638244 0.157511950307961 1.4467831458943408 -0.6406867690029289
Ni 2.188126005981711 8.053575529730196 5.608825351154132 0.1921922752989658 1.6021327984436602 -0.6310839558058421
Ni 2.6556380422481283 0.6038930470966433 7.328540706493253 0.2812920555811156 -0.039919204792440925 -6.126502260027501
Ni 7.628798839676405 2.278480472190512 10.628336417637486 -0.16783390105925935 0.11359596565130113 -0.7153107242664068
Ni 0.04875587648446075 4.633092000846877 9.071047936398232 0.5456721658982409 0.10620970048955901 -1.0854729606173692
Ni 8.26475921055715 2.5844744814021148 8.167554437654623 -2.027010938280264 -1.1223400088470479 1.0377322028979805
P 4.217013079340932 9.414799563533743 5.5106605678621525 -1.3119956337670888 -0.14684007241641162 -1.2275001850261698
P 1.472648495478519 0.34852842301713355 12.921014252777434 -0.12080148226080485 -1.2814468144459543 -0.6222565873221994
P 5.628870219247071 7.423057078208263 7.918508021487089 -0.16583126880693377 -1.261905659089233 2.7679092812077877
P 3.3593293786870198 1.617133780061562 1.3372451696476282 0.7479081985864539 0.2764570960863174 0.877487684150205
P 8.332313430016463 0.48329081167909765 9.043614151131438 -0.7682006302869028 0.21588036294452498 -0.9624952966408521
P 8.007640148886063 1.809228882214526 3.1179667666056043 0.029192562403556176 -0.932541173480923 -0.3372472307904966
P 0.04675585483976888 5.434384393546732 7.067854164353612 0.07836850990757471 -0.46296851895042196 -0.35113324474396945
P 6.80330153386265 3.87231167448485 9.245593081179681 -0.6020266334285697 -0.4129803599577533 -0.09923018384793232
Ni 0.782597306656426 2.514176046197759 4.595239498175176 0.9249685033399877 -2.246626342787189 -0.233473650546256
Ni 2.633768038124079 5.187535210460482 13.216814663299486 0.8525986342180091 -1.2127109425321372 -1.5931460215640176
Ni 8.990153107447512 1.0419647647531958 0.27768114466376925 -1.1520573334058222 0.6052253428715255 -0.6477773573011231
Ni 0.08346136835430473 3.8974840399292043 2.6656614065372235 2.1660590254560823 1.6362703635573175 0.8921447719417473
Ni 8.931231539552263 0.3279635492965739 11.000217651523618 1.3782758450515618 0.060768280327308244 1.2036981975105658
Ni 6.218764975316123 7.67813890852964 12.272993286257885 -0.8851840243531982 -1.276935556839162 4.2148531210497096
Ni 1.9755190539378373 3.6134902688092123 1.623131054267761 2.557191950521441 -0.32973266758100633 -1.1442974869547453
Ni 0.7314600090508437 8.48973838951935 1.2570061617478407 -1.234834513904054 0.5428472948549361 0.9188611048906691
Ni 1.327921347812862 0.6940168131343356 8.983489779521499 -4.066606398093758 -0.41707201352862366 2.6161907976531524
Ni 2.1033436930992844 6.088177515557125 1.5776561435232206 -1.1265064815199115 -1.2533533986438479 2.1568169380325237
Ni 7.361995952274508 3.8112598509773488 2.63877181320631 -5.224059448593855 -1.6410868111093544 -1.9510695497569435
Ni 4.85862932538434 2.9952231126643 7.542242554107267 0.3579052733604804 -0.5806299129203485 -0.830360391645099
Ni 6.220867323649613 0.5944352703238143 4.654533163120599 0.9946533694306354 -0.9627524069569805 0.03221309439743484
Ni 6.724026257322818 4.419712947423889 6.3705870834859954 -0.5610203662195371 -0.9824326589947275 -0.06331752911172321
Ni 6.361492101337088 7.2054082111345155 10.26639482620416 0.10021260236585966 -0.906900075874051 -3.534083882203597
Ni 2.826951524148805 2.7700113730457403 6.1267956079095605 0.6385823210654163 0.7677293470774391 -0.307118015505284
Ni 8.042589364323772 0.2686150000362497 6.712827996597793 0.7508140593793392 0.402396670904636 0.45299238157431665
Ni 5.443231000914648 4.194882607281759 0.6358533929788194 0.36659277383214933 1.4462897511976898 -1.5840664278602525
Ni 0.6118075513538704 9.18930875112755 3.7412907216623976 0.07893878058874793 -0.7896323177981175 1.0067231561109757
Ni 1.226813276853997 7.821582321372192 8.128996811072838 0.34501684743358646 -0.47038075225409315 -0.240755786029966
Ni 6.820790095220886 0.49583699396838105 12.233196576499017 3.8419503458391318 0.941882505486507 -2.325182029004905
Ni 2.1462371805582343 5.922082694785155 6.483945519579255 -0.6885486256812141 -0.46674315550150586 -0.11295936050856675
Ni 7.328293261954887 5.421249367675546 12.899979606531028 0.2857830014729337 0.8061066613040568 0.45916842847804146
Ni 2.9470458470928613 2.1398743210002378 3.663045223708924 -1.1016814520564315 0.06307995917962039 -0.21137964686069402
P 4.001178185386787 4.862257271623548 6.744401361547787 1.2076024176609783 -0.06916498903143573 -1.1362681888923656
P 0.861623278172642 0.5960613344330801 5.842554392251202 0.1384042829442326 0.07822349968927819 0.03495877546337205
P 5.321211075735935 5.3557602868447045 2.5182244621036656 1.0383153290949603 1.5503718638212847 0.19952763261811443
P 2.41868664069654 3.8595673505163486 11.338143169096009 0.7340358114797358 0.8323044027453473 -1.0640438442093159
P 5.827272366400506 2.586753575834438 11.76163891505457 -1.0653486790636686 1.0575443525279011 -0.10783206658433042
P 4.793679785276252 9.01482314187413 11.218589317117331 -0.9684941945367644 0.3311146355301975 -0.5158486547789052
P 2.167214151761863 2.539869347512359 8.374121324331526 0.354797323859118 1.0745465435128525 -0.2690587467397173
P 7.922681089904803 7.900392476599307 4.566402907029221 -0.8492569714392857 -0.6432218767199567 0.26845170928333767
Ni 5.595232645911231 0.0802706361490521 7.2346652719471685 -0.6527411290643017 1.1141914115979843 0.09897847284844244
Ni 6.04257702205815 1.8517502726233004 2.0115947931949516 0.7253624520754539 -1.9806989425876018 -0.6349233841565903
Ni 4.992063327577179 2.512120209995541 4.64075440935261 0.5782372443184557 -0.06009413707841908 1.53769735367741
Ni 8.877910032262152 3.9652987273236406 11.771441811841438 -0.7894703382989565 0.1813620174526812 0.9370812274431216
Ni 5.048715103466357 1.0988304964462257 13.1222992218271 -2.30801605874858 0.24663538473919458 3.232561615618536
Ni 3.096573046705779 1.3181538002457622 11.677158000782786 -0.5775469031196505 -2.3942853115604703 -2.1697323605426115
Ni 4.479564757944575 3.356920050287135 2.477161692131577 -1.2906809314497127 0.05251709606210955 0.0073191593692325555
Ni 7.825424223415252 2.8115001941402786 4.9833497449047 -0.9001244477131144 -0.051169323784963486 0.35679095725037907
Ni 4.510039506353927 3.216732486633616 9.776280684867475 0.34742957064013713 -0.958238064026395 2.7855102821190028
Ni 7.544323506860372 5.741252830826246 8.224342959209741 -1.0736901090498285 0.3118861263178887 0.4079929340454909
Ni 0.7897657563280519 1.6621110110014932 2.4037357812204987 0.046737256155538864 -0.3320942258346474 -1.494479166418723
Ni 4.324911921465494 4.725520908110404 4.391926600202054 -0.8369989800075391 1.0294661062344463 1.3578926534095193
Ni 7.411019738635096 3.0297816261993247 13.380303874477605 -1.9221222705949734 -1.4454618559797556 0.038620026365043164
Ni 0.7437587468017607 2.8691938417699485 10.186161399760126 1.6090256689087512 -1.9902320788890175 -0.5859222716675393
Ni 8.715052455826706 7.565663272687922 12.190472393197897 -0.32575080011512286 -0.48050575650323696 0.08817803979882878
Ni 5.699605868485384 4.851466457168466 11.305739097481498 0.4412177575368918 -0.5490197422142351 0.05597317293151005
Ni 3.526075369296796 1.0325786166625255 9.188791536227807 3.461001560395627 0.1289721909970553 2.8203685274487684
Ni 7.511802224675057 8.855305136464006 2.6800662135921325 0.48987871307770475 1.630066805849767 -0.07108611731354854
Ni 7.668231824568725 5.548478651556712 3.7555866903301305 -1.2010299066497832 2.0580981466033714 2.1162269324253034
Ni 6.088419378639739 0.46889902802094513 9.715938636483182 0.5472369392821994 -0.029627593058445745 -0.6381748012143525
Ni 0.5918826845596121 3.017697774494884 6.845969902606244 1.009706407109016 0.6310911548946938 0.0021165321223705486
Ni 7.419912858134283 7.053992618991959 1.1076175682861138 -0.16333524185795742 -0.3646585329239139 0.1662750412125717
Ni 5.121683335005721 7.5876635107795325 1.3597086685667068 0.7782320463809759 -0.43364045941026613 -0.33374718805703807
Ni 3.6104576778502846 2.9014639584463957 12.968394300418872 1.4399429830440555 2.7664910607040225 2.544732641712166
P 7.000038546716551 9.105112491099149 0.5802481400432581 -0.5597949784528681 0.27172498071797074 0.10674243306457745
P 2.0920691524789747 4.954528037640752 3.888033705097379 0.04287314521444229 0.17581460527189074 -1.4218431881195512
P 6.614592514866281 1.9634072949546335 6.6475305457477925 -0.362657186223169 0.906242130575078 -0.8751022146371639
P 2.4005376070742424 6.827636680944111 9.599407142794554 -0.6095262842397244 -0.8254606403506364 0.07082592167362642
P 4.599082330460861 6.1722342391917095 12.917052349435695 1.217691426465864 -1.4869910855717938 3.6069034372684845
P 9.334519624958434 6.318812569681988 0.856259499194366 0.980876370251201 -0.3392053829581319 -0.9872696753720545
P 9.282342316097612 3.532438228854792 0.42058873775406913 0.9650936534956477 0.20379129299047483 1.1492574020631823
P 8.061705850276525 5.711345530418412 10.699162300410466 -2.2064256021985873 1.4249272263615138 0.039230663365848566
