# total energy = -381166.9245731579 ev
CRYSTAL
PRIMVEC
9.25797933311974 0.00000000000000 0.00000000000000
0.00000000000000 9.25797933311974 0.00000000000000
0.00000000000000 0.00000000000000 13.54998856491333
PRIMCOORD
 96 1
Ni 5.946890631555583 6.227786974613104 2.6250527504897847 -0.9542112022551889 -0.2197835546536731 1.1412944384623633
Ni 1.5019312030112628 5.071021005384958 5.432421031270699 -0.3596765063282903 2.4304247375955046 -0.5220666106641589
Ni 5.675779972378349 3.4645857345963216 3.2264686612398714 1.0748149666828908 0.6789555826761404 0.025882781304032845
Ni 2.7096253151206393 6.122162691367883 8.4197320223063 0.44926093955634244 -1.3460936038920623 2.2510134161112907
Ni 0.5296943468706296 2.4347929483560113 11.18559678290242 -0.7141460145343443 0.6601975853423468 0.24128003396455222
Ni 4.262318017389817 9.012966656949473 4.740950906480562 0.6316313436688799 1.0247987826657639 0.2616295441551817
Ni 4.256031849599169 5.004261718288693 10.534804366563758 -0.23142062467196917 0.03298571089740126 -1.3507719832043381
Ni 7.111100015958517 1.4836466943418518 3.7609216093540843 -0.07603060580301745 0.4735573502098619 -1.5886633032023154
Ni 3.4285073901483747 1.9293813547962673 6.251964186962556 -0.12041890211040551 -1.0213627604010216 -1.1809832724115532
Ni 8.455497447061576 3.7134216961236297 1.6277869479249725 0.7919044016617458 1.0540314542786364 -0.8231134802746984
Ni 8.53361627448056 6.88627925214688 9.284750371205321 2.1524771730065893 -1.0417649782064573 -0.06880220637537829
Ni 8.703564996325817 6.108896007356102 3.291902205732866 -0.524699934521948 -0.13098716454455508 1.541706989057435
Ni 3.723383281606307 2.7096716050160046 8.313432832386649 0.10043911655436895 -0.12787510127813462 1.7943564412011934
Ni 5.644182489801792 8.133828964166037 6.508100064989019 1.2877221059317048 1.7202883584411859 -0.4020436584405915
Ni 6.5127012805883595 4.16821991809063 11.176477673515397 0.4029039495583577 -0.06317766109974926 0.05401476365355859
Ni 5.309580610141103 1.4796935372776296 2.094340025921112 -0.5615824093705941 -2.188004419378922 -0.32017510579955827
Ni 0.4619009435118968 5.128142736266106 7.955049056082932 -0.010566976882568899 1.179633443251878 0.06406314902849612
Ni 6.822408454521429 5.577497266538112 0.7071142578278933 0.7068327687023827 -0.7545650417813392 -1.9154739120405202
Ni 1.0345236135466747 2.716429929739382 13.472604611314223 0.003231105342787984 -1.0917886184227519 2.0127006923051787
Ni 7.648646054881059 1.733732483044031 9.765747748151343 -0.7781222602759889 0.4965880067770802 0.9485041245680824
Ni 1.4385325623185399 7.05481150319395 12.756839697840409 -0.6896912239260896 2.022751391672961 -0.14391492834981667
Ni 1.1671626797272587 4.728086944558464 2.544037101418822 0.9953856196109696 0.021895771631826808 0.4925570312408163
Ni 1.9973997270464767 8.260811405132944 9.667618724763718 -0.9883580233402269 0.9212285766815812 -1.2364224272164641
Ni 4.863892239582054 4.092887742372656 12.699509662430115 -0.19199532879681128 -0.13546114115550867 0.6798333572954034
P 8.447739260598302 5.833128584705089 11.522476125415096 -0.4718123424942971 0.40078664610503884 0.30276848028733666
Ni 8.48257703585045 4.156230835190939 9.949309402425714 1.1745452300956933 1.7388578939132568 1.9777416597314903
P 4.851014390691344 5.390041706265586 8.396697244574472 -1.0230782004302317 -0.47788400260967373 -0.19899824247720568
Ni 6.512423541216166 6.111812270764135 7.317955671378764 -0.013006696672313084 1.4686043555344903 1.2043666843325
P 2.7269747679036653 8.14745670936167 1.2781325200892995 -0.8212694850874243 -0.9593122709271801 -1.0441337355489502
P 5.55837953975212 1.6463741925100746 5.516363127526674 -0.31591144542719785 -0.129837367210828 -0.6519952520372125
P 2.04996653222365 2.8684274301618595 2.2631592743194475 -0.5687277621661238 -1.536371949997767 1.7625002159225451
Ni 3.1549433665167643 6.061856215685582 0.22880539800470662 1.306439736945866 1.5552456469738183 0.7178412039977443
Ni 8.503953709530284 8.66942156950415 4.727035238135756 0.6959888840093433 -3.1710528575807775 -2.676294447813268
Ni 5.170933115542065 6.313969501804775 12.179989834560843 0.3780141282952135 1.0151486611705096 0.8494829714071628
Ni 8.023427563719085 8.988886653380288 10.979080895314157 0.4394182424343077 -0.541485381510403 0.3731161767729639
Ni 1.1330933167381787 0.08468551197554676 11.556324222704328 -0.7418486226559352 -1.0644508498397474 -1.0210549993526157
Ni 2.7109954960234606 1.144499146956262 1.1818041736313976 2.145825986238659 1.6384845975998168 -0.44113419668414994
Ni 2.6383388762576185 1.586021426932408 12.251844713338953 0.16897752774539931 -0.037915544098850826 -0.2662305332623028
Ni 8.798829600988217 8.09546389888703 2.1308173892671105 0.0673490188686195 1.4557485826177445 -0.19492330107688363
Ni 2.0273122574317264 0.079261262036606 3.0635578550860005 0.12390274689394791 0.00417418598234765 0.14804000626178376
Ni 3.383874673036865 7.470772502949212 11.131558884850527 0.12008388736848996 -1.8486555688643902 -0.5774306892567604
Ni 3.6812409608654666 6.7971989775053245 6.522097203549669 0.44050659040248 -0.03354364028340029 -1.6517342635208716
Ni 0.8660348750012493 1.0856091420721485 7.356559592517858 0.4030728710360542 0.08681252690986985 -1.842192586847866
Ni 3.376153518489884 9.116183865635684 7.591611349003199 -0.8744231862922683 1.5460760646594083 -0.663158981963516
Ni 1.0854980463232708 9.217262481156002 0.2574116275427388 -0.4847789299572941 -1.3475892146009825 0.4460971971163801
Ni 7.065745176479305 8.429917650882548 8.87433397511695 -2.2571897201253317 1.8244771718459738 -1.1716419404059693
Ni 3.7803105949269193 1.987132628254387 3.883657415320153 0.558453119712993 -0.8182862340893842 -0.6565934129308563
Ni 8.540430147078377 1.1429160325347587 12.981931720438887 -0.12496615516145575 0.8115982805462474 -0.07855080112170988
Ni 8.2385089335458 3.193114014235236 8.106985453843528 -0.07054747120125915 -1.5229088825143258 -2.469838977727069
Ni 3.6053903383193977 4.414546967289122 3.474135340010245 -1.1777282558093651 1.1751031594816923 -0.8838110552650714
Ni 6.162666349812781 1.3765411344449314 7.655580281206825 -0.5742394360129723 0.15155161895946803 0.2763784203295821
Ni 7.6990650089132675 0.9699214355744461 5.8147746411926295 -0.419290104225865 2.435344286384309 3.033192877175789
Ni 8.2445358779224 7.629315394576386 13.147526414726055 -0.11619843627115473 -0.40919492477339203 -0.6412989486656311
Ni 4.4606331871151115 8.212040371375751 2.4242008944984557 -0.3933039645747484 0.17834714188575737 1.157171000483304
Ni 0.1183123435649317 1.454798831550011 1.9330002988159496 -0.28288485398953217 -0.003768980124128993 0.5704614570277788
Ni 6.6783635581227605 6.647358586206884 4.867575989455249 0.5911590945864464 0.5983373575024404 0.8592539347509975
P 1.3355560610882309 3.2576143544376603 7.703723623982862 1.7535736028568767 -1.1456547723135884 0.4085256666205093
Ni 0.9344356017871788 0.8555205881679075 4.851614307735283 -0.9010901540604933 2.4371795398208347 0.5160417446263178
P 3.9365204758276655 6.680937276305088 4.229073540336152 0.3332301392113035 0.2622340105084 0.06515406809982974
Ni 4.678908559722052 7.635518240555375 8.56449996687058 0.7584368660319196 -1.850100785951349 1.9893735875434642
P 4.792448415074791 4.801243495194254 1.2589712808016638 2.3312562602234435 0.7492690834897224 1.3683956098233725
P 4.811667979630586 0.4974525089505833 9.153044509315308 -0.598588297170982 1.8675431497975128 -1.083910758336572
P 0.41294845336486974 7.050358415259779 5.55027880806314 0.16363863203098913 -0.6425827004740611 -0.26598704979292903
Ni 1.3866971374881434 4.808168463540947 12.737043361188356 -0.14719822708677874 -0.29440082504893167 -0.7162098390419085
Ni 1.9289369718007576 7.017362977843181 3.337538487775902 -0.2387647237418662 -1.020953440777745 -0.5198107247504468
Ni 6.565832822488992 2.8648538502396357 0.8643499228099417 0.050326773279010105 0.7163818458433985 -1.3771515016391316
Ni 1.1990101277387901 6.1491774743032455 10.62697125142829 -0.27511652289802296 0.6698680185525754 -0.5966782246324627
Ni 6.265004050487045 3.8546058769887033 6.810644340513216 0.30309963837451026 -1.5314308039424078 -2.774204627298196
Ni 6.085639963924426 3.6532355741692797 8.88345401030188 -0.8551576531944369 -0.17009647184119095 2.757326106375303
Ni 3.322836817007788 4.270057687894945 6.601757484484326 0.10137371255349638 0.21204736235168 0.5719820074373633
Ni 5.096036064840528 5.032183783173222 5.232273707486834 -0.4315725211376438 0.09998763083924715 -0.6784382767200896
Ni 8.406106128706485 3.844348036175687 12.691854239534551 -0.9964366865833032 0.5104483096989403 -0.002429435377099042
Ni 0.03389346138669079 6.048728401359898 1.0364872309080833 0.10397078385671127 -0.4817378291381252 -1.1810557775207016
Ni 6.52914345142222 0.1120872784361661 12.934547531946844 -1.0114205615866452 -0.017393512886099076 0.483994743493102
Ni 5.485204473158182 7.69942607009712 0.4576728244692031 0.43850627214299964 -0.8080851251866664 0.40549973530999195
Ni 9.2069305765104 3.451809723475417 6.026153745188004 0.778698187384117 -2.829487459030901 0.2199203373418535
Ni 2.284258208627087 8.418493304706317 5.308709434310323 -1.2831797379766612 -1.1122150045979038 1.2268481532644677
Ni 3.7405105428915775 8.880734941848106 12.739441177768294 0.31255949823582946 0.020364936809597185 1.5334149242519721
Ni 1.6630478128207629 1.65754857325133 9.458000488388054 1.0184674411310977 -0.8001381024254478 -0.15999409329986639
Ni 8.149558270611267 5.322625102655129 6.003742029447796 1.2257986289540308 1.224673257100336 0.3589260013155109
Ni 4.617981799441852 2.4414586932886575 10.614505382606337 0.4824286845575627 -0.8637446235324995 0.2632629659935466
Ni 1.985049582962935 4.185689724601606 9.861504877300433 -0.5270632925478019 -1.1031104711934745 -0.9598396041855598
Ni 4.6969893928518545 1.85677102492579 13.373987692429447 0.07377986209562779 -0.7397554875723324 -0.6249585596343946
Ni 1.4479479270359028 7.657098589774817 7.460487813996884 -0.5554305308365853 0.05981851481952924 -0.8346209666936658
Ni 5.497610165116163 8.725848951954815 10.762295131540082 -0.1409548172802282 -0.08756277481233307 1.8420498906224148
Ni 8.807708002919338 3.2314698215351707 3.787154093057769 0.01233461030595295 -0.5087747786512592 0.2670859392840626
Ni 8.523117726211643 8.321710391475927 7.047145896521407 -0.9751980889195011 -0.5949962089443495 0.01977898239914013
Ni 3.0841198266073997 3.8443110042593944 0.6986765357006521 -1.1218656403137903 -1.703751022907795 -0.12036696582654755
P 7.060736609800746 0.11630521370187936 1.7287211389717514 -0.1955802179345922 0.05002878242261707 0.09252423258266645
Ni 6.548177856396554 6.689454617052358 10.377583514348226 0.01257346578963641 -1.4967342810014868 0.34538811473007613
P 8.961992224172876 0.2582707680007243 8.887396983589122 0.5012491596981755 -0.517825833109934 1.313883594818421
Ni 1.9089027050865268 3.0221191407547177 4.575288628946161 -0.6306005884115204 -0.2666115707508054 -0.4818337312860411
P 7.24219299963389 4.6730852908850595 4.178586077258801 -0.6851118320855234 -0.48867106592284876 -0.6912536833172032
P 2.9306873394285886 3.526836385883978 11.640280205928912 -0.013391333705241452 0.9266523188003138 0.4311194927606253
P 6.640591003504433 2.0466521757154728 12.038093715105047 -0.10075536224320712 1.3385430452383142 -0.016332932832068645
Ni 6.289084054056229 8.529607569541898 3.8996320582108206 0.6509588403528982 1.1518629580068291 -1.8992219689580325
