# total energy = -340856.29970356287 ev
CRYSTAL
PRIMVEC
9.37482751410468 0.00000000000000 0.00000000000000

0.00000000000000 9.37482751410468 0.00000000000000

0.00000000000000 0.00000000000000 13.72100768897382

PRIMCOORD
 96 1
Ni 4.043794222759906 6.323705328934752 12.138357539732644 -0.7842857087742234 1.6536556489133005 -0.35023310152720327
Ni 9.199799197444692 3.768314924851035 10.968875030827839 0.7507299843059652 0.6304005565855725 -0.4517808777647187
Ni 5.184757569773659 2.709850057388007 4.020804333964196 0.9209992342795945 2.3588138581267373 0.011005092861252013
Ni 4.064034474731498 4.938799602785838 6.45330575289533 -2.0740055618622475 0.2899592443378103 -0.7574894145169858
Ni 7.238210349581765 8.040367440804243 7.97224807124612 -1.3460704639636107 0.5478272645680307 -2.0735345357631
Ni 7.8658831565544585 6.288737223397911 3.5961659100621697 0.6021767858531887 0.3599426155054833 0.267086710615011
Ni 1.5114002698509532 1.4875507093990163 0.20839209682785437 1.3070586014767878 1.1684136632766586 -2.11864659761039
Ni 4.674841967532403 0.9900755028809207 5.365531425606463 -0.01475916058704555 -1.7035453346548919 1.978435600474722
Ni 5.060025493589294 4.974189575547654 10.506531989322962 1.813046047190897 0.11641775137081242 -1.2877958965924337
Ni 2.350231685164618 1.7634237500511973 5.484767040590761 1.0254999224978467 -3.0510782420966422 0.5314938175153299
Ni 8.89898911638286 7.311671495690796 1.2204121952692681 0.3683609214761656 -0.8536754122219556 0.9377803103926753
Ni 5.553413275438741 6.795399760593245 2.1284026484799394 2.5596242141120173 -0.38743619294006176 2.4794430764757363
Ni 4.1042993576485856 1.1574161687877897 11.896346375005145 -0.05877721803920845 -0.4203041473126762 -0.5808368867248319
Ni 3.2723303158611854 7.430347433489959 3.2498344804600583 -0.24963766190062814 0.8967012809641781 -0.9651242496232669
Ni 7.1799176739174 1.0782457529007585 3.8619422617966084 1.0683774385876634 1.8320819807764255 2.021044179173868
Ni 0.7923913337056616 9.12247562252033 6.862396963332935 0.2535745350611891 0.5763497974877557 0.16531319151993465
Ni 3.9778798125643204 6.8734920713497845 0.7532561174687863 -2.337715899805858 1.7302611533831813 -0.8680805319036922
Ni 0.5412462748160882 0.8878355121667958 4.103418123889748 -0.20080058579326707 -0.9651491893239313 0.16886877008167692
Ni 2.9452519689242247 7.852242782946925 5.609408180951074 -0.5894174293049913 0.5688012957165366 -0.9314111736415379
Ni 5.849254698073087 2.4839729703090097 10.746402880995753 -2.0159333403098634 1.3183688842832844 -1.0609968298528758
Ni 0.49437588863861026 1.6529414112437772 9.650835259837507 1.6875512732194806 1.3056419236349193 0.6248677996928013
Ni 1.2831138521759857 5.434924834184012 2.8376964511754106 0.7404676831480086 -0.14900494127821437 -0.8911165877875492
Ni 3.6780915876696505 2.8255073008217915 9.41727643933307 0.6137657762423688 -0.7066893011459829 0.41840847295186007
Ni 9.159018699030414 1.8730811040631103 6.14175586976835 0.24791682255477948 -1.045237253025774 1.7834410798402702
P 1.6165483319692413 5.539004165999029 12.05909150060795 0.47884328119914954 0.3678785825231084 -2.0845609687805906
P 1.5441840406451448 2.461660881521427 11.622544233686233 1.0531061142508895 -0.28505460794734133 -0.022953266362063695
P 3.5191507669534015 0.866911835290743 7.394634966671717 -0.5226718483483257 0.820587114308419 0.011160130381877555
P 3.216437595965569 4.776052602217588 8.713827841410312 0.9563974112732303 0.8233196827482337 -0.3125062764003908
P 0.11650097788373452 3.6385016923125244 8.692504796894616 0.20481484915898276 0.35172845512580714 -0.2703836361987279
P 2.1136579202256915 3.7810834395269537 1.293395225189995 -0.30492435028807485 -0.47476216915124037 1.1309832863443425
P 5.706222959152016 9.032842899453911 0.3903143689953141 -1.025652131804995 0.5630903613746883 -0.7131304287856364
P 7.595925631879154 5.570137967202206 0.6226019629284916 0.5253810197493726 -0.272417378799305 -0.26640485405663794
Ni 3.9862327836188314 5.100477873050815 2.880190668005812 0.8355121110493674 -0.0583172476836544 -1.008601089859979
Ni 1.1580255325571984 5.428962444071027 8.155547505532445 0.9576279412462217 -0.6960397918519368 1.2011584618078475
Ni 0.08287441012231443 6.153749086233036 10.28112364360505 1.7383549861349095 -1.4310068568966903 0.7936391249646655
Ni 6.495255292264153 7.206335937028075 13.566961210527221 -0.17477562248441514 -1.1627785764780683 -0.7344795838853737
Ni 7.072725899464787 1.364412353842337 0.0850709321403525 -1.1001210495478473 -0.1439072150403328 -0.5643571439022538
Ni 3.6485327574397144 4.826226677507984 13.67169396779959 -5.230917609166268 -1.6004844642069598 2.9480957902951292
Ni 0.6914235070455178 6.845414463820873 6.468865153635142 -0.16236824995899776 0.4562080602981369 -0.7728599834357851
Ni 0.7885720290955519 9.088360626260663 11.058459942275425 0.22998054979133292 -1.0470938466185387 -1.0607368913232698
Ni 7.131562315108009 3.430127407656391 1.02624077385397 -2.565566804848698 -0.16690239038392546 1.010056591359583
Ni 7.166380423409303 2.954964289925878 5.766925902895074 -2.292457799299007 3.240968094514676 0.09825445019822433
Ni 6.977627652128132 8.855893035644828 2.115930378344225 -0.18778000516388307 -1.1080570165654722 -1.6695463520016278
Ni 5.620424540419262 4.707213245928841 13.463958108877252 4.248284661235277 0.3409614464172902 -1.1703386482135136
Ni 6.0931783275538045 0.2622401669064238 10.413709012553008 0.011479204284193134 -1.5566391848872354 -0.005832033300744795
Ni 1.7231213678252237 8.230142068252576 13.012756112042613 -0.20146470173982725 -0.6879223049511249 1.4900535265472015
Ni 3.8916407769521473 2.605170736630803 2.062130119884486 -0.9644362224173066 -0.3467160895128803 -1.3537313229429782
Ni 5.82636136999776 5.686095205107083 4.756469525634235 -0.5619608757559353 0.43016972725284625 0.018031917801046366
Ni 7.9350225073143 7.723123287622817 10.064042956908148 -0.09653669617616922 1.2480646394410828 1.0216304122401116
Ni 5.175663987368636 7.625362589355207 6.506186340804624 0.3200563208335069 -0.0224056213887098 -0.9620602659859624
Ni 5.184682571155885 0.44513460865677107 3.152456275143093 -1.6138387740266789 -0.015434589387515352 -2.559827074151443
Ni 3.207634633204418 6.998992883366326 9.978026104701128 0.2705008785028825 -0.26121636787716307 0.022032811430323346
Ni 1.8133822043154946 0.2976235772891855 2.0254811078267987 -0.1244863873115598 -1.6473297066952726 2.103992852252957
Ni 1.1731002547296492 5.451968270073014 0.33825876588152853 -0.22131490369653498 0.43746163292856916 1.2212331210705356
Ni 0.8644893799366626 7.331011764249109 4.169333471568056 -0.22037439416013657 1.0304073871017931 -0.1324668344138751
Ni 7.362661180949478 3.099861619464061 12.285460766116085 -0.46769523500213 1.9654492155173828 1.222423798944527
P 1.787085813958701 7.46957171058544 1.3859182074888556 0.7295458940291822 -0.13364311411016339 0.6172269953180918
P 1.2361834671042893 3.4578581465781006 5.620988905018007 -1.4686910017110253 1.2836759608867891 -0.689429999844903
P 7.8414804812964425 6.735832108426734 5.989123370289564 -0.3418222517556887 -2.001030455056102 0.4258536163759956
P 6.811102596189549 1.072686480358306 6.168717872857882 -0.6743939314473869 -0.8086466541170912 2.295024017364286
P 6.364851445610677 4.550794253735221 3.038091820383178 -0.16708416737742837 -0.5014116534179688 -0.371642934661547
P 7.421806965891014 5.24028467140763 10.967270060407486 -0.5734956158684124 0.8482092469010618 0.25474695810273545
P 0.32855863215526315 7.703004908405107 8.693287594967627 0.5977776283442285 0.9367233298830705 -0.6857204122037996
P 5.717191507001374 8.04556109508505 4.128047669966528 -0.3268517464887855 -1.7147306618477498 0.5382049109869183
Ni 8.960628605365361 0.18373817620029784 0.6784515586188884 1.1015202438882192 -0.13457231079265208 -0.4952636315387019
Ni 8.33951817744784 0.5622243256900267 8.483177092310038 -0.5205380898347745 0.1848273502934623 -0.5592794722690303
Ni 2.2891453109881947 8.935579067029051 8.800200937051756 -0.2036187719683525 0.474341536674054 0.04389875826547924
Ni 3.01547879964178 6.8645391113530865 7.6118937750858295 0.5136272216475541 -0.38586550601883224 0.833721594807848
Ni 7.247257057850679 9.013362008487276 12.304436353895474 0.8143010241893912 -0.5001726388045451 -0.28648259864311953
Ni 0.6159702101518799 2.486054181952221 2.364129866520749 1.256666779287797 -1.0586139314429963 0.2051956295371692
Ni 3.629839351959698 0.12606705158072998 0.6129871401299435 0.45580696820497624 0.28852636854602565 -0.6746135036573607
Ni 2.923858613204366 3.6371235927109384 4.223669032662152 -0.874066831394114 -0.29473044047420854 0.23892361791723368
Ni 3.7431060144519552 3.737171748820636 11.71350068235635 -1.9250625841702202 -1.3090270380570683 -1.3847411410609314
Ni 7.619765817503869 8.735276508610779 5.293002137323265 0.7089719265325726 -1.72017651545367 1.3792338380894569
Ni 5.908944222993481 1.3299223644938007 8.465394920035969 -0.9211331887542974 -0.8940237341320152 -1.4901887665734852
Ni 8.945525758711247 6.462846514558827 12.623107355780038 -1.3162862907226427 0.26280582385146994 -0.6838059687899062
Ni 7.472356034270278 2.982376284722051 8.432204281740356 0.4317501843660887 0.7581378467342621 -0.22997695024690715
Ni 4.6879104766794155 2.753218008115468 7.025814264047534 0.3191806030967729 0.10029230656385953 -0.12811189987928903
Ni 6.137961877191739 5.292014968016823 7.063451382894385 2.38172804372075 -2.552488631508501 -2.8860928662297716
Ni 9.049473842945162 1.4637198986015225 12.15004794927807 0.9867477414303134 -0.727653819212792 1.702541833091042
Ni 5.627043168437764 6.326752147781796 8.70719983856459 -1.0025577118793767 2.0648735176539925 2.776596524569141
Ni 8.796372257614424 4.354907238938357 2.0838094078346057 -0.4216218376828352 2.7383390237498393 1.4528162394622979
Ni 8.944241407381877 4.688294844595505 6.361140888996338 -0.06058881732665049 -1.0609302382809986 -0.548969348592274
Ni 8.856268028733695 3.25980554669303 4.32497154065411 0.6244132286538859 0.66965718809335 -1.469976039071036
Ni 8.159868363398914 5.919303407073429 8.07626740416692 -0.0375987841893804 -0.2625667112574704 1.85490900597327
Ni 5.896794446914192 7.3039185135784725 10.983556947739698 -0.5458189758887503 -0.6113538243667664 0.43091380450772243
Ni 2.1745474230304596 3.091977389770634 7.486935765565424 -0.2809616688248903 0.11012549060419743 1.0507990633842677
Ni 9.243467142643247 3.178732040879999 0.23951089830747682 0.872451407277878 -0.08531537353905308 -2.039309553141959
P 3.2607992783785273 8.566351496903447 11.571597672632771 -0.2026597504891929 -0.7418465657734062 -0.7151166059777297
P 2.504175722971716 5.712044726856675 4.581883055767735 1.0320639488686096 1.7196962333831414 1.0791256782431027
P 8.594475978568468 8.652018668055097 3.3573796858989278 2.6652657008029323 -1.1467222943461541 0.26453566205838314
P 4.081171658892718 2.6119018625759645 13.398522752352694 1.105196921408858 -0.4574329338441735 2.506707311508328
P 4.959949212997932 8.433228950355685 8.549257436947448 -0.18487131615752034 0.07092593758660043 0.7665510104986218
P 7.814884096468556 1.7876670532464447 10.575082600933282 -0.8936846056250415 -0.9948834831635706 -2.267718130460482
P 3.231015452295271 0.5537091701245808 3.761257554918559 -2.596145448966503 0.21028692801714752 0.11682115745681816
P 7.958515824331813 1.529831180168763 2.0321775469112398 0.8637965598163576 2.2130685614364016 -0.90601818748973
