# total energy = -340885.6634027202 ev
CRYSTAL
PRIMVEC
9.08921817473814 0.00000000000000 0.00000000000000
0.00000000000000 9.08921817473814 0.00000000000000
0.00000000000000 0.00000000000000 13.30298955098741
PRIMCOORD
 96 1
Ni 6.702098580255554 2.4273665887901945 11.007345803685809 -1.6798248511095006 -1.4160836599279547 1.6174545164023948
Ni 5.10992206527182 0.5530516544151762 6.117739114056179 -0.40535421087106316 -0.6354574022831894 -1.2341714263987584
Ni 2.887344649746179 1.7363133357919227 4.748475673250831 1.211274981416559 -0.8800094221307941 -0.5944058836585182
Ni 3.4372877915673086 4.518532088863394 4.204755919070474 0.7580203473197913 -0.796315386245248 1.28434136238493
Ni 3.9291144727851104 2.7000067752552233 2.3427759625942324 -1.190372426935937 -0.543260985353587 0.9719250745951843
Ni 5.367301454528061 4.45861596307404 2.4483490488000133 -1.3868515025357147 0.8328980704652882 1.3823818968001353
Ni 5.310839231620982 2.991043539177421 0.41955649017163793 1.1961545808353529 1.473614664264888 0.2354963374032396
Ni 6.131104809288772 8.336703565382598 12.868127801214989 -1.7499696875557025 -0.3660641550221889 -0.07868758380989029
Ni 1.927895875140832 6.708642817295653 0.22097070826801116 0.758589332449384 0.1907804825531037 0.06879192196273314
Ni 1.05231331604798 -0.09462875867802588 -0.2138393077379251 -0.8987486504115103 0.6853298616336003 0.03972354384186707
Ni 8.001265970986948 9.091944876682511 7.25421313628346 0.22442645274232317 -1.7186788478622208 -1.7146486436569048
Ni 0.12421234578651957 2.7414899667149646 1.5155298654170033 -0.9237641986192414 0.46771503249647195 -0.6291646272959422
Ni 7.270965474184303 0.8418033889042056 4.592324723943193 -0.2040946831635066 -1.0060089036527706 1.4658938985818626
Ni 1.0882611736779704 7.986177868922275 2.2521691829304338 -0.4720542833017741 -0.7640205307672842 -0.09434200251769559
Ni 8.015999593545285 4.298054925138825 3.7488489189065173 -0.15955006378391232 0.44239609411570907 -0.19693338952837697
Ni 7.963672964878823 3.978996101779646 12.349045281646983 1.056417952232942 0.4714315621161107 1.189123127909868
Ni 8.435530633906211 7.262976051464515 9.300279753932264 0.03343436839904564 0.7536831533970181 -1.0102818199965116
Ni 7.09681605517277 1.4375507364751634 0.4628511628009509 -0.021921482663439667 -0.04583505605624364 -0.5353011070765619
Ni 2.154735491543277 6.833428692744992 8.997197958169039 -0.10620095873881065 -1.9494546398613393 0.548521462421578
Ni -0.042521180168045715 5.291251966591241 1.2287504912581149 0.41190692438791643 -0.7373908439948977 -0.06183091726386771
Ni 6.729702535659417 1.9390119888908894 7.236840004785618 -0.3316363123616224 1.5369314220456627 -0.7683487258289928
Ni 3.767308211968653 4.733001279416429 0.5194460882924548 -0.4990763204165728 0.78328709230638 -0.552570435679971
Ni 6.1897393553244395 5.9642358539843485 4.797563813504254 0.7770904765773649 -1.2470711651795618 0.13973251483735288
Ni 5.604039229453656 3.3809800853681202 9.02710239467686 -0.39956382944153124 -1.1092471802188315 0.36332490171415494
P 0.3619799291241191 5.689641485625401 12.339547048720728 0.35332819551275924 -0.32732097281572015 0.39447021696870777
P 4.658606029175855 6.523795388567179 12.526241406569408 -2.2328701695433613 -0.03333718069954904 -1.0839858345488813
P 2.721884523249 8.87276747114785 0.981760987224842 0.6057105100380601 -0.8421165037397624 2.66837133631145
P 6.915168031219456 7.82780733255187 5.672673733255321 -0.4845729845940752 1.2632014950825212 0.6862289764091021
P 5.262057398017907 1.434505848407895 12.371421118793256 0.3328257046840333 -1.5994483096329617 0.061617772811797096
P 4.215270326581567 6.509834349548301 7.948749377661963 -0.5204825540064907 -0.014905970577554974 1.1025211743489078
P 5.07237450525425 1.2697728593596156 3.764759595210259 -0.2914445706340852 -0.27040780456844393 0.10274128232498435
P 0.3885795259266897 6.069807122346508 3.4107272784026166 -0.2881635858899682 -1.740827873155434 -0.6206270221385763
Ni 0.6003946647912396 -0.025113509641381364 4.6058013076367414 0.9301824434407594 0.7871535172403218 -0.6108115787100513
Ni 2.069342287388091 6.610542886220941 4.526129766282588 1.287788440393266 1.3850100784516017 1.0192487993818122
Ni 5.990812727741641 5.980432840658595 9.350644929330317 0.4673579062673692 -0.2080330989859643 -0.9395839392603174
Ni 8.724186022683261 2.7559872696024073 10.081178110116612 2.038130188121877 1.1851024367862493 0.33347953621794824
Ni 2.7939074875625387 5.241661192576265 6.935779651130336 -0.9036975097763532 -0.06534921482977132 -1.2772957683920583
Ni 0.8639647205030532 0.08777639714395516 8.644229079880413 -0.04202905204659214 -0.7451123810088717 2.366756252902266
Ni 1.2338340909477366 1.127608398881568 11.125476553634092 0.5202884357178137 -1.0990802669881587 -1.4912845707408253
Ni 4.616177559032544 7.035727420247064 1.4195622649111903 -0.3626451020383109 0.16810849487688465 -0.03057607301464411
Ni 5.769726586403618 8.007937457080605 7.862611766543466 0.0010595516127659172 0.9094164145380015 0.17344816192224322
Ni 5.583770273065571 3.35711179860798 4.754289137154785 -0.10865173427214835 -0.35488217026344043 0.804781257624414
Ni 0.7196179387564945 7.466701786210054 6.421219926494488 0.1198810273290645 1.4336018713173762 0.11915931867169158
Ni 5.352077014191719 4.858423400133556 7.130827909345064 0.9043749954593522 0.2809115323132452 -0.8294810743639391
Ni 0.8151901582744682 7.3711377469883805 11.149887466715475 0.03300885082585283 1.3499551437299977 0.16843219676489055
Ni 4.832082846047156 0.4316015220126653 10.410826781497207 0.9714039119843914 -0.2478800557795731 -1.3587043506775374
Ni 8.123234188821801 7.537815828712467 3.8629622344496286 -1.1224017153229187 0.955171252175613 -0.10990797527675265
Ni 7.51302953092309 6.354508701245164 7.219811354654193 0.34230716181190723 -0.1730882074796632 -1.306281614101447
Ni 2.215015186057081 5.609638187810186 2.395682483376191 1.1634483488515834 -0.3633025331166518 -1.409305974884489
Ni 2.628656413081918 5.568891223017456 11.387172412571367 -0.1138412488928878 -0.7242003134465528 -0.0489535470805673
Ni 1.2815161291593495 3.759673268755204 3.7340825751629825 0.1908182777695746 -0.77898023740091 -0.21112459342709447
Ni 1.831804661268706 1.2266263409855158 2.5250138768029657 -0.04747644831440856 0.8453450379793893 -0.5305581930749378
Ni 1.20868422443391 3.563818796894008 7.873973289182527 -1.3051986654499135 0.3030137635289233 -0.14236995246019998
Ni 4.356762184919383 2.7660035879610034 6.918352893245637 -1.8832649314081438 0.439758656492862 -0.6757018516255331
Ni 4.265515524300552 7.09601620397898 5.82678960662785 -0.24179065505238356 0.8195599585954852 -0.2743966140128629
Ni 8.43167680542704 7.427354561006456 0.16874587884439585 0.024597486833706023 0.08478084119182173 0.7182636362471436
P 0.7531307948544812 5.923779744171179 7.791587707300353 -2.1625204161752047 -1.7983691619050126 0.21029721242979268
P 8.656344098700897 1.8904119396500405 8.150435491863336 1.5196338113074797 0.7759252526246702 -1.438978305137941
P 1.931513383949109 3.57984308842414 10.049131344899969 -1.0984804286206307 1.036669308851105 1.678953761358457
P 4.414987716140044 6.255890684738111 3.5406703762082787 -1.5509858432562 -0.02413905914004875 -0.5364174800691924
P 7.024029596537886 4.479693859874027 10.46292072618002 0.7706326367671631 0.07908559057925735 -0.7160103214365927
P 6.516251337534842 8.024716153713971 10.026569178782415 -0.27039212083916014 -0.4334041750297439 0.9240380211059183
P 2.6328465426312038 8.68554775649234 5.5385795895382515 -0.2105728346886825 -0.2978615299040225 0.5953937014930842
P 7.06916665367835 4.116052421679171 1.3972664128842962 2.1756921776704723 -1.9470812545331562 -0.6826751976195727
Ni 3.3013039994049103 1.7965748518695044 0.04573058308312778 -1.3223096140985873 1.0304840059759994 0.6960292503289756
Ni 1.3249262348586754 1.072673164617178 6.731844864368239 1.0058404963957064 1.003314387539743 -1.1735787524173658
Ni 7.5506407154674395 0.7209958642221599 9.53047420073957 -0.7487898298604588 -0.29200147157881967 -0.33638334012830456
Ni 2.725474764402944 2.0480644277896567 8.995042904554863 1.1607132093086074 -2.631075942295101 -1.2053925544938533
Ni 6.852361534070725 2.400071666802113 2.994449269203706 -0.27325452998861977 0.2841359527878139 -2.589298601247999
Ni 4.1977008679725225 7.160031567136507 10.263496009444724 0.18215186034382824 0.20844936058777652 0.9136641340707619
Ni 7.3225922330561986 6.573522500853824 11.48110493714207 0.6026601532475104 -0.5636421201131003 -1.436114610436901
Ni 7.665337558813292 4.247209839024497 8.364307520786461 1.1185486601254155 -0.4506881589211722 -1.069061094918249
Ni 3.545204078202169 8.957851641887252 12.360525873043303 0.6329510909215681 -2.798633963985154 -1.9942854230227844
Ni 0.2555079192471356 5.215375173798533 10.040444779151048 0.5198333504582661 -0.8815222592308947 0.27253847775820156
Ni 8.802353298440003 2.6122321959548906 5.746599070919543 -0.3007859026396691 0.6052626238673641 0.6846755158790531
Ni 4.045065628230316 2.53946391575623 10.965015497098099 -1.3067438984498463 1.0757279654154634 0.022322317646284135
Ni 1.5628637865749553 3.164965727736173 12.134427936838735 -0.385239185288743 1.5870036561117056 0.8922566149292633
Ni 3.1476780348885773 8.630039901486942 8.057873621383807 1.8634062448110038 1.419903547894677 -1.2342231055723003
Ni 5.5869605886226195 7.9976030160881155 3.7081546715788334 1.5976619071565 1.778611519662111 -0.14569361751679424
Ni 3.3621926715321684 8.557498851741062 3.222862229261208 -0.5461033398983886 -0.148926265521479 0.6175805220027686
Ni 3.5326882248629796 4.454034997145971 9.069711740260585 0.804643189384653 1.1542116607446637 0.20461070356797662
Ni 5.130354627585907 4.5556797232840704 11.48659936949032 -0.23785558166403553 0.7086191711788441 0.04190383932263751
Ni 8.269861455392473 0.49947162257117367 2.2357267873671844 0.7744165292896276 -0.8180597199008749 0.2879956928535362
Ni 4.869503157011169 0.5080273035792925 1.498435772915177 0.6802671023987124 -0.08463428831162843 0.24330554903501322
Ni 6.3854029536053 5.6823064866096225 0.029422707947924582 0.07229427868903679 -0.38902230648025904 1.022928562226245
Ni 7.905256560077824 9.107669224014971 11.71313631492966 1.372871643316855 0.3971307945200064 -0.13827881310996185
Ni 0.42500456750752064 5.090671101312194 5.607569481768066 -0.2419847733410607 -0.08403984926073912 1.0518542441216594
Ni 7.027138109131934 6.091857565484397 2.2623463804496 0.1471383203831208 0.47421221018504134 1.8897351125135196
P 9.170839289888153 1.9641800338409383 3.703432822770039 -1.1566578082923111 -0.7059184844182294 -0.427825909611018
P 2.165133557062546 3.338478901479919 0.998715105767755 -0.09474566571401746 0.965700176731395 1.485835631811112
P 4.9475250052781305 1.2743083791971288 8.305189428347276 -0.5235113135304855 -0.4607853952561741 0.35008603442637776
P 8.845354389324322 1.9095538329923312 12.582765436159644 -0.08141912380844044 -0.7912767953800759 -0.44655279659655994
P 6.8412726879750005 8.020362418238683 1.5926736952144191 -0.5091447603961683 1.8170662240938835 0.1430806053739794
P 2.213088271817496 3.3352067829598697 5.899197044867494 -0.2615174440573496 0.5496674031005631 0.2219815907462564
P 7.253695959772929 4.323577449595212 5.884976054210634 -0.034459724339766455 -0.16880269273043186 0.7690832900021722
P 2.4745578092238 8.53428498868493 10.221883751087804 -0.020195244000952316 1.7737184532358679 0.7460269224033409
