# total energy = -381182.190344816 ev
CRYSTAL
PRIMVEC
9.05363241848043 0.00000000000000 0.00000000000000

0.00000000000000 9.05363241848043 0.00000000000000

0.00000000000000 0.00000000000000 13.25090619964482

PRIMCOORD
 96 1
Ni 7.687738152386311 5.034163725560754 12.403457555552693 -0.10652311796491978 1.8756542089404216 0.14532697820599488
Ni 4.0900690324390165 3.852085247715509 9.657989663895473 -0.7809425033336035 0.8724853458396069 1.4344079121584394
Ni 7.275897462160044 0.9242310233475841 10.843375433704482 -0.4991483113050887 -0.6797186860944101 0.10002979693109224
Ni 1.8005049551757122 5.280169028707188 6.506327832621892 -1.5975348946603325 1.7587566897197129 -1.3310436515374755
Ni 6.913679731839032 2.8402603296254787 12.438546719155102 -1.2378897557906101 -0.45668525704487156 0.9343437739073006
Ni 1.5551515135715477 1.8580679508111098 1.1902774474657885 1.0817566881080467 0.08529557604471116 -0.04535271710318641
Ni 1.7345130276534704 7.960994889452617 3.902617192326929 -1.352659430035038 -0.16363606092782784 -0.29138132149631757
Ni 4.167260303402748 7.354546367961349 3.324546376642455 -1.3349923517725784 -0.9124690853213963 0.577177949816006
Ni 8.31714668597751 6.567486931098809 5.241978995962734 0.3386605661982554 -0.5049548906845368 -0.3254245271239557
Ni 6.718383824501636 3.413753628702017 5.5850319969410265 -1.1254371597151327 -0.00026328096371567563 -0.1718813316557556
Ni 2.011029072431123 3.3953747546630337 5.0214044412340835 0.4142312016457188 -0.36051571440013397 0.8674827504186932
Ni 8.804956406775753 2.7359624828623796 4.838396123968466 0.15343675179732286 -0.43805144399376816 -0.679916661037829
Ni 1.1853740000867177 4.764401690651614 11.238782875522789 0.19262447774037794 1.333158383887633 0.6180104104513356
Ni 6.014862255007422 7.754617335896641 4.682565906199214 1.1930620579529583 0.19338526716580243 -0.7042693788505807
Ni 7.124031830076344 8.0374256552837 6.855515575003541 -0.40133120575459913 1.877973086881585 -1.7567039209557422
Ni 4.919789185790075 8.156616727561147 0.9682706080706519 1.222757785245178 -0.0016493626779649014 0.9705258802548125
Ni 4.33654512447709 2.515533691617487 4.422794554788606 0.5521732002415523 -0.28086113869128404 -0.9478220108993934
Ni 8.040150798675688 1.3293720255005272 6.790559383042905 1.6189192738733795 -0.06994326195835696 0.25107953655347726
Ni 0.5484500461311039 8.70122893886214 1.1591293301043506 -1.5498111062218083 -0.9012971278649766 0.11592332823289714
Ni 5.380157346385283 5.053945912642123 8.138534812669198 -0.7397979107744936 -0.6522988993205604 0.03698454764414921
Ni 3.444834749182722 4.685752784850308 3.773738733240756 -2.559667151534811 1.2445322008077921 0.4714948112538783
Ni 9.210079301663633 5.188700179241252 1.4030061242426242 -1.4759253146759357 -0.4594517640464152 0.12876958806794597
Ni 0.7615091804953402 3.011817612465232 7.243422082269485 -0.07783294911907887 -0.9598663436584373 -0.48832988053334614
Ni 7.99081755501144 8.453304265619025 9.006733809642464 0.9883305125364011 1.1894797399183386 0.09371002536065151
P 2.94481167809946 1.1351535004343818 10.739197094890798 -0.49576473954483646 -1.225421191009954 0.31185450174900486
Ni 1.9138745417353928 2.6852259261557476 11.872467439758625 0.8796127009130077 -0.6564843981568177 0.8026212738586178
P 9.326599552344282 8.25974665572768 6.190399514708031 -2.060636082533877 1.0155777782881283 0.7060645230777904
Ni 1.6404186247533934 2.550091406990295 9.480149160078845 -0.1948425684376193 -0.22699549902108002 0.1767234902394053
P 2.4413120121240945 1.655185099412301 3.3397184540387737 1.1519254358136484 0.18122009255817823 0.6330847882859548
P 4.232401189467026 7.00647041165457 5.607558340042698 -0.21234406765649236 -0.6877166166982221 0.4447501961701824
P 0.1778033839232482 3.6696183376752756 12.9855300768161 -0.08416506198469376 0.013101827489280663 0.2674358664243136
Ni 6.978775349740654 5.283265371032967 9.663421843414383 0.6241381206156282 0.6454571938083787 2.1382417461334984
Ni 5.558477692726081 4.777891603123577 3.848539845216166 2.7450699147157693 0.26024551932346146 0.0028315559115241556
Ni 8.275391332742146 7.159612605925213 2.8866438998109567 0.09714604762539399 0.09901523962364883 -0.1364139919870812
Ni 6.4934734851536415 4.764899640440848 1.6099984194474897 1.6871036441591007 -0.18089227690511428 -0.9695105516164206
Ni 0.9081879865017325 7.217528693229341 8.157072125277482 1.522748188566745 0.3672926281126513 0.26630406681271557
Ni 8.060331345588443 6.114406944691473 7.677442361471467 0.22573154470699192 -1.3473891827750344 0.31676736566958996
Ni 6.428694744390623 0.40289298519536687 13.009660723602359 -0.3730434145534995 0.12934860049986754 0.4719707224490323
Ni 1.1779319141458091 5.684395613974448 3.9268926972336904 0.12483580023117855 -0.48216874602795673 -0.20731498987301716
Ni 5.172485123377301 8.86811454731563 9.847517501947038 0.04487192081202594 -1.0786299695536068 0.2320690568892455
Ni 6.017569291134346 1.0153196202471966 5.5091969601305175 -0.5963390961254891 0.23956227994249707 0.1623736492756365
Ni 8.062486110130944 4.559336913812709 3.4385967963685053 -0.6319283060840084 0.10913895832121204 0.7882711757845328
Ni 0.4354706711335317 0.9838039254049791 3.1999213141195892 0.7468746151156169 0.8744555821921004 -2.0113022692957556
Ni 8.076736527735555 0.23346873818003952 4.62143940079941 -0.8748373910115514 -1.4529895318153687 1.0780504429010531
Ni 2.0970566887456163 7.082529978551862 11.359657923451097 0.9835667725991706 -0.3023509331339438 -1.7879042578179465
Ni 4.475101916739456 4.426891323509118 5.950915543074051 -1.7464128234423795 -0.32464882530019573 0.32857747093064055
Ni 2.806408797590129 3.8998431593192713 7.780070718395754 1.5676692174491518 -0.45932757976372507 0.8620474383357347
Ni 1.9409720639022292 0.19663041277254192 12.536629247185314 -0.1528094026259691 -0.8089834686312195 -0.019153175889683145
Ni 4.785505708082584 3.776451201547199 0.23646277445821284 0.8051800357247294 -0.9852233343659871 0.02731437154423683
Ni 5.80046318302852 2.076794659140077 1.4472901570440433 -0.011544510304489795 0.40200997698917856 0.02376547785071391
Ni 2.2216708869094437 7.79466155258355 6.156741730408856 2.105832733675173 -0.8948860821323105 1.3485132690771486
Ni 0.5260278198035441 0.5881710481366372 10.651806906880312 1.0647154163550436 -0.943278100282453 -0.8067178125254945
Ni 5.509914007827013 6.130631054187956 12.634659264146842 -1.4407608509596606 -0.6072557430379928 -0.24747150748724475
Ni 6.30911436591432 2.7793565435859504 9.890794770810952 -0.7082044522389287 0.6660285902018271 -0.623717745248758
Ni 1.4215017901412645 0.9634785203717189 5.354081979331256 -0.10066923028730404 0.38792290276849317 0.6086328258911776
Ni 0.616397558280154 4.717005924349112 8.94540902969022 -0.5847184811674252 0.6466830957956798 -0.6517738800550259
P 5.339787198927239 4.224678440917641 11.352753623282563 2.1302687552303503 0.02602496330885195 0.06288712644252395
Ni 3.691663932889524 0.1591737242631416 4.967221166622703 0.20357069233923653 0.05381061806255248 -0.7636472065882655
P 2.385306241284118 5.743425298079951 9.584313918443732 0.6208558503199308 0.3631860621434455 0.19142351545374128
Ni 7.246301137414507 7.056799554897284 0.4077756092196151 0.8119286673024727 0.968601666648906 1.364917678577101
P 8.73781466792201 4.506690040641926 6.161234142870995 -0.5482476399349009 0.6991760234880733 -0.5710150155384037
P 8.294702730931876 8.59388001793592 12.494134212172122 0.8666612829586623 -1.7258185442307954 -1.0662290247860926
P 5.233506606639739 2.9419597838520315 7.519505363412132 0.012083413527095318 -0.45951038519849247 -0.28289950927755153
Ni 6.31232840546301 0.9351044360179385 8.208485893697473 -0.4185987345857952 1.4516852111816483 -0.31541290852422454
Ni 2.232680104067771 4.156830518726438 0.5461775843656927 -0.6477354483195942 0.533485908244694 0.6967612433989936
Ni 0.6371711181237243 6.746060779150489 12.960234227523037 -0.9133825982746012 0.3233409051220496 0.1554841212446548
Ni 7.458310050405088 3.622285946800494 7.888649122619755 0.3905225451748694 -0.5385239848892338 0.22450718538158757
Ni 4.519030141782387 8.618958580048227 7.235737358976732 0.3448368702122965 0.3952739438169257 -0.12371171392906435
Ni 2.673456203864773 8.777053111313611 2.001324483720588 1.4430259928447533 1.4202519323730314 -0.44209784614899994
Ni 4.598330909125961 6.349203850763886 10.223113785059875 -0.465757651659785 -0.15470661964868193 -0.19619034071476535
Ni 5.106511303120122 0.3821782739632515 3.0169664132859064 0.017013246728544894 1.19828859645922 0.24141578821146809
Ni 3.368539787839611 1.9113847927892251 6.556972947639956 0.29405166923962905 -0.02858295384401529 0.6170004811295826
Ni 4.066167442555807 1.643252411735759 8.996636293280062 -0.42956217557583437 0.04607699686372064 -1.4477676212947967
Ni 3.580711666215759 6.553779731446089 7.926625489636465 -0.6113733647507922 -0.7827695292400131 -0.7176301164282028
Ni 6.657154107690973 7.483017413583603 10.935442728280751 0.9500509002299121 0.0390933664570359 1.4211924419094297
Ni 3.127269534507162 6.963891177858836 0.4897245640786592 -1.7939615197556202 -1.3539483240497907 -0.7146219257294982
Ni 2.9473104806781594 8.455051616697608 9.163492024746196 -0.8539808592775163 0.05732583030466256 1.177627725675759
Ni 4.005960786221205 8.15710562371785 11.971054255120842 1.6947364781140104 0.9991746543397566 -0.7928999328057957
Ni 1.4821611281024416 0.7107210180832781 7.834889558010849 -0.49243438962002295 -0.38680370156238547 -0.06662036823271107
Ni 6.174876156369488 5.9198715424867245 6.2614107761057465 0.18861587080161707 0.4085963719574447 -1.4470122311860112
Ni 1.1520837932683226 3.5751889503715324 2.804978323650149 0.32511728029618203 -0.5234012703151825 0.20603278072648387
Ni 8.919475804666938 6.874912077339068 10.300777655641753 0.5918694903899097 -1.214767310840534 1.1202885256346578
Ni 3.4925021244611694 4.82475320510672 12.096831845064967 -1.7365025063072028 2.048513845349046 -2.1584930401833664
Ni 3.616129476679061 3.1662906907180086 2.130123270840483 0.19309061874351907 -1.3569284897240372 0.053624984414307644
Ni 8.980424858869123 1.506868491280957 12.841572792748682 -0.8094470385311995 0.18441648800828883 -0.2459293598111055
Ni 4.39293114788339 5.553380497610836 1.8469111594425192 -1.0729979680788102 -0.18615866751037619 -1.2407195119299212
Ni 7.406668130445304 0.3753373492224357 2.209840505280508 -0.43263747206704845 -0.38377597047965517 -0.2795030820014929
Ni 8.181233554414348 2.7112551196838646 1.5265836814815927 0.027661213360694298 0.38843120986347945 0.6007035437417719
P 6.138390017267467 6.7579844131944995 2.5813427357625924 0.4345981953378451 0.11397108960253274 -0.500972508998021
Ni 8.322361578315665 3.6307510932174645 10.721918237204394 1.1289752547753782 -1.7130216495764432 -1.4478802356132614
P 8.435550092224716 1.7340784532919575 9.16019288105171 0.33622907393862744 0.7216670055017378 -1.3656201039607643
Ni 3.7540253537666266 1.3063033698102169 0.04170555825644221 0.40296771291675765 0.4001536405067302 2.2584768143678713
P 1.5680529399289622 6.658819976076773 1.937070853644398 0.18603062657294414 1.0780046772647822 0.68107417168104
P 6.255942382056709 7.252158837662401 8.63642394256478 -1.5833807146471377 -0.8190557652655572 0.8554834119649718
P 6.667013513517798 2.175198591125157 3.4895334383540844 0.16116805900330952 0.04186938654027628 0.6784840423563605
Ni 4.978719279937732 1.580872883593593 11.504092333952926 0.029608566895052237 0.7058750327748037 -0.9606389601584036
