# total energy = -340855.7120507346 ev
CRYSTAL
PRIMVEC
9.38144452312652 0.00000000000000 0.00000000000000

0.00000000000000 9.38144452312652 0.00000000000000

0.00000000000000 0.00000000000000 13.73069235053477

PRIMCOORD
 96 1
Ni 4.021525086361324 -0.02241508554135861 13.799071145905435 0.20063577808062866 1.4503891180780442 0.3055432148189964
Ni 0.16890728084411205 1.1691437682253103 0.3649325653988721 0.5477043658369213 0.1830946838730718 0.7394544113921458
Ni 2.415787650148006 5.465498273635771 11.136154668127524 2.602521527696176 -2.60628485139335 1.3477437379009758
Ni 3.5790680155091517 3.0272326822677016 0.19242562426839194 -0.10332260874975108 -1.6199847390234166 1.4872800775671224
Ni 3.0841311436615575 0.8054523679447246 3.772576258482383 3.4751318291494213 0.5449530283440293 1.2088666290853827
Ni 8.68223613647328 9.199857341321756 12.013436066519414 1.2544584587825687 0.3108168045131099 -0.29283013812770214
Ni 4.263575738038633 8.822835846433662 11.47158165216946 0.1458795082753552 0.4894832774114989 0.3720625386974689
Ni 2.13979493197062 8.04573326587329 1.1281093296207387 0.09159066502480355 2.0616856068443137 -0.7342569263516064
Ni 8.000768001988583 7.319112238612232 9.250902719440488 0.07220017631333372 -0.43581946933945587 0.10084637929511664
Ni 0.9422441495490037 7.258085941602004 12.730631556408271 -0.055698836224200854 -0.677147582933124 -1.170533794943455
Ni 7.678290225904098 8.721647585165051 0.2771016049270571 -0.03144433455221036 -0.3396476127018731 0.47446032164010543
Ni 5.153668437152609 -0.14455117441860033 2.3060144289417988 0.7119124972181352 0.4033158402847957 0.743727584846203
Ni 8.754210579311478 2.349498362726904 10.187459837283482 0.6336038940142185 -0.7297664946804207 0.190453181120672
Ni 9.272469722391573 5.819000486955125 6.0722891710980065 -2.127118382526827 -2.04436279929515 0.7617864992304428
Ni 3.4028563419129774 3.7463766981963778 4.890214019659953 0.24935406922193828 -1.606443510003872 -0.07794144967248512
Ni 1.6591835260007537 3.3958953100326412 9.686303067677581 -0.5495182791172085 0.28444062851242624 0.5702915071088178
Ni 5.617862315102813 3.112622590859108 7.338615323755131 -2.290239194381133 -0.028364924295938246 1.7904627625737424
Ni 2.2710319602375035 8.054120277330192 10.498995096406746 1.2495409668762931 -0.9984701720735641 2.509466105200388
Ni 4.522691237411807 8.62137870546554 5.410496740336529 1.2242626519254787 0.9674994347236628 -1.178077668728984
Ni 2.893875447525136 5.883019464787222 0.7131173759287728 0.5839044699065622 -1.276959210988246 1.631166723782165
Ni 4.652511667546708 3.7364511298279193 12.119038297464169 -1.1136034003049984 2.746813379769437 -1.3888597912149951
Ni 8.221869887912803 4.558603407274244 10.1843977337717 0.05934054674184619 1.8900320749286483 0.3172831289637439
Ni 5.502320443622726 8.122661111451134 9.618007089260246 0.6874461366456548 0.5686380306657949 -0.5135981681818316
Ni 2.9224700906130954 2.309589697472252 11.50715796631584 -0.5187272618782808 -0.20587182966858736 0.2614246272332272
P 2.7445979013257893 2.1488761703266386 6.551064628363046 0.9566336956537523 0.344641980592671 0.06439430711566975
P 2.5815577759236756 8.009849240344602 4.554772963451143 -1.581592255288147 1.0959391502560158 1.8438445206289922
P 8.85462956212431 5.539508489948405 12.90209997162345 -0.32443336685527996 -0.3326022758193175 0.16160257543756684
P 3.263513745526672 7.217520575226565 12.806287278100706 -0.8779085737377075 2.0418222922614837 -0.24231541720760205
P 9.434731187893325 8.397255994385702 1.5999003013939845 -1.5115818875372806 0.8016473399811227 -0.31478890178698044
P 0.9628739461862814 6.388219637008251 10.330918073408201 -4.299593595921898 2.2255453537471737 -1.3454078906789475
P 6.375235717705844 6.3192003492135935 10.516969006082672 3.330265335519613 -0.9386498574818221 -1.066691052024176
P 2.7285087238665215 5.147364106393058 3.1041661567122945 0.1273567668808194 0.50778053305879 -0.7534394128173283
Ni 4.831246949735619 1.5905676403231508 5.675829323034635 -0.6731916836091697 -0.12377547728746426 -0.5122349692857178
Ni 6.792822578969375 8.042074502486052 6.84481923556879 1.1300654025157635 0.7130291273210817 0.23177338002569758
Ni 7.051459624668833 0.9871531247662153 10.657942097537445 -3.7015354602227735 0.05080654112890604 0.032913205788253
Ni 3.7148269000648795 6.570003888686528 8.91737078720425 -0.9850868087881228 -0.31455030341361306 -0.361207598260836
Ni 4.960476348861812 2.2059716420567304 3.3286772595978547 0.07241743453046237 0.05874687902190528 0.03959396024253826
Ni 3.554301001810919 2.3268703183935187 8.65158601887726 0.6682950176385006 0.15600065586975714 -0.3166637502121901
Ni 3.7029124654448964 6.683050295907626 6.217148056898918 0.2746514103361464 0.1426885121418833 1.9101345021054783
Ni 4.7584844655524785 5.484955389700215 3.7821744144349063 0.8003108805578862 1.5843698180332841 1.651429330685943
Ni 0.9645813691003263 3.784146394086182 6.428970755986425 0.5251503917958052 -1.7265178842906654 1.130850360310904
Ni 1.4057719449338393 1.4355861758175448 8.204157720540733 -0.3165413657017129 1.2837014148080859 -1.3806967957882286
Ni 1.8563345839054333 0.18664853069438755 12.62741784125426 0.2813277939150574 0.16584309588147567 -0.018037831338317323
Ni 0.5828231828424466 3.4631696491349233 11.981567299272104 -2.299612665176233 -1.0741966163726016 -1.4789563881927754
Ni 0.5545559521704223 5.252820924946782 8.558024872054354 -0.40787106375564597 0.5116950376218478 -0.5496964565662855
Ni 6.234626626300879 3.551402135434876 9.492233814318306 -1.0062606146522606 -1.1789315320888472 1.4905677471794587
Ni 1.2755950199047965 0.13773649307375332 3.0438340866011835 -3.6483609330823237 -1.4851653452169649 -0.6405798111114194
Ni 7.963617481441234 7.30417697883663 4.696857756088961 -2.215331132218333 -0.6667754956701807 0.6156455097635849
Ni 7.847859836735745 2.111190907438078 12.651720473445653 -0.27767939852919277 -0.01133573672779338 0.17856774253699567
Ni 2.2180549426792013 9.290153745429894 6.44260574754287 1.9029171584214322 -0.037553275663425645 0.3143047630617103
Ni 0.3705726898819695 6.567461517204626 3.799048818805744 2.1324768186252627 -0.431430853353457 -1.8113614603996224
Ni 8.955405039831286 0.6035533609367588 7.131748841840644 0.11693942820223732 -0.8397225495862894 -0.8631170172508297
Ni 5.146407199045626 4.838348703284695 6.042273239155774 2.1125093743644 1.3300607187989157 -1.2188995878413524
Ni 6.948301260037863 6.1108197021434645 0.7965446863134854 0.8638631513882348 -0.37473031533761914 -0.16443490268003938
Ni 2.3039795936118193 3.0297000021929423 2.6672281897081027 0.9291655721404707 -1.2029880588174184 -1.6855473554155744
Ni 5.207789990949997 1.6333376461755151 12.067919744077694 0.6900504070377212 -1.5836473380449632 0.5961570620216701
P 8.977986176941757 9.37881777818065 4.797572254406148 0.14119264432264714 0.5881581029765935 -0.07482450131005823
P 5.902138848846692 1.3036455392069612 0.6704449371000683 0.35356447989328144 -1.0102165139762151 0.06237599113406031
P 2.51409580792974 0.9919282800587911 1.4321657011227056 0.4893444378407895 0.593781619810958 -0.7396066206992941
P 8.252669170477688 5.1896744214608725 2.880754559131822 -0.34706473110155067 0.14547610218934948 -0.6619143109231375
P 4.977156557329789 1.0572888044662099 9.574727670967043 1.6973947416724637 -0.18312296600784592 1.4594743682087639
P 5.775236047976998 7.514537110713701 3.7932135602753267 0.0073438419595809 0.2124443406797825 -0.1356765996004244
P 1.539935983910514 6.6924786477132026 7.374095947166765 2.725516418063874 -0.6705866418861548 1.1830794928189496
P 6.714965970377849 2.6158188115395635 5.661699929348685 0.24050458925110837 -1.4946084929077357 -2.411152005408822
Ni 9.257900338954697 2.1812702984705767 3.1650348454535338 1.211588656002236 0.23345179616938505 -0.6015224400986414
Ni 6.928787855305921 9.315699419028489 4.445078546379429 -2.083670338645521 1.8811108611796183 0.0008993718858178059
Ni 8.4514807440735 3.885034449128149 4.786313582762493 -0.26760273101948107 0.1263092994529115 -1.361894575480061
Ni 1.3583205982347257 0.9178730328121597 10.40014844370597 -0.47773050775094505 -0.24029992943947004 1.137642443532073
Ni 3.4767539808906203 7.29287233811452 2.860075978982715 -0.21511211731993277 -0.2414263297344294 1.330428900771612
Ni 0.48436961266968137 7.880572933995494 6.1567737702871845 -1.1215792194216232 2.399002771640798 -1.4129160608332505
Ni 0.9841510624997629 8.522901681681319 8.882192246308177 -1.917292196196182 -0.7220169326419889 -2.818518104503591
Ni 5.843542345983373 5.557633440882112 8.347848616491104 0.8339581362986863 0.7326656706050866 -0.10289811961782278
Ni 6.8414372247967385 1.157764075946539 7.698757723550095 -0.9032843334983346 -0.29807236036324797 0.6901589075911275
Ni 7.766466423536555 0.6334998701890799 2.0743509127064157 -0.6813572501390975 0.6297153575930897 1.26297112423927
Ni 1.1597154164197332 1.5037798964889277 5.172022295334132 -0.4632757657781957 1.1135794890455983 -0.6295304952757932
Ni 6.522383675984926 3.3187047840064836 0.7153839329399443 0.2696688695198904 0.12277377549582724 -1.0963638964982603
Ni 4.567787841520672 7.29339769901115 1.0334665022374516 3.423138466801266 0.02630444222248373 -2.204111866463746
Ni 1.8719359262464033 4.395469467426303 13.298340293883587 0.9242627355222146 0.8074480058232997 -0.3000135432500188
Ni 6.689926894786718 7.884841491280606 12.205349463913592 -1.119579158272459 -0.8514843181079078 -1.4931941290587123
Ni 6.757604636006055 4.337501521350024 12.1943928747855 1.86875336805553 1.3037076827266838 -0.15296726836007205
Ni 4.577403822217902 6.25470291770778 11.417235881846548 -0.29829733188986046 -0.0950040615817267 0.7208013150673329
Ni 2.02494728738965 5.621952624940855 5.28022037199491 -0.3175818911510853 0.1525540920820534 -1.131247852859639
Ni 7.756400133499356 3.842058051494966 6.993920410609982 0.02791960922840353 1.8698280891769474 0.8903375435296795
Ni 7.141652832886563 2.9302097823937925 2.913954553365411 -0.70333632551335 0.7636847446944203 0.533163749018585
Ni 4.901007371652307 4.226706660828764 2.0585328589955862 -1.0115349756773224 -0.23979187945479993 -1.3657381175958674
Ni 3.357797263582443 4.418510295321326 7.326189600405393 -1.223149364256642 0.05465291145818975 1.0121206729774634
Ni 3.327729733695006 9.298052921768498 8.651901235415238 0.07494611448958705 -0.5416494178920929 0.8353516742121033
Ni 0.5376627849104196 6.382412522811582 1.2530195116610743 -1.5837548101571046 -2.462158835473992 0.2175754912587608
P 9.154591871210403 3.253025290483254 8.320456674598642 1.533095079018708 -1.583323379046641 1.334394313177263
P 3.723955045643811 4.2150079994341825 9.641170814079302 0.9012313076240478 1.3516345883149496 0.5900028694948162
P 1.1694815002302863 3.763666700562227 4.247726725560681 -1.074759687964923 -0.2999078709100899 1.0120669369213924
P 0.7238131608974678 3.6010675030554986 1.0193708817519993 -1.0453233849816772 -1.4376148491315113 1.1357238863531214
P 4.868359944504638 8.292737320290247 7.537353722083197 -1.1944607380726977 -0.8114067333607317 -0.16303699389124826
P 5.096563583977933 5.256470306889439 0.00469822744699803 0.20994317152448355 -0.7465300872920047 0.1554334705123775
P 8.56981828603922 0.01335542450788018 9.833743727027642 2.0446062827645237 -1.045663284819599 -1.4572560204012064
P 7.1365305641444285 5.943464112233326 6.483056660294399 -0.7158565694675478 -0.1571838775445809 -0.24354260474648376
