# total energy = -340856.40871005366 ev
CRYSTAL
PRIMVEC
9.39301063634032 0.00000000000000 0.00000000000000
0.00000000000000 9.39301063634032 0.00000000000000
0.00000000000000 0.00000000000000 13.74762052635251
PRIMCOORD
 96 1
Ni 3.7947387947551037 6.509243774442692 9.400527096156068 0.9785703478258438 0.1981207249682588 0.4225551481303819
Ni 2.894202669472784 6.759595691532484 12.822378390614865 -2.741177264529582 1.006537265352415 1.0272948096147403
Ni 4.841467740267249 0.49826352997143086 0.216305070810748 -0.17548524695693005 -0.3259696009941483 0.835007146388491
Ni 6.495238795326612 7.8659796486919955 9.505558803720183 0.7498565805620764 -0.44719608660751375 -1.2660302227805678
Ni -0.09836454849195268 9.409354647714279 8.789527711155056 1.49637278389701 -0.0012048189413785702 0.24697939834217467
Ni 1.492671526675803 6.063460874462785 8.65958479962464 -0.9385331293982998 -0.9195527316410549 -0.4405991501162863
Ni 0.740567515400152 6.6140228100160465 0.42657888938109695 1.1574558787135745 -0.505575040767039 1.6578408906392417
Ni 3.1364765972669164 5.407537536666016 1.8733336220186403 0.21852371410464302 0.17986075031680637 1.0465755122212232
Ni 8.396581436276332 2.1490645150130177 12.669477082065319 0.25969710301915916 -0.08013717177222328 -0.2867497362615771
Ni 7.6075309562849265 7.4793069657325395 5.587843893551629 0.2394571218232005 0.5761510512133883 -0.7546036083287585
Ni 1.8576839267099206 0.14785444384192073 1.4416167557250712 2.1173425340869856 -1.1154234842328727 -0.024911675640015164
Ni 0.7546034914519013 0.48095878615818183 12.088887569558144 -0.3254222131311105 0.49551894208261765 -0.7703762977819829
Ni 5.614803713175352 6.5038427932275695 2.2266470270902645 -0.12626841891264706 -0.20082166883918964 1.79862832910367
Ni 1.6356989022630266 3.398682493997549 9.566350369675426 -1.148805659237744 -1.2481993652467342 1.7669094007338346
Ni 8.895942069910241 8.27887761782992 1.9460993981530792 1.2497541113283637 -2.2323590342348973 2.024189666781385
Ni 4.825574765978578 1.968061196725384 8.919813467579997 0.24037886230652147 -0.1456349963647169 -1.1213807302575718
Ni 3.7398366465770434 2.108561852405012 10.878079632633854 -1.1844028396160633 0.09079876525112748 0.972778423734415
Ni 8.435656361241383 7.386297372702744 8.181291749934026 0.7255306022222021 -0.5402551086477276 -0.5337759286812872
Ni 2.2010924018835527 8.014182573234928 10.921151283698096 0.3823487511148254 -0.12635017999317597 -2.565009389683331
Ni 5.970601569605932 3.6656882192515337 5.377409454496447 -0.23620956142018032 -0.4185216014909567 0.8814950055373851
Ni 7.412043615329957 1.0262240029163014 9.523650681839216 -1.201477278599847 0.658428409257066 0.1597295267845701
Ni 0.3803258255558782 2.1936813163553253 7.82543471753535 -1.9386984297860996 -1.2636049011685269 -1.2954888943613174
Ni 2.7663074342987093 8.342252261757613 3.9850092575068046 1.1420742540511815 0.6585129985510723 -0.33432902870243714
Ni 5.049832899041228 8.530751202670755 3.805492852830221 1.3281349625311125 -0.4460198069112254 0.6213983530869621
P 2.432536188215016 1.8253719695272814 13.27467534359075 0.4369301859051314 -1.2005144004659452 0.6020024650588536
P 0.20546741493943138 1.8737271891715332 10.51987152962971 -1.013865680693028 0.249817382011602 -0.9729046648996342
P 2.2560133360832304 7.967799885860546 8.299824031933783 -0.5986877988633237 2.4063556124614425 5.114304968175831
P 5.334309624399778 7.047942337344304 0.17135012107932016 0.02549865849173673 -0.46275871693246107 -1.144096683797849
P 5.606378182479763 7.357319934357267 6.752776365685217 -0.4102950998161063 1.5634474660583204 -0.7113792504224845
P 7.151876001944857 7.570954572195043 3.2685517222509546 1.0284970574529577 0.6467023790693895 0.39163788972623526
P 8.878762253140751 4.089491473938598 2.7427600955018607 -0.1961749140957976 0.8936462961879383 -0.4619611607318302
P 1.7457192378677517 7.368770014533325 2.3112771151774334 0.002225032675776813 -0.2985516139925116 0.1297548347993507
Ni 8.187831164059187 4.922623353656203 4.667454700623603 -0.8505558927563673 0.9363042400677811 0.2666750769988891
Ni 4.752478355863666 8.954977142844221 8.015398968134681 -0.5196505450234986 0.3908632163437397 -1.6898105015673026
Ni 6.347420984226846 0.2783365141927684 5.687459591083327 -0.6638385245290437 -0.9168720994850984 1.8435362453599542
Ni 6.92726093447147 9.11617060133587 1.404552874374206 -1.7259566124705568 -1.399082497384268 0.07817233473636859
Ni 2.6891814225467754 9.032600984169028 12.966934948361779 -1.4779217762806742 1.8418046073808279 1.8881292014789803
Ni 6.761915765202284 5.8553962920346905 7.440432111897717 1.278144489545599 -1.6623642324308918 0.06349082146479387
Ni 2.2787068501975494 5.125888107560946 10.828396241261222 1.9229812761611593 2.3297858463255037 0.8488646210968737
Ni 6.769026274384626 5.771610635619242 12.615998914325889 0.7962541939900094 -0.16702271801187363 0.9109508489046569
Ni 8.862878671862891 0.6494712786721313 4.595004529652344 -0.7877543840491142 -1.8208213202609413 -1.578714676630036
Ni 0.5067566903448444 2.5891740364643447 0.8283752590439742 0.3114773209152442 1.309232726309971 -0.9712591588764111
Ni 8.359939301110785 7.724107613434268 13.340635883394137 -0.9737554429357036 -0.13274219956244881 2.194863865502917
Ni 3.4433274743722833 7.250042357908742 6.913527413367768 1.0978224833216577 -1.0288932644501116 -1.3456025231882567
Ni 0.7315558608300867 3.7730879048405734 5.599584217761682 -0.4938826920307753 -0.5863454752478869 0.5197114801684211
Ni 3.4877188434551765 0.42418085372158304 5.8701649229295345 -0.33797408165419207 -0.3369178724755359 -0.5756805393348731
Ni 7.34071309124712 5.545389363297531 9.665732181237985 -0.9424298933495446 0.9607099226056551 0.19905506385707009
Ni 8.028976565258956 2.616047440388627 4.984667007952275 0.09058613501968915 0.8625583165338822 0.6665376686277618
Ni 3.567935155763241 6.315588070595461 4.916245499316956 0.04914766536924439 0.8792638022140212 -2.1140651488872946
Ni 4.867138838807991 1.8517287578570738 4.4224859180283955 -1.6104199781531168 0.8242203401856321 0.3852834082631171
Ni 7.207116298512038 1.882528440299479 1.181735629169643 -0.29679349365082436 1.6368874283160262 -0.6477516462695102
Ni 9.220498772390398 4.573278495651342 13.333941484590628 -0.7448953799020591 0.268360435121112 -0.34033255458403966
Ni 5.8631924910060835 5.8544569909538 5.076941128235733 0.22687234317965446 1.9358540183587691 -0.7712579290559879
Ni 7.8016469176617935 3.8257545164461138 11.161583242072602 -0.2785859695038621 -0.30607851849717604 1.9040222185601532
Ni 5.4040809086883375 3.9408846499308843 10.725467628817222 0.6179276209295422 0.1632946184280091 0.4765945943742889
Ni 8.37519355066445 3.6194276410176673 9.029561405871265 0.7709270280791304 -0.9798530711930092 0.13257970584265555
P 6.551324462866594 3.405126099412459 13.072667374532237 0.5507048432261419 0.9201417713753056 -0.5207404356535678
P 2.3643335367315435 5.136398886656112 6.446492826432709 -3.6299739459347036 3.8212300825726446 4.106816137543424
P 0.6945267336192145 1.3348125870213159 2.5884160204920663 -1.3598860296904645 0.45414372156994043 2.078902999163865
P 0.18250432141489695 5.025946472554177 10.81195377584023 -1.0159048226102438 0.04546456009070235 -0.38119509712635635
P 8.214573065832145 4.1246307273747185 7.030038319441447 0.1434734699370239 0.1182252368931964 -2.1841531639536322
P 2.1101962362857614 4.828101485886174 0.12074809324957754 -0.4795233379853096 -0.505607179556555 -1.4716038044824462
P 7.814252338167347 0.5729670842357474 7.186802034035616 0.9623924525144006 -0.9515807066108772 1.1383530964458524
P 1.0392051438542105 0.9843781397626217 5.78270284208348 2.2272669644239707 2.6295114260214585 1.0863268239772323
Ni 2.2954733744914475 3.1529049731716943 7.550674122557532 3.5669592927753793 2.1270170810622724 -2.681688879355962
Ni 6.808232701501003 2.3938463766931286 7.375887098823234 -0.533701623799926 0.5171221221746901 0.10970460101669494
Ni 0.6477269965649173 8.057512532096414 4.206208086948993 -1.9727190097059186 -0.9223174388703856 0.29312555788093386
Ni 3.007538737893053 4.153392126471591 5.005288423882149 2.785859952148938 -5.1638933206269195 -5.071260844601163
Ni 0.32807438502809155 6.288705273660369 5.870440138146235 0.717342667094771 -0.07058912307247196 1.6004510398658631
Ni 3.9286361638360696 7.993574307520186 1.507288930096624 -1.4655205744028437 0.6483198600681543 0.17159593920485286
Ni 7.058471902461089 8.367275242552541 11.794179976826532 -3.332907144017834 2.331440094099475 -0.619556671892533
Ni 4.1436797532951815 2.860979590241681 1.80165273863263 0.15183418319689335 0.22777325772736903 1.2897694753790367
Ni 2.7947870430713144 1.7873866338160624 3.4932015438643353 -0.8620533518730058 -1.668155128081056 0.5025036009305668
Ni 1.0652425698165 5.6319271718799895 3.7830012884482938 0.534667330147305 -0.02578173694979431 -1.0399639204419766
Ni 4.455631035269785 8.388832202358984 12.021056881302705 2.859353136242082 -1.072861699611262 -1.5829551970739448
Ni 4.399686262891936 4.930137762303329 7.079653141835174 0.3926974413390011 -0.8425857300666973 0.8034818220867002
Ni 2.382706265873765 0.8946307393867601 7.927964127019972 0.22739581978329224 -1.239627307307007 0.9532056438088098
Ni 6.686912573893163 1.1201635040161781 3.71677962294442 2.4142949219131777 -0.5821116396721976 -3.9164704285348937
Ni 7.773608780397207 5.757258115103232 1.2817871624028752 0.8003990693963183 -0.06646507360176941 0.6276628459394352
Ni 6.782167096506288 3.5421419480819822 2.9498402903971814 -0.00271045695262759 0.1612711602400771 -0.04764562690242117
Ni 8.567938132463217 7.127360243733611 10.835008920870692 1.869677679642012 -1.0542638820044166 -1.1199997907496453
Ni 1.3120063567772902 8.529934010730381 6.61272939242766 -1.4795724245102195 -1.5160404375292664 -1.5951458256028657
Ni 4.305295897273232 5.292313473073156 12.591198547887133 1.7516283062050477 -2.2128711007136146 -0.7910711071271731
Ni 1.5444270162328797 3.4547869475591497 2.6485341075723126 0.3749367749214704 1.2527612735858038 0.8316302594964582
Ni 9.194433167395681 0.5317486742041025 0.49666953603715935 -1.5406021860290307 -0.5790569120062737 -0.850151201118781
Ni 1.45033722696006 3.3516235098449263 12.132508711754708 0.04121092702067096 -0.6738455151430847 -0.040040046641021364
Ni 5.517238509903238 4.634398816984898 0.8255197837580666 0.4388775394394893 -0.42986839396234355 0.13227374456646251
Ni 4.475929331627833 2.664975633692223 13.271169871956866 0.12323965938865226 0.9561894090274823 -1.5126010728304142
P 4.9599136065675635 4.668345158048288 3.4189779724523537 -1.1080017378475047 -0.3007902735150432 -0.6703349308866648
P 4.995259506241479 -0.19028361296683358 10.008653159150633 -0.7657467694297716 2.8325149330033152 1.8303621698718413
P 5.696212937856148 6.516025528246723 10.972127153358032 -0.7917172253516043 -0.638171458780243 -0.8962181706801726
P 4.272711542777134 2.4468417436769805 6.333404733497795 -0.017101692677293126 0.4429352544486307 1.9356146486544537
P 3.7906904070964647 4.210294985951949 9.40063699438253 -0.7002296615635683 -0.7253475396771185 -0.7904614985676323
P 0.6769054453417053 7.655031411945568 12.27203343361129 1.4579569031229729 0.27997719342443395 -0.100155266765363
P 4.690785060870765 0.7916964911362743 2.5230866910150387 -0.3575036670466875 -0.09342926089543908 -1.654550392813428
P 6.530049293384421 1.0190665286799145 12.719408448923307 0.02233491605177444 -1.078172313190898 0.6867056589352044
