# total energy = -340893.2175680566 ev
CRYSTAL
PRIMVEC
9.05098580636124 0.00000000000000 0.00000000000000

0.00000000000000 9.05098580636124 0.00000000000000

0.00000000000000 0.00000000000000 13.24703261527952

PRIMCOORD
 96 1
Ni 6.173921645587316 1.9503335272699829 11.295744055147656 1.2673641111006433 0.5252054134034567 -0.32684840405467586
Ni 4.505155228947136 0.2674068436787497 6.090257050115628 0.430049142514582 0.6030581600168775 -0.04029510007462093
Ni 2.758577489214462 1.4616074585221128 4.882922550086792 -0.4591422032257963 0.9271575405715065 -0.02898995947444685
Ni 3.785538517871764 4.570277070246484 5.164845364450169 -1.0950369501567205 -0.18506697710809417 -0.25359099012142133
Ni 5.219431858526106 4.5750559906364865 3.055176476707359 -0.5801349755618008 -0.3051102410466358 -2.0110315321328716
Ni 7.303529901788178 6.0227520843111915 2.626515463611312 -1.1908946179879942 0.5721054203891051 -0.22627636146686836
Ni 5.038267331014256 4.259873519536108 11.466220273779673 -0.008365598355875916 1.7016499174043918 0.25543292842616655
Ni 5.395554987065929 7.70693232940624 12.537998162670172 0.6307222015910492 0.06175429838966138 0.023077193534437674
Ni 1.9195873292305268 6.474541080878013 0.5782303601203687 -0.12493710169573322 -0.16757164853680817 -1.153941952023045
Ni 2.6244690357700633 1.4466371283610118 0.3636007184986908 0.29155127141527853 -0.21835170730315298 -0.3450878098808379
Ni 0.4014700421952126 -0.07425247555963806 4.910767907245575 0.8398511047443535 0.7500604690427662 -0.4245883765103269
Ni 8.683904764665863 2.414087926782981 1.453636255515534 -0.28997775628057154 -0.1821397761589702 -0.14166444175274312
Ni 7.083708614833726 0.6911079166730533 4.862257339794272 -0.9536342467057964 0.7727980198495982 -0.5657496533744063
Ni 0.8068799784164997 7.401488718797608 2.613759004524821 -0.5495751004970729 1.6171611535316925 -0.7025896771553126
Ni 7.822241885786185 3.795060154709417 3.75917661725071 0.010848769789045832 0.0001072150018256218 0.2485310591000107
Ni 7.763709161994262 3.698603801307449 12.537455103534944 -0.7507466964765136 -0.23364977111280405 0.29709405561037866
Ni 7.786463339760289 8.905237566213364 7.106529769893098 0.3469780849250153 -0.18519784625900362 0.0205827092473581
Ni 6.803119010647332 0.5860893309056674 0.24646105283303005 0.24589567835969264 0.4779436522030156 -0.43089914921970307
Ni 1.6744413846033055 6.401318607478189 9.151685947666572 0.9000475717285918 0.9644321086522486 0.33731433658300614
Ni 0.004807883543879633 4.87801058020866 1.5472008190224158 0.6943942858287138 -1.3816157080580722 -1.3072347220433358
Ni 6.7249999540448755 2.067697657378204 7.078564939724564 -1.2790862846335778 0.1407208468925512 -0.4462038978975735
Ni 3.3867701948743076 4.305680557592537 0.3094622482093157 -0.5638624636540225 -0.3766082490866224 -0.00687538696359461
Ni 5.929273505167387 5.814000152729791 4.830278397517851 0.7145620190258404 0.25585356090335293 1.1462533251295357
Ni 5.3163498121930175 3.043674484223243 9.076138276069418 0.9019769275408208 -0.4628366213582481 0.8438568834696369
P 0.32236261796664184 5.308882749083641 12.621069918585901 -0.03811711858669564 0.18512097027448118 -0.520459156967723
P 3.8334182316276437 6.121353521297307 12.490705857878895 0.221175035684561 0.07522687895479947 0.7632062623961049
P 2.3230531137476995 8.518000198853901 1.3347180711820035 0.6360718959387368 -0.4575943991227022 0.22991241555755887
P 6.253054412575531 8.020404164230651 5.881762166524903 -0.29806876081882216 -1.6003697930059664 -0.4117539437498199
P 4.8364575053781795 0.8695200394678593 12.42251030187416 -1.3633084251084522 -1.1756286929678592 1.1003298231245435
P 3.9173661229482075 6.13842368011462 8.111594654218031 0.6978483058155852 0.8641269465725826 1.6583404559834796
P 4.505508217385034 1.3224304531489255 3.6214206166147007 0.9707935320939022 -0.7581391322858427 0.49920924645001125
P 0.3212936965688027 5.6071941830496215 3.4826318985232008 0.2071884915974819 -0.5941971100818219 1.220434022208008
Ni 1.3757860131850146 0.9749902694160425 2.600286612478389 0.14254427325453514 0.8365490369543142 0.34649523175132585
Ni 1.801182335779786 6.776825897516741 4.771647017983028 0.7248158355433646 -0.4768841005902496 -0.13033256167969168
Ni 5.866649735890085 5.516557613380174 9.328175641122673 -0.18102803115203017 1.85332572064655 0.03585171959128664
Ni 8.167147793554673 2.2671542267616296 10.09959023761459 1.8119067913801312 0.7940224764460132 0.19118106042563202
Ni 2.211925112709006 5.5767104635921925 7.007070299473322 -1.6305100640347725 -0.9057358803626208 -0.8740732591520172
Ni 0.4393085925407382 0.12579240788695012 9.069872278747452 1.099746696927564 -0.1585131378789657 0.5966553418143272
Ni 1.4837099653258667 1.0366003283075875 11.382234368319644 -0.2311627430248922 0.12122314317925574 -0.9062197619775748
Ni 4.097091543751705 6.949844538000179 1.7230551332903008 0.22784113485082697 -0.10521725466930267 -0.5572806966714466
Ni 5.809022110656874 7.875244457384377 8.144739363438076 -1.9732933941521498 -0.6904543273443593 -0.2154517600475386
Ni 5.553476583590048 3.070483503532301 4.772667064058696 0.1505900263771471 -1.4854862188914932 0.6842291723702538
Ni 0.6531824768658913 7.663360884789832 6.984431974322811 0.29422316182048686 -1.3137357563866472 0.47631742945350225
Ni 5.256160758038651 4.660153357126614 7.191695018775129 0.07090099788593597 -0.10264460884612 -0.9691310567898148
Ni 8.199260690417786 7.2899262704507315 9.238241427934787 -0.2977327176356421 -1.3453022183390184 -0.22437863022352325
Ni 4.630982030579317 0.18334853033402274 10.280770151801939 -0.12365952053489025 -0.16736621739422142 0.5908827009966081
Ni 7.92135017796518 7.2115537862518355 4.596283267133965 0.3080531257250437 0.5908148238731502 0.19208248919397886
Ni 7.153048215416673 6.218886941984143 6.979529960528825 1.102316000316637 0.13371819032247292 0.018092338725336585
Ni 2.3839119408355134 5.203103880526937 2.619335316745047 0.45688323198829056 -0.3339338501465475 0.2234445484450281
Ni 2.251876163090566 5.15877215312121 11.342002737384881 0.779985795847289 -0.25962305524811413 0.74432150967646
Ni 1.3846107241324592 3.376099082867089 3.9894762302193736 -0.543554862444922 -0.04368664225467315 -0.2177094457334638
Ni 3.8153524643957466 2.731379277525158 2.1177767606317546 0.18340450180400672 0.13797465160598174 1.6207133896593249
Ni 1.0601871967476295 3.3217117104740685 8.214908939399361 -0.38737191536102966 1.908698798100216 0.5961791735088571
Ni 4.089081421507101 2.5957955134300588 6.986869404741422 -0.9850251023122518 0.22293624135004186 -0.9144897152958509
Ni 3.9842167024946966 6.906345501268468 6.0379839879557595 0.7186328466611043 1.0039707901768193 0.07999164733329449
Ni 0.7624966603929257 7.086930765702741 11.39369291607294 -0.3874099676878167 -0.023991992039223198 0.6929076739808582
P 0.034409131906564756 5.467302149815052 8.02587367482095 1.2008527576419707 2.05318374002089 -0.2830818004916867
P 8.656244952711615 1.6749391888105973 7.95485602151015 -0.4640329556591944 0.9138014309795746 0.1938984593567951
P 1.868901809942639 3.2466609379856464 10.351906373023931 -0.08553108909428496 -1.3166511302612292 0.27227853922859563
P 4.005386957782976 6.346424379892289 3.8209079593491224 -0.5849272547441217 -0.10197663624481793 -0.30040280826863747
P 6.866865102137438 4.023009226721105 10.419943536780892 0.970405038406232 -0.5115608260368286 0.671992778205062
P 6.304273940013058 7.621219495896188 10.44827855225994 0.13723571655742817 -0.3630896457748972 -0.6110092965431542
P 2.3252162993030225 8.553217583773396 5.9239008401228705 0.7637359096473298 0.7436278260435452 0.3544319700998993
P 6.909268969613109 3.9790757426812107 1.7234651429373975 -0.5655812461173421 -0.33658285773362034 -1.3778207597920142
Ni 5.216445033282356 2.693537106785398 0.2650780250871829 0.896772757632062 0.6527611836689597 -0.016293337843384843
Ni 1.6211039265383909 1.4745413169261115 7.078684412734314 0.9306017903663651 -1.810846468436417 -0.6985065082248745
Ni 6.9100473543736 0.4714395913750241 9.331778838484908 0.17941363547705877 0.3454472501027857 0.2516042987086957
Ni 3.0138424357280864 1.6459760349318042 9.262271794668598 -0.8133106352516638 0.8842219175502448 -0.19412471643498824
Ni 6.241414845110491 1.9156682524713027 2.4058859236439307 0.5642447866941056 0.5445115699312364 0.8450791859125123
Ni 4.0982138659645075 6.878187885106929 10.439642101812707 -0.60204720225386 -0.37025916694014294 -0.8810795152665213
Ni 8.14762481764325 6.958986033443174 0.4432195234129339 0.09823465270388243 0.14108491510018928 -0.288209094415923
Ni 7.564143980783791 4.0685899901378555 8.244158104422707 0.02243596040601297 -0.9826512027634365 0.3166786626105256
Ni 3.0181235519107954 8.393838778569751 12.383299622113627 0.12852121950256576 -0.4467546281947209 -0.16121870973558686
Ni 0.26578671725865466 4.75922544536326 10.200863525546026 -1.7353439672227273 -0.8798759818767233 -0.004153617157057363
Ni 8.752538388373015 2.373901550776156 5.746218226766387 0.4370376580172731 0.9174601107780845 0.3237988185950746
Ni 3.713130633174781 2.4792640739958522 11.495231397882078 -1.6036088687685544 -0.2715172355825388 -0.1737942324077523
Ni 1.063472704515755 3.044787755450459 12.603610567388342 0.49844922835553507 1.512432408463034 0.07163119118374114
Ni 3.1830596622649345 8.573663760214707 8.247549508722203 -0.3257916806553873 -1.3736128923582538 -0.5876102008929236
Ni 5.609610796201383 8.042452365120884 3.5788312039344943 0.39721692647590945 0.3356672878978864 -0.16707234030288645
Ni 3.18197354399448 8.532988630986177 3.5274333720809 -0.23940775664250386 -0.5169948525682064 0.00683527775427855
Ni 3.3223181265084056 4.215396976360987 9.026170499938589 -0.09462071010037898 0.687236848848326 0.07148335275196721
Ni 7.449649013106688 5.970835630983454 11.45401954520823 -0.5503148068765749 -0.2354729403644719 -0.014422603183233225
Ni 0.3933712202918551 9.016311261338535 0.25548850585762634 0.7909464086238507 -0.46317292165174423 0.824766185386773
Ni 4.607368009182514 0.29545856330891934 1.4086628132316794 -0.22512527858156067 -0.01955581064474051 0.15776160442492185
Ni 5.622997203884738 5.43081762691336 0.44121473010538625 1.1239636604933998 -0.11731815169789471 0.2925133782182317
Ni 7.996310440597731 8.481968225231565 11.614097086499203 -0.8517216309296944 0.965232750176673 -0.6311330638762228
Ni 0.01575414551294595 5.2875495760547935 5.532172373715078 -0.06240992969578929 -1.1115616872846212 1.469976039071036
Ni 7.892893879279266 9.12674233648702 2.302850408818683 0.5052713934836911 -0.8667924092198878 0.9695426904059367
P 8.663766321734515 1.6862348188233267 3.6788337334894967 -0.18134556239244898 -0.3566711438430632 -0.5235087424273243
P 1.8346800334377278 3.08574346523219 1.5826363326945605 -1.24201663347479 0.904524890773655 0.12025049485334129
P 4.996478930558511 1.0934133648379574 8.244635091363149 -0.30179454640984155 -1.279176530354539 -0.27135191364926814
P 8.562467691043437 1.4928514607688608 12.332563417306451 -1.1032570240736677 0.7128090408904756 -0.3589411708241625
P 6.33934650916316 7.710625131525786 1.3711609595499947 -0.40444866833765825 -0.2080575244659965 0.729001591489938
P 2.11014677978181 3.5721253287129953 6.142025972378295 -0.33411177048530843 -1.5839797816837171 -0.32770586695896464
P 7.145798375961388 4.094159024421478 6.003449047349534 -0.6484877531045864 0.08990453557163226 -0.7075326229828848
P 2.0929951620942124 8.291616947348787 10.273113017995234 1.580372266838117 0.7191606941401163 -0.7443240807796213
