# total energy = -381170.0359400683 ev
CRYSTAL
PRIMVEC
9.20745928228742 0.00000000000000 0.00000000000000

0.00000000000000 9.20745928228742 0.00000000000000

0.00000000000000 0.00000000000000 13.47604736387074

PRIMCOORD
 96 1
Ni 6.26006854382948 4.353599694440827 6.2688275996277545 0.6514128971711813 0.025714888267600874 0.17105934997509248
Ni 2.52678457333019 6.116174373730203 7.181817141542011 2.0741464583154863 0.8900763194484927 -0.45570695229200225
Ni 1.462098460514115 3.690018120403532 7.469058558672743 3.5200014359686023 0.47267546182554077 1.02847366041419
Ni 0.3484526049231555 2.487137254642739 0.9200378518202587 -0.20103301351904732 -0.22917579450185044 0.3788615638971733
Ni 4.3437937505480875 6.051390691824745 2.654080456992433 -1.0777658217810986 -0.7431570570547137 -0.5602387508585062
Ni 4.063647601364533 4.039588510855869 4.100141365325915 -1.2852672166333092 1.8849700870247084 -2.5014378355792726
Ni 7.049359556333976 8.120242289093538 11.214954906584497 -1.3141409622448659 -0.20511592533916934 -1.8866706146555832
Ni 1.7108011370275238 0.6239637192188175 11.458238072698594 -0.18891283321674562 -0.0018159701628162274 -1.0596207754409557
Ni 4.104611586696738 6.179843953090102 9.072587273243226 0.22014685153036279 1.1150319052214088 0.4135421459984943
Ni 7.1813853117123685 2.733832705082329 4.033987613513189 0.3536858359624941 -1.0272045638937792 -1.1924650477989076
Ni 2.8035515850408474 1.3994048718139633 8.71489222092145 -0.8650520294900135 0.3367376381439297 1.2656319589008846
Ni 1.9707277061280213 4.837157029050105 5.399150865850432 0.1072265717898476 -0.26794185952645466 -0.8000650830956673
Ni 3.9523570437762334 6.156852927831726 4.85501581663166 -1.158824476926327 0.9434714472401815 0.4697395191256684
Ni 2.465904854063719 1.8978967050091784 0.41282379266298536 1.0339747927380774 1.1201036633173613 -0.6845425898456147
Ni 7.489273535026273 8.259182846221647 13.35067935821815 -1.2187460929826237 0.6360564693197691 1.0744403569522913
Ni 9.134434696456296 2.544987719880374 12.002940301395105 0.753904782489521 0.6880511172195054 -0.22338721284453142
Ni 8.79493726620927 6.690185786088091 0.3133141789345537 -1.480332956825328 -3.7036939013266728 -0.24572958509547357
Ni 5.100186511851873 2.6910272279392826 5.269686625580921 2.298720749489583 -2.0168651080955136 0.09175650117870648
Ni 3.978966600442915 2.2695005449782526 2.549506740784183 1.7857301329847632 0.22638100536553268 -1.0127922451231912
Ni 8.474821537271367 5.239044201848492 5.904584202426619 0.7342250446724065 -0.6265557289181855 0.17388396390808117
Ni 9.011505910623468 8.408343682899934 9.63455164617458 0.6099026937425367 1.1513340820865527 -1.9532449601417072
Ni 3.7113978403274195 4.996317166261269 11.518975076349726 -1.2250982604528966 -0.5979259809966349 0.11234538107365168
Ni 5.064599682607331 2.478997860838813 0.27056578803764303 0.08441188788817722 -2.2068683461629606 0.2372117774324495
Ni 4.2000745221708415 1.6023648917460305 6.987276422169119 0.4307248284253679 -0.7740012961290799 -0.3289749634793753
P 4.1086996985168085 8.502628063615099 5.82663845780316 0.5718120575184024 -0.3927162103920785 -0.6072148624977284
Ni 5.089192805741139 6.369895115428159 6.69518359486272 0.5961534624772442 0.8402869067301917 1.719399270968013
P 5.041866466202473 3.3823232537297656 11.023392800215642 0.8709123449255325 -1.124392263390386 1.0941512051176574
Ni 5.505655386222351 7.734882505297466 3.90833618203803 -0.6644795005471524 -1.2741505378948572 1.3463322022654298
P 7.658589499574238 4.629123699179165 2.3566233640410483 0.01580148580863085 -0.9998883925773298 -0.5753208420026092
P 6.094509222575635 1.1927618682602097 2.1572993696894907 0.0560734459548002 0.3766897530568351 -0.3270417510124045
P 0.9409746929636387 6.59088334018838 5.000448553138897 -0.7452075118258392 1.0652790021679976 -0.4297717204834792
Ni 8.803537032965908 0.7993584482343753 2.3323267210887852 0.09594354267686056 0.7047563457893281 0.30324079193806486
Ni 7.567822368217783 1.2632910046154986 0.01764793676921442 -0.011892894782844034 1.5178947171291859 2.079238528126413
Ni 2.588585038502083 2.6760651069761825 5.003845184783996 -0.20953359479089073 -0.6370226898877803 1.4084734516808646
Ni 0.014767843577055883 8.372434592588494 4.114318090031691 -0.6702765668449037 -0.884286452239593 0.5839350660341814
Ni 3.8725652036124036 0.9159561852215249 4.3647968853966574 0.2695688536069164 -1.8638366474802028 0.4804566484328565
Ni 0.3279448313717018 1.9150778236043442 9.536014340122275 -0.15252143907190507 -0.7265161060639229 0.10220135066111431
Ni 2.55524482926677 8.156068512273489 3.674028447009981 0.20436979120176413 -0.9547009974074139 0.8013853445689876
Ni 0.6636791731032697 0.14717386701438784 13.48831061466875 -0.6349817481983516 0.3198688874130491 1.044625330473388
Ni 1.7391969407507237 6.588148724849279 13.429325790475636 1.0165763947559718 -0.6907237789556621 -0.320726350317338
Ni 7.21633682628217 7.017004545217463 5.60763904419865 -0.6437988322693493 0.13372898895575033 -0.629792233577612
Ni 7.126379951322486 0.5391795947557925 9.157566595838201 2.2412383390023987 -0.5659959650572576 -1.0553337180298275
Ni 1.8944531153229016 5.884662023271014 3.0917284800114877 0.41066713844354436 -0.10534015340041214 -0.05309173761865695
Ni 7.86212958942672 3.947081169738168 0.2503462079545863 -1.3119768647140115 0.5078455819687705 -0.2087010715872664
Ni 6.537120986770817 4.904371480145876 8.457041933837678 0.01882767422946435 0.6858201710064575 1.1089515033552837
Ni 0.44271949146611694 7.802658611395544 1.8690064607347672 1.6531722815189787 0.8246908520641474 1.5440772890618246
Ni 0.20976156993541617 4.973086747067485 12.109441138783403 0.47121764633309166 0.601551236454048 0.1407738116176737
Ni 1.8361054472963396 7.166791489111437 9.301329099273001 -0.04448445556562017 0.44324841481367533 0.09696941283821364
Ni 0.4508487570650836 4.321787923408513 9.81793384591967 0.5006040699150087 0.23773833935988084 -0.13309495491617723
Ni 5.401362497515254 0.18623651205189615 13.035367160668832 -0.17188775941365883 -0.9881338231445628 0.35112861675827917
Ni 1.0050770228990855 1.175313733352472 4.406775532716636 -0.3836579568445521 0.5540976709577747 0.09068306560886963
Ni 1.8525407617081138 3.1740505299234156 2.7405431012410415 -0.022980777165889456 -0.15972592724014426 0.12123059937842347
Ni 3.949134433107258 4.093820444685197 6.713146426731589 -0.5803278082988973 0.4544298853517916 -0.17859011113449888
Ni 2.7496603271965254 6.97016620100867 11.396275556247348 0.21506969411777155 2.1318129597890185 -0.4958683550022364
Ni 8.254137158659937 6.196665980782153 9.812274020839043 -0.7052679953184241 0.11789047926159697 0.08848297263375729
Ni 0.24929563687650033 7.754540430378215 11.735737077404062 0.83797651342946 -1.1950942578916386 0.38736471627217806
P 7.064413751887617 6.087437894021997 12.528613474464269 -0.22023092660373683 -0.24366318948474808 -0.0650530237455912
Ni 6.038076706032348 7.381030646384919 8.900471320396875 -0.03396504409153505 1.2217825658161021 0.6363225784969622
P 4.552149341485925 8.87272188029928 10.322962054297472 -0.3715236354748634 -1.8873072197983174 0.8238297896154329
Ni 0.4796211458636009 1.5742913490897281 7.081258798227305 0.38640980855807644 1.0084704778193858 -0.3879758674936157
P 2.9067211637433292 7.280264214495586 1.5059885763337484 -0.7836316201299923 -0.1558571883133574 0.9108004393697217
P 7.753840663490095 7.216484145627038 7.724806782854438 0.5163924430975171 0.18838909950279167 0.01776143774847909
P 2.488656485386685 4.918827190860994 9.087046666941967 -1.9474098415171686 -0.5041912730456349 0.37090451383362577
Ni 9.264177001989243 4.459015893152538 3.8966933500639747 -0.36364706094026406 -0.8204760426518515 -1.081133452701751
Ni 3.0384614878910416 8.84311989943998 13.336893029776274 0.07520965256361886 -0.7770506244783649 0.06694072768660729
Ni 4.367281978595391 3.884516485464775 8.985841960001654 0.5393045718090003 -1.9527806189107788 0.5015767182409233
Ni 6.221839173836377 8.736525145969328 6.789447719167965 -1.8354292999821031 0.9125269351425251 1.4736151784855203
Ni 7.431137638557957 2.202184811832885 6.355734964148681 -0.5080178458805766 -1.0929114191732854 0.22348517187497643
Ni 6.883652915735263 0.042563320969920965 4.658683325726817 1.249154530071152 2.2781804634443863 -0.8413541716524413
Ni 6.712633571262269 1.4962489261461995 11.412082921951622 -1.2801311809583245 1.217555415108632 -0.9344335054076295
Ni 8.586627712566704 3.7246842037426524 7.788872282953668 -3.2940181802621202 -0.35212234813011617 0.7816413291728409
Ni 7.822712457215625 6.47677530012949 3.372421552262862 0.6361505716954722 0.5294122523959527 -0.3408195215227872
Ni 3.223034212091841 4.503138036940337 0.5478401307421873 -0.08630961913152232 0.22245544505888137 1.2087504152224926
Ni 6.056804677748623 6.3672065373843285 1.3379395581516438 2.4802560592953347 -0.06694998365798793 -0.5141000475189146
Ni 1.769185634890303 8.415654405388981 6.013497394087121 0.3101606589863497 0.12058885202936649 0.6977922557666691
Ni 5.371677649524464 4.5317364047627295 13.114040294557574 1.7373494276885306 1.3446188191187487 -1.688183250376525
Ni 4.728398522701713 6.851233452405371 12.9683635603854 -0.5164945158930201 0.7041439090163099 -0.2338202352523973
Ni 8.532635172672785 8.977014769006377 6.473057328163398 -0.0008831739359017048 -0.9630041179564706 -0.01572512404474066
Ni 7.35355558856714 4.189228135404975 11.073294466051772 -0.19461296892531643 -0.6944734758060813 0.21304289349572986
Ni 7.100249182526623 8.415682027766143 2.256874356377207 -0.2115393123670099 0.5766411034759295 -0.26284696150205056
Ni 5.559049441277745 3.991811005823546 1.869235726465217 0.42675684491655536 0.14970351000713575 1.4470783085372563
Ni 6.237749663082062 4.816946656426102 4.052664944204666 -0.11617143968796122 1.8832803580271116 0.06257628007032448
Ni 2.42370706921825 3.1238146333236174 10.546098379255042 0.024252959010093715 -0.565717000364258 -0.03168421847715834
Ni 2.4316254840048757 0.6890346738467678 2.2827344258768765 -1.7891831245303702 -0.6050793042119644 -0.15231446526742157
Ni 4.570582674512464 8.404642284360138 1.9923394540200752 0.7033113858126855 1.8623623769275217 -1.2190636242230426
Ni 5.195511335440163 1.3935028905602114 9.402358864491285 -3.7269461869863947 1.8546076726827674 0.29464970783494415
Ni 0.43426244032482025 6.145868429180047 7.715198799331365 -1.9061984002758652 -0.28037442886285263 0.6074452333409796
Ni 3.757573247484309 8.359313963436238 7.9711357764236705 -0.09870259347923646 0.276988028889123 0.16391862516525318
P 0.4410667525658853 3.1802931871621736 5.615751736371319 -0.7837989989457921 -0.8270081873434144 -0.7205994834691719
Ni 5.756264006759982 5.914457360770455 10.768359074856555 0.454830720334636 0.2428085547939367 0.23152346879842065
P 1.3116485795682373 9.215101245230278 8.114965494309567 0.4871661992425481 -1.9749574121181341 1.1004550358484984
Ni 0.6087134047873208 4.742808196121561 1.4954230170690366 -0.3932828815288259 0.6554988943150969 -0.7762024175454567
P 1.9285851660368778 3.6331988905799695 12.63135490632073 -0.705553901989959 0.05540007403685943 -0.5227394683614675
P 8.618457898517127 0.5886844191066862 11.38554794570328 0.5760996291501627 -0.9423712721974674 -0.5788044296758355
P 6.519157234156044 2.7078400481722795 8.532210708810386 1.7453494151748716 0.8594040871756167 -1.8754140679051574
Ni 3.773603433697698 1.5350307436825543 12.006632492475847 1.0837762896412366 0.49608715588126184 -1.9824645191284564
