# total energy = -381176.25899865705 ev
CRYSTAL
PRIMVEC
9.12247296455493 0.00000000000000 0.00000000000000

0.00000000000000 9.12247296455493 0.00000000000000

0.00000000000000 0.00000000000000 13.35166129732816

PRIMCOORD
 96 1
Ni 7.634305454528292 6.084059817192208 6.817971865594412 0.678580972945541 -0.5932134060123139 -0.3390976537356741
Ni 1.1956642473055656 0.32093314960427766 3.0026819472485355 0.1546153454864563 0.5542102852762391 -0.23775170909631957
Ni 0.6432684232572236 6.682275084696937 5.930473867397929 0.08730360761367545 0.9062326174933812 -0.38577808851134854
Ni 0.20135760240105566 2.3020377321624266 11.85791724937642 -0.28594112431735275 0.049690682356907975 -0.34888352947784435
Ni 5.440405513341238 4.817066956116063 10.597413203107157 1.9061413217856849 0.588191013097058 -2.2415728395236814
Ni 4.803957962895918 6.607534666149507 0.8797904210415061 0.7017435271049334 -1.403795843699537 -0.082096095270807
Ni 9.181768737701438 4.47194557023954 5.585974634157184 0.3270083266713078 -1.2044201632782547 0.03825467260582444
Ni 8.710985290859353 4.258698649213699 0.00688746686235925 -1.5023919935078964 -1.9526178680806694 -0.9617417063042792
Ni 4.60593644874859 6.622915155063332 4.170244417508409 0.4247817234680555 -0.34527807151477313 0.1448055584848861
Ni 3.24079490426566 5.713103588727338 2.3942732287875153 -1.4111538267265051 0.33824327615517874 0.05134390168961479
Ni 2.2675365405419727 7.550187134080856 3.9694624431325387 0.6279191849246154 -0.9610608781871707 -0.1948335695765548
Ni 5.4252348412987175 0.34144685388690976 3.5855085156140403 -0.623107622468585 0.011525741251412409 1.7160033579125866
Ni 1.4335509670005886 0.5247793625484479 7.658499164284137 -1.0409545664900202 0.6161841558758743 -0.1513310183082297
Ni 3.1089751742509693 1.0402629254508773 4.2249190451810765 -0.08027369735008756 0.5786051691808357 -1.7159097697575159
Ni 4.281103442079863 8.85533929831627 10.840641130547759 0.21427907989567613 -1.147708055298191 0.3372588007547224
Ni 2.893639206984757 1.1699936092251964 9.357351705833738 0.7377060612424714 -0.7681813470131932 -0.26997431657545123
Ni 3.148703542708684 1.4516225853506992 6.475515153983445 0.9171767752097109 -0.22656149680745497 1.3873482396664751
Ni 4.260961022434713 3.8590066318528935 6.8434208275890125 -0.839213985380987 -0.22834481396012288 -1.878075416787404
Ni 3.34777414121253 1.3360043667897177 1.3272194256129601 0.5449921091120807 -1.4241368692497345 0.3043653924608113
Ni 2.5018381284795024 7.718451142393725 6.871632986553956 0.491003056490135 -0.3995440319471893 0.45943839430997646
Ni 4.6771464703745185 2.2863562016506442 10.670780689518448 0.8208331688809541 -1.0541530674581652 -0.9961608072140973
Ni 2.07254368731955 3.549919013004607 7.764618152058663 0.5343505702378346 -0.7941613160167226 -0.6723902707537969
Ni 6.763912092579391 3.4809804870723573 12.043291367420471 -0.23136354618178864 0.38638126931298616 0.3402770187557559
Ni 3.0430653092436244 1.3622497206480058 12.098407522770142 -0.11469974023844116 -1.7801320700716954 -0.7733032416207908
P 0.45535095983406715 2.1296412437321415 1.9940037589069914 -0.11550192442476238 0.5146224956812878 -0.8509119905442055
Ni 6.624110198982496 8.099542437989827 13.329937683606902 -0.8401668362125595 -1.3133542046775124 -0.2511504990007288
P 0.5587450650234442 2.3542547656990416 6.637458200986475 -0.396806064190736 -0.43490287106245745 -0.31155419689976666
Ni 7.671351816022387 5.9739150822304525 1.1826565135320055 -1.0685543304851597 0.53850830115995 -0.0587857026796407
P 5.900807586290124 5.189409800426071 5.3049221983041335 -0.08538762153788519 -0.38442054604218956 0.6037958095138504
P 6.252488030013054 3.8736117105901613 0.8478407850255579 0.14319476235434048 -0.008279466399972839 0.19432629092283304
P 0.39243235361369894 6.890668850264797 8.263756980686537 -0.27193529695656393 -0.034833048518785166 -0.3907223198905013
Ni 7.181347319274353 8.064740204771416 7.713694685145997 0.45819757992433996 -1.2610265989183895 0.31031312540381395
Ni 7.5928255713188255 1.9626452591197596 0.15264815960427788 0.984903489132723 -1.4209355887036172 1.8988013364808463
Ni 5.903325388745769 0.3919890014421616 1.4966812145867934 0.5251555340021278 0.1964399948317262 0.09424995702452155
Ni 2.6080419552498153 5.650158527336241 -0.18287729727553595 0.5786954149017969 0.2084082229371959 0.3054431989060224
Ni 2.3521930868766665 3.1617486786201723 10.524887720922882 1.8773976739940894 0.19558330325838574 -0.2407352172046757
Ni 8.51477002629977 3.909709334927056 7.888454806243882 0.4173358087129716 -0.03899643586785542 0.9058238120907368
Ni 5.269860886862026 1.8341825990459277 13.32697379223792 -1.0176971386239764 1.0129691370206877 -1.8124598356701238
Ni 4.056973411164228 8.513456390235955 5.378970221176261 -0.0894237392804718 0.039688576838873585 0.26270323683533464
Ni 4.058880007951292 8.570636048902536 13.387443014547635 -0.40671072489895765 0.6138796761124138 -1.2542278308290011
Ni 6.073997729842297 4.9527728594862035 2.9619592292702945 -0.31051547122260714 0.9336845430567469 -1.7062516778424615
Ni 5.943883902216032 4.935558753566639 7.778637568050813 0.8378132483787183 -0.9798435581113124 2.0286502736558996
Ni 8.600959148042246 8.813731700489488 12.657321353537895 1.8080347100192344 0.3920641786303764 -0.7838722753858887
Ni 2.1696524088424827 3.099323598171001 -0.344905183274354 -0.77472917543404 1.3674705269059417 2.100519034771744
Ni 0.6794326416445756 2.1598548731998686 9.342944584753308 -1.4436404865003007 0.22224949969566238 -0.4077185973381817
Ni 5.475317216231635 6.929229542221344 9.494619376524192 -0.35920573733945876 0.6965606973524132 -0.27930356439617704
Ni 2.19248595792392 7.758389327722743 9.389928967969064 0.1614745345001348 0.5607105482886021 0.157182077772368
Ni 2.0046177558531566 7.871991479824677 1.253869271899734 0.8281353589693223 -0.8849755078868178 -0.2362897798388124
Ni 7.031747890034844 3.288687885758886 4.33163920390425 -0.2885993878758062 0.8854437057724881 1.561475429933614
Ni 7.573321724760251 1.7564408869915893 2.86215572932201 0.6544861367798663 -1.1847591945142177 -0.6654619190650797
Ni 3.2831140549603415 5.737770754814516 10.752693196075398 -0.6541328672055057 0.6565916131586435 0.5535117165473177
Ni 1.2053705582215264 4.889581491333142 9.334934141505842 -0.4461481049589736 1.9822490606835406 -1.0521820597747236
Ni 5.053813366727915 2.165702378178375 5.163781125719961 -0.02003994937001065 0.1996613299825013 0.09869462305943648
Ni 1.0093833554785778 4.633477193725361 11.568452981478625 -0.6444328663089223 1.4664531135194423 1.3093455977387514
Ni 9.018595069135847 9.001554290196925 9.1714430108915 -1.4805972662303082 -1.7457265960086321 0.6281120176617119
Ni 8.404488454248034 8.930991964130238 1.8079883310345657 -1.0062490446880348 -0.8059261698621345 -0.6232786008288105
P 4.187287933189133 8.402299060808343 8.181564414218762 0.13474688869730342 0.5254303849300692 0.7863551897087424
Ni 2.5419952531524896 2.860725325608079 2.69740934646891 -3.064640554162109 0.10742711783642789 1.3768920773301578
P 4.148407954689297 3.8242865008884706 9.049475551355414 -0.8164450671155874 0.17567987946623936 0.29366240422101036
Ni 0.35826869348186396 6.7851400864717215 2.433674100476543 -0.5505377215206583 0.35390129440740986 1.9439866747682326
P 0.39198170346402933 6.396148729547403 13.159797182666765 0.31779272161031075 0.4563916370638527 -0.14482741286175704
P 0.9635064404443996 0.5160993298073422 10.927946842944479 1.2048796194131766 -0.7375461386258394 0.5042198122907252
P 1.456220311574049 5.161130135163403 3.970223257352831 0.1344632960186136 0.16751945514263408 -0.411270319245182
Ni 1.0258494186395823 4.799980564813814 1.4569336889364815 2.8387683701121946 -0.057950351262538904 1.3624249940622342
Ni 0.2975522521629177 6.766475507398361 10.583821631083014 0.04759780438362125 0.33973503020935686 0.8414865834652476
Ni 1.3319996012896176 0.7489358486348126 0.3318874147808617 -1.025066434504854 1.1343005236430335 0.3448551250447416
Ni 8.032027017793377 0.9766884134458685 5.346632880072034 -0.5572056204591371 0.9078608971254236 -0.1736008854500236
Ni 7.793474357593781 5.9637435252085575 4.4203078137171765 0.22694921916417687 0.9466989530385439 -0.8571831682648979
Ni 3.497501285069354 5.994750809798171 8.348633378612465 -0.7013586329616889 -1.839747210631167 0.2822942715933848
Ni 7.635783295100084 5.81516581290757 9.337069712356808 0.39213025598162143 -0.40509375812082493 0.15470070611141098
Ni 8.33064203802181 4.213834328645378 2.7621916738548142 1.1128976324872253 -0.42891168647602906 -0.5871707993626597
Ni 3.9334186413843693 3.663119776309264 1.2786294872080988 1.2464566715240146 2.318514644287059 -2.2964039284309483
Ni 5.6646176465108615 0.4215047617509873 6.696979598386257 -0.9718721098700617 -0.41739622963726175 0.21994861947662767
Ni 6.3247106461048395 7.318923329540897 2.766637967031919 0.8535851665009945 1.0318065814421649 -0.7280744516899784
Ni 4.99833961044976 6.745311370814688 6.818546581372331 0.56498500729424 1.3242477116615645 -1.4811320556878556
Ni 6.212276170504074 0.16351576129054088 9.402600082501273 -0.5952448346200457 1.0505944035726293 -0.03736172847790985
Ni 4.111325103304542 4.070164506638363 3.8107241207768556 -0.11547107118682695 1.224447514242775 1.9913111708858096
Ni 6.952364132900738 2.4326350508399566 10.05675161564829 0.787397772040644 -1.0797322014788502 -1.723622307910425
Ni 7.251170725055146 5.767218096578351 12.129262462066245 -0.11626245673987073 0.865605073780006 -0.3227837470669989
Ni 4.274662976378108 3.8863649273763574 12.13386931076226 -1.6930732314789745 0.3012818684394811 2.8943131972570346
Ni 2.4807834615678135 3.2301124887745036 5.211847434193831 -0.4665706344793835 0.2654658871821363 0.4731652569777658
Ni 6.60553684463579 8.065825779018597 5.152432769724234 0.24286717594601398 -0.8300274337857124 0.13236373317710753
Ni 2.998045906639991 5.541144978984991 5.560392484061669 -0.7175570970984223 0.7468640735926557 0.38457018424617634
Ni 1.1809679438416443 0.041763592109360106 5.388609938041764 -0.2730516699491943 0.26311204223797907 -0.28479981162405793
Ni 7.597249970561534 1.157678271126938 7.632771054625976 1.7844237554685138 1.1813769083055463 1.7190598853507233
Ni 5.400576797684205 2.6880004281618404 2.716676008738185 0.7540492784871852 -2.221764546548503 -0.9993975689838402
Ni 5.355913171514522 2.2108951077626497 8.135767776944038 -0.18411026962177968 0.1293740544211643 0.6789239581072566
Ni 6.9740938627896645 3.0092483030730737 6.526291749086197 -1.227056669730848 0.4928372814853964 -0.23128872707979525
P 3.93039910293213 8.32889052327006 2.2763643573402574 0.3310989518009137 -0.4349715195168638 0.5950566298686397
Ni 1.9230263603340294 7.865085768016987 12.011314363986527 0.13739846738753755 0.6023973865044271 0.07949285332000504
P 8.52532472717361 3.8206740017129817 10.292688862934721 0.1622782613483528 0.9422077500364096 -0.16568445881642435
Ni 0.5137749237722044 2.5117907461574283 4.254880894403239 -0.48381862292655387 -0.8089065926466972 -0.552828317327048
P 6.402616562667155 0.782762889525295 11.602753478700441 0.12560533140735142 0.021703196005046492 0.37420478185145234
P 5.093049121661699 6.8208454444840045 11.876315452247953 0.051741908458981856 0.13725988492714425 -0.018211895022336378
P 8.537028859603288 8.3849207503808 4.142526696561929 0.4312794153772572 -0.9327268071291678 -0.8497927893380978
Ni 7.280709291545635 7.83573877345247 11.018057715685801 -0.9177344474853937 0.249519391155209 -1.1860902546208152
