# total energy = -340891.1726857573 ev
CRYSTAL
PRIMVEC
9.06600906502792 0.00000000000000 0.00000000000000

0.00000000000000 9.06600906502792 0.00000000000000

0.00000000000000 0.00000000000000 13.26902067291167

PRIMCOORD
 96 1
Ni 6.506692739692229 2.0277126228606077 11.559745234261614 -0.6516152429899745 0.6439338151853168 -0.35954769405990983
Ni 4.472525118474838 0.2069144283661878 6.336010616007066 1.1819165828591 1.7552209086523125 -0.5437921752667086
Ni 2.9659266887995765 1.5010228341844996 4.855161464889303 -0.2762087275209372 -0.08818883843210619 0.19004206172518237
Ni 3.6241280029862386 4.1137468811554765 4.795835315665812 -1.040388152463589 1.1652658616762965 0.2925252052927736
Ni 5.165603369007777 4.5035943310713265 2.8291940487473486 0.673930104437091 0.5172424498026383 -0.576900270674587
Ni 7.2475488572760876 6.083464244903234 2.522811903426863 0.1854475003759645 0.6080646120925335 1.3742415270811883
Ni 4.959052487599605 4.497075870652046 11.61851382393603 0.970773220378928 -0.03946874751858364 -0.3071203294981292
Ni 5.653916741891374 8.003100975332343 12.41851567716571 -0.8329777746632879 -0.728955568743351 0.36046943454323077
Ni 2.2157960440823055 6.472522952042342 0.2800363233755199 -0.9942998427459585 -0.6075028260517924 1.0713208374867034
Ni 3.0227524327607065 1.7758407628210235 0.11588172611856465 -0.417512700610468 0.17854871637360217 1.4271969962322968
Ni 0.5177262256489272 8.82054673634052 4.47179258495345 0.5716883874563445 1.6709815417862575 0.03189273494353862
Ni 8.851099186428108 2.259077170704902 1.5309533560596231 -0.9305362272357521 1.6449804897368057 -1.6423589929535587
Ni 6.6347863798369024 0.7001805619271878 4.910691676174611 1.674133457151678 -0.9113426850264369 0.42863040779018435
Ni 0.6966702032702399 7.293703908728881 2.210021902996019 -0.22446090552468442 1.4670429245846413 -0.3992344711265705
Ni 7.666117423476058 3.8135441275203625 3.6649966646330756 0.30009427588928317 -0.07430796668495589 -0.06433517174296018
Ni 7.892858306767037 3.8296997554301795 12.687584849540947 -2.10269830181125 0.7675977065955814 -0.18589872898077017
Ni 7.804283399539813 8.821897571670801 7.125650021031964 0.014789242494032597 0.07333686102093821 -0.4484019339901568
Ni 7.004307837736024 0.6928216824802749 0.44135054003531154 -0.7429454552645399 0.36820665528648844 -0.53160206095842
Ni 1.9363725829103229 6.447935935829421 9.079128349587766 -1.094979357445908 0.054645198148705894 -0.19194287829232104
Ni 0.08203196858383731 4.933051173993906 1.4635865635178285 0.10535198047495405 -1.0291331483750599 -0.8447796523942226
Ni 6.388526379323792 2.1134045392487057 6.9824369977979535 -0.3077163112109152 -0.7356887737021265 1.5514604688997733
Ni 3.8844493833467815 4.426134350789914 0.6608649076097282 -1.812708975566452 1.209387277475543 0.3268995690075854
Ni 6.048650770619452 5.508878731060142 4.8764711188747265 -0.16938736158930828 0.47341208288124914 0.8005255676718536
Ni 5.563610226958888 3.2316423444723203 9.446958996821802 -1.0435405820496415 -1.4961454983775522 -0.8265196777427701
P 0.29740679648169815 5.785047495026948 12.644805979812963 -0.08663023569573468 -1.4356394705726951 -0.6033422669161996
P 4.126312369529779 6.179092507076494 12.566452091051245 0.15453049908213387 0.8864873165456539 0.4512610007055067
P 2.387415593090632 8.287193431102281 1.4190153438247681 0.12015536403637371 2.159083365469198 -1.1705574490925388
P 6.142085058632121 7.801871841164946 5.925931460567338 0.6001821240206631 -0.6557917429651673 0.17103595293632481
P 4.782854604082604 0.9704255956603942 12.451515949663877 0.09570314453128033 0.14153254416056915 0.5611489213776013
P 3.850333991750462 5.99713770789017 8.09964853081091 0.78457084411481 1.3442580933452206 0.19890079766739294
P 4.897312966799462 0.9679868392587441 3.778552959461591 -1.2277526673566082 -0.8954895200442642 -0.04746025036449246
P 0.12581172569747748 5.836914132104425 3.4857979321608847 0.3530556585776629 -1.9374000226896504 2.457949939598967
Ni 1.6031876887948975 1.1947367885586517 2.4373602362753584 0.8408389225789197 -0.6524773338799537 0.04604948605989489
Ni 1.9580222122305493 6.77678727767723 4.778744982235511 -2.137097862337042 -1.612389957395294 -1.1148773819214153
Ni 5.930375618143878 5.5682792215568435 9.209283600162681 -0.032948944122194866 1.5477318550952763 0.7300765697216717
Ni 8.57902825849679 2.4364989654271922 10.094433409244775 0.19197887373657904 -0.32599994001145144 0.4803481478794501
Ni 2.3697096776541153 4.955933780528349 6.881367317066066 -0.3259194644825032 1.1161307947125423 -0.4564924243077751
Ni 0.38443232278311534 9.291480570109009 9.196333713009828 -0.4329172080909964 -0.6979215822556818 0.4495859269959289
Ni 1.616333401740596 1.0770871906991137 11.671297941117027 -1.5737611892795025 0.7753464973030647 -1.8206490563491353
Ni 4.009986408973739 6.936339968802299 1.8326510945669758 1.911019732923909 -0.7979315816924322 -0.36512467392705505
Ni 5.415788951386741 7.6595808310389195 7.998578850079023 -0.40800578956129724 0.39155021510843535 0.453754970771954
Ni 5.433458602787545 2.7701190279711647 4.899320181176137 0.2585133671237032 0.6459742426541134 -0.24970708168598285
Ni 0.8099037481809158 7.416620857775627 7.001876334141516 -0.3473766059150146 0.502607987718915 -0.25268236226422286
Ni 5.051308194451625 4.4758523437514395 7.2395381317872465 1.373574068700518 -0.09576330834525443 -1.171317981407647
Ni 8.46414379336031 7.058876145474065 9.260887322981242 -0.0651970055226232 0.09910625667555835 0.46711570834957616
Ni 4.551789234532936 0.17995211781411372 10.314699348959328 -0.9567532519507523 -0.20711187272327555 0.4604112997462071
Ni 8.006346606528592 7.262145131650277 4.803319306035932 -0.5557884283966363 -0.5703840668226241 0.29237839530226417
Ni 7.4558313463895205 6.402324844912312 7.308138808144151 -0.7481959050302018 -1.0527268765345998 -1.9113069251470243
Ni 2.3025486835149875 5.290696160197259 2.6634637791386946 -0.08936434679744609 -0.5735282688785606 -0.18702204395193597
Ni 2.2583518899906565 5.5143546004526955 11.387712275246168 0.2949361287271114 -1.5520963027115593 0.20844421838145394
Ni 1.3605812898797986 3.230907997749147 3.835754942793236 -1.1347543233510007 0.23979136523416766 -0.8308057067126338
Ni 3.878837523820308 2.593857682391667 2.8109487057796114 -0.8993256059609028 0.140894396355938 -1.1795920484909814
Ni 1.0949200302606235 3.213401534509048 7.925267475483094 -1.2668509189096504 1.4744448734756672 1.6978750237429923
Ni 3.62435465320944 2.698651679591205 7.231668836037684 -0.25979197672581067 -0.8055865271345287 -0.5679942264342089
Ni 3.7419226569886255 7.037634486555602 6.076521495266119 2.2273898631550804 -1.2565510796455392 0.5450301614388678
Ni 0.7748092276203647 7.454534907112807 11.369228496243624 -1.0259390669177946 0.733208430482434 0.08233906451954852
P 0.34939582467970387 5.455924172911297 7.788318157817486 -0.134430128787833 -0.13078199051228445 1.236916079023431
P 8.367663326347811 1.7170295629046468 7.9244841723117085 0.06555258908982904 0.15472564581207546 1.045765100504786
P 1.7024786185750977 3.136848155120442 10.543603381980546 0.3635694136247932 0.2144829683763661 -0.21326375125728433
P 3.9520546119233844 6.1369990276234745 3.925374254248973 0.1859889747017313 -0.1702373682944294 0.05033242970596494
P 6.985178558897801 4.22170491547091 10.658805157429505 0.7488911313250135 -0.4111024262087501 -0.23665256249486985
P 6.1492653377031505 7.763785537658133 10.102023471919352 0.9642850415514232 -1.6296798548239935 0.2593736582414694
P 2.2718330452666935 8.672326556375536 5.808407880231901 0.09360358168977427 0.3004732564952567 -0.20855708981023438
P 6.8852530084926356 3.985970551323287 1.37172522805418 0.9294355379724059 -0.9764512446003119 1.8526551769420867
Ni 5.303569892875116 2.8105352957724916 0.47235357076662554 1.2166442161482725 -1.678961988888573 -0.3133467700238152
Ni 1.2728495214828852 1.1354541561780154 7.061546991704274 0.6160203766045003 -1.542642613497827 -1.3226366584207028
Ni 6.783269474060799 0.663376192082803 9.30001803071657 -0.21032780855741198 0.8155971172929954 -1.2045371484720933
Ni 2.533206082662893 1.5060997991842175 9.160387894210931 0.3856605890968777 0.26102302091943436 0.9086854499092478
Ni 6.563355295492655 1.758434025679133 2.591599339567686 -0.7666201731736604 1.6417992637953467 -0.2870927214232927
Ni 3.988246119564232 6.710197442100571 10.333766978936842 0.8796900911181624 0.9890329379200645 -0.11756266360853303
Ni 8.117776922263474 7.340520778833425 0.28374613422888534 -0.469672670443475 -0.6548293790518981 -0.6734084276056661
Ni 7.659018738485379 4.070084982157901 8.384216045448678 0.6612957035025321 -0.2875830307961499 -0.7638837480791039
Ni 2.907795439552805 8.356702521553776 12.209078178514842 1.9030074041423937 -0.3671190786492645 0.6880110080101893
Ni 0.17516617170098664 4.784595277796793 10.436349776558824 -0.3911869182317457 0.13558892498262454 -0.1936421203716149
Ni 8.620215137057 2.3538985580835647 5.818677855145617 0.2926331916255477 0.13459210828699403 -1.295364195857995
Ni 3.8095822816187965 2.5407308700731894 11.1307843020274 -0.3984561981996492 -0.44612162259641236 -0.28075238102756167
Ni 0.9403899080817051 3.3167903003247345 12.706480225348825 2.5393150702410203 -0.25039356623004616 -0.09774922842703165
Ni 2.950677661782566 8.483907692823498 7.922653745109132 -0.07977618888837874 -0.2575708007047757 1.1990676407170897
Ni 5.617761498286238 7.708963381670107 3.7381221860459792 -0.4353013920524567 0.3127531023038743 -0.40197243888302386
Ni 2.9736509284062906 8.543199391213063 3.4396483203134474 0.9403236456398192 -0.1250772268180233 1.3069917527945942
Ni 3.1620335279226146 4.3287019528399675 9.25853832006798 0.42096132128070085 -1.3826991709302379 0.7410477240211947
Ni 7.382088429768616 6.261312142045143 11.342597095017425 -0.2360856342478063 0.13099487785403893 0.5868057027137571
Ni 0.38809952339451875 9.147240368063448 0.4097137952799256 1.845941769477653 0.5715050678009448 0.10153672049392191
Ni 4.5569477936130065 0.3011655637832751 1.6737810739141914 0.3238839221097132 -0.022754262977380167 -0.9076672930573788
Ni 6.163453641675576 5.760950043296145 0.56094479680992 -1.797738213189233 0.970717170330012 -2.243854436469007
Ni 7.6295995395138 8.91354585592464 11.313883231540448 1.092720643318718 -1.7207933231020622 -0.016892661990280583
Ni 0.0006545658446065067 4.955208499814104 5.568650021322002 0.10021363080712418 -0.05213194480854892 0.038671191317952755
Ni 7.933093254389802 8.916193130531635 2.6092862163854535 1.4646528270859098 -0.7852575857691896 0.6456325430439783
P 8.600632557772373 1.6849902873528546 3.538475977037424 0.2908385616189701 -0.09940090509784172 1.8961718692777991
P 2.0217109249502268 3.293363733254607 1.5218773745217342 -0.1913584665437608 -0.006485864834659797 -0.06898089804508764
P 4.761848661396271 1.2773099978754945 8.492571170955161 -0.29580721847815505 0.4208307092401075 -1.2776063576539418
P 8.528548720785306 1.4540790399549637 12.242847248570108 1.0816011363667888 1.6963927827705108 1.1146632090280804
P 6.46882402039969 7.939820233014428 1.5218773745217342 -2.5973019311684498 -1.2059854508828456 -0.3424444587207199
P 1.8085237250067085 3.107791596505984 5.8777782607467985 0.4263264422473561 -0.22042350223051715 0.32323497567180465
P 7.076509532839157 3.9363069544153304 6.05000976535777 -0.9796985478930159 1.1235851941080583 -0.4471356656832235
P 2.2316343616796406 8.420690412568081 10.075790975085988 0.48247779262794327 0.5898992540374163 0.16189670963921796
