# total energy = -340886.9034507895 ev
CRYSTAL
PRIMVEC
9.12660803588502 0.00000000000000 0.00000000000000
0.00000000000000 9.12660803588502 0.00000000000000
0.00000000000000 0.00000000000000 13.35771339220119
PRIMCOORD
 96 1
Ni 6.886016749170314 2.227503879951797 11.254100867395856 0.11206590216001991 0.12089069954050148 1.0238292196636432
Ni 4.618775617179896 0.5809907504654518 5.838148881022987 0.7834074199343282 -0.5193003607729315 1.0843316479240745
Ni 2.790743377496919 1.751697288821464 4.4298721683005695 0.8150037066833705 -0.8073019671637387 2.161980998731967
Ni 3.5228342530775314 4.804638992872711 4.684336607078709 -0.6709928761856381 0.25334724954173143 0.17543511044528495
Ni 3.7042803504086805 2.9483142678154284 2.7059918685669593 0.5100580162390571 0.5569739640643053 -0.7880369482865396
Ni 5.024508110663803 4.977642977632494 2.8267323315538535 -0.401552834847102 -0.46745098020180786 -1.2169861728687235
Ni 5.773090767235181 3.0808508718817706 0.09522976778745605 -0.27536026347771286 1.5404306934481728 0.6249261637345624
Ni 6.123424749034563 8.149038929320229 12.605888438755606 -0.5813912165664051 0.2738541112458316 -0.7602415233408263
Ni 2.1469798159332503 6.824558169650774 0.20794794217950688 -0.37022291438556887 -0.519675484724163 -0.7799420870935472
Ni 0.7383024451115004 0.26377084114464827 0.1547507683892647 0.33398167266534734 0.12382664224037383 -0.24695188753834885
Ni 8.637102555243365 -0.2030551675313891 6.526525128717842 0.23821964987167363 0.6972278986227669 0.07357880182841521
Ni 8.70627311867945 2.7474193684414905 1.290544379793384 0.656884976029346 0.09188479922645466 -0.046084967283520635
Ni 7.174098136538038 0.852082044035497 4.8683527572748275 -0.9444613219572766 0.14162690364658834 -0.9212491455068713
Ni 1.2453530667032517 7.431632766309698 2.332176949228541 -0.01396957480621465 -0.17768971080741658 0.39674307216328447
Ni 7.9983403749652195 4.108552586582948 3.7083553809633996 -0.2963139829112445 -0.8962431103808371 -0.5900242096510547
Ni 7.866342240781807 4.18361893890671 12.767970611500091 0.06607606569346684 0.1568717456208008 -0.4427773887145277
Ni 8.470441563172336 7.690828438771076 8.834297527658999 -1.4941482654418654 -0.37992008706867475 1.1238165933925741
Ni 7.26918826722026 0.7623601842878452 0.39881361181866304 0.12346437380494867 0.9884955773593557 -0.16996997356565569
Ni 1.9272567238731209 6.917759092438647 9.471086535247492 -0.2559911149224817 -1.3852247655655694 -0.03715295490121343
Ni 0.3888455303587223 5.179906868234222 1.1171853699751932 -0.3478437753594203 0.10019434753341454 0.26825527700181545
Ni 6.550723417660239 2.2054996276171357 6.840885671694204 0.9714933863744043 0.426412317092943 -0.3259048091944839
Ni 3.9869040260816204 4.8122232042746615 0.3439088496369588 0.06815248860652134 -0.17387007995101023 0.203813661587978
Ni 5.977919234736966 6.02639065080888 4.73890277209674 1.0021314229752354 -0.7372468622178658 0.910596807999348
Ni 5.759373475132735 3.117603723043812 9.31425398753117 -1.7328718515331512 -0.6456345999265074 -1.5455901261619254
P 0.5155274152742206 5.978402944970784 12.231925668364587 -0.3202717792784226 -2.7538636017479994 0.7863073671899425
P 4.547186502574718 6.504889591353866 12.454572013026457 -0.3857598336789034 -0.1649486090916643 -0.10680748197455797
P 2.6448727988719116 8.810060906962223 1.0997562863238026 -0.6874852174137064 0.7894248297730017 0.5989438807381878
P 6.702854849500335 8.138917520842774 6.030019390223339 -1.194377434330272 -0.7118384494470902 -0.7509752675475518
P 5.260047614708988 1.2706063915518657 12.78504193211062 -0.5903836498730025 -2.258341574341588 -2.058924242049093
P 4.426742654353845 6.364394584949976 7.996768773035717 -0.7487672041526395 0.2245768622772584 0.8178594309646108
P 4.940570695183969 1.2487755447727242 3.8161515755611397 0.777864635739228 0.37721862897711167 -1.7072744626800207
P 0.22120799121187082 5.7846998128468305 3.57552581277431 0.5020323177211032 0.3839068396305646 -0.21169640677016446
Ni 0.9333417126737759 0.1297529885698382 4.342980469751168 -0.7135034958543389 0.21281637930722058 0.008267896435747052
Ni 1.7959795917363444 6.942912024597223 4.752099847532626 0.3621311385163699 -0.3555915376256392 0.0727442217422618
Ni 6.407682087572664 6.097094484420088 9.049063046152895 -0.521818756319411 -0.8854406204486945 0.6457227887649396
Ni 9.191315837293265 2.1161045004425163 9.981043981546248 -1.2690240153015693 1.4462352438106705 -1.2683529573764738
Ni 2.3875845875212534 5.312397839259638 6.874173149728302 1.6181512853591034 2.0145670560899562 0.6870365599120619
Ni 1.1129898681924293 0.09294629041950406 9.039338645131501 -1.4577414446780572 0.8209360130074055 0.07689578201679013
Ni 1.5054705265913404 1.2761188628957625 11.428846208997388 2.27126599571274 -0.8965120477715077 -1.0745457721819043
Ni 4.255454471932889 7.31381738124618 1.2900624948812023 1.174842706731454 -0.2644143059891704 0.823550310701801
Ni 5.7593278420918095 8.18542671615486 8.12414793081657 -0.4363465454875195 0.732020837932236 -0.751107679360358
Ni 5.261462238977703 3.21643576308199 4.758472045367574 0.7236660382096375 -0.5878840233796004 -0.1037725518029761
Ni 1.0089282816640974 7.390581282692399 7.233616399157391 0.9648689390793511 -0.20735818440612674 -1.4709785121936216
Ni 5.1989175930841185 4.848318939647363 6.695914976636264 0.4838975557936053 -0.17344353393655293 0.4093409634329531
Ni 0.8082925779626207 7.824058665059498 11.47754852825639 1.1499004349638198 1.1131377735224894 -0.8431868539858058
Ni 4.963168177050672 0.4259077735382437 10.298409916598015 -0.06191113568249982 0.7030691878948924 0.7781217460553567
Ni 8.180826905629488 7.592480108966717 4.3661693558282755 0.2404369692379666 -0.39582364567280864 0.023043512083024832
Ni 7.368175459597587 6.214608691413493 6.90627143071586 0.48098578146344906 1.2570123355526739 -1.0902906937209869
Ni 2.360560700684699 5.329747521419817 2.4045883712312106 1.085216364521873 -0.44674768621618544 0.5947627527773047
Ni 2.732661643005925 5.688085538597671 11.324081873638791 -0.5829405633313961 -0.7441718714724731 1.0494284082889862
Ni 1.394673503222287 3.3778033224055686 3.8505616264020244 -1.4322217031403979 1.4584163592578947 -0.8778931471187397
Ni 1.6319014297817442 1.4453900649077756 2.1905849245207842 0.30903811534613224 0.33932982435113823 -0.0666890166871174
Ni 0.9595350781654715 3.5812627986795644 7.623220350656308 -0.048030521045665665 -1.456253290168305 2.1152604547469767
Ni 3.662818169423046 3.2946416686214812 7.436559309408102 0.3045605391907529 -0.6957867953008662 0.803183574119991
Ni 4.132811111139368 7.165500871627524 5.84882153663483 -0.2975375709057005 0.4186558130759758 0.7681337816047095
Ni 8.516969011700791 7.355781525682004 13.490088842316672 -0.5903759365635187 0.3244539356805703 0.45263679800711076
P 0.5576905197684837 5.642023547086666 8.301445072066699 -0.9104219729843804 -0.022573514425141772 -1.197628080057086
P 8.766271440889346 1.4613616292319802 7.881237778000969 0.27343810675433555 0.9770356563488724 -0.10852472177598084
P 2.2715397644456754 3.65595496006773 10.446974669959312 1.627354034904294 -1.4087148782677092 -0.24590287744854425
P 3.95211339567941 6.752074647443441 3.6501686904782757 -0.5902093290786674 -0.9822750503709406 -0.6219524258182192
P 7.339983366913319 4.084649999745753 10.126789525639118 1.4728145369610959 1.0574029418540305 0.4840294533857793
P 6.75767838486919 8.165293418498177 10.44005487563325 -0.461670883184921 -0.7510631992756678 -1.8526137821811899
P 2.5688298994723273 8.887171619519483 5.709314029236586 -0.33348956352027725 -0.7331814338992404 0.551748711109624
P 6.79173888661658 4.343161176593235 1.525637592698309 1.1799679437731614 -2.1052102695998256 0.8815772808385464
Ni 2.8704825532115334 1.8593365057584177 -0.20608520144889533 0.9266338068575526 -0.17859885288524727 1.2942861323024675
Ni 1.954974232931755 1.437961005844974 6.972726828216829 0.055256349370143544 -0.6537158342727452 -0.11880399221480184
Ni 6.904635029868243 1.0816125892515063 9.084861254098758 1.4038508653071886 -1.0036427174134392 -0.43415262315999426
Ni 3.0950244943934795 1.6233863043448968 9.231141617431282 -0.4171969691422621 0.7753385268832648 0.5932545436628944
Ni 6.737234782534209 2.1148541551211357 2.4632295668039608 -1.1655332564050702 0.3734175100634666 0.83337346743981
Ni 4.426295450552766 7.276097109616501 10.326234206972417 0.3148398096295739 -1.126139585098796 -0.1792459995509429
Ni 7.614283575921302 6.10450529026652 11.085499558424642 1.2292349083290894 1.2834283636523574 1.0786718785351357
Ni 7.832163093128009 4.141590908213588 7.846921731224392 -0.3164812018877388 -0.3710973465707222 1.1701890100095265
Ni 3.5551241928369803 8.626296651152018 12.498705552227916 0.6407597883327094 0.24849300677322367 -0.6334524560380187
Ni 9.50664015009399 4.611967167473692 10.183746862001685 -0.26850415978782793 0.674118052078181 0.5581759547922065
Ni 9.095075753979701 2.2750991416379267 5.714096371925661 -0.6731991398083373 0.3688969964852937 -0.3408416330099743
Ni 4.246200091233035 2.635974355891283 11.296724865603474 -0.36085715689995274 0.6482206154861289 -0.10698823052679639
Ni 1.0936140790151228 3.693912523510226 12.513719735353488 2.2202146855628793 1.4011609771798514 -0.3510039182549568
Ni 3.023937343238491 8.380343687167452 8.081857966468531 2.6151736692425476 0.33672915350349747 -1.6897061147789545
Ni 5.6235056590787735 8.137648922305024 3.731731362508305 0.7510446873329065 1.15123329484263 -0.5981684360247439
Ni 3.2543933265244855 8.852125444088086 3.2654803301479394 -0.04033315240140796 -0.6805434959885506 -0.02982273978838735
Ni 4.23105904825369 4.762820874167851 9.618315153170466 -1.6308175679728623 0.6787576077327214 -0.9504676760523566
Ni 5.711166730698193 4.730676960139365 11.434216305253596 -0.7509421003167712 -0.04585382510932103 0.9971218855757861
Ni 8.799373648777284 -0.12226825719710666 2.203248093377832 -1.7240079733846179 0.8309502027102978 0.6880151217752474
Ni 4.6247626721494255 0.8432493126338025 1.4437016423935023 0.11935163718815574 -0.3560633350557352 0.4644258202222389
Ni 6.34887022442685 5.987593439413341 0.32865189873366 -0.3820217067927098 0.6109475900672834 -1.136505501714152
Ni 8.217132552990451 9.359245427902044 11.441710163234513 0.13043489158551083 -0.2516858026789085 -0.10527099072537353
Ni 0.25811325673060576 5.070250670888326 5.845362552132616 -1.0281232190533067 0.058978792527053264 -1.1218548416805132
Ni 7.037627964343849 6.153579062478661 2.6014547857521753 1.6307077818678752 1.41540257470053 0.4799455131243927
P 8.691634039150292 1.7598564765390863 3.438168534264513 0.7772573411725323 0.4971765322906986 -0.002707371628834047
P 2.382254648341062 3.4914022144874965 1.0681873486109892 -1.4651675619387994 0.5394637230946838 0.8422057210194593
P 4.896735596070166 1.5085279403334024 7.925772887962581 -0.47308889521387554 -1.34738815433377 1.031768529115378
P 9.000323307800334 2.0591270855419395 12.439117014725538 -3.1307094207667245 -0.7400231394114223 1.2465698000631111
P 6.864331928122136 8.09573953751831 1.5446729593903055 -0.6865580776137465 -0.7074009825010269 0.10243095017341713
P 2.1911617261580925 3.4331562010491687 5.8902846302812835 -0.4027124023728419 -0.7437031593661707 -1.216369365220331
P 7.127954005553365 4.031724798879431 5.716005658358018 0.12467022118759173 1.0191012180603545 0.2983235571421056
P 2.720751419324161 8.714715231250814 10.410881672569065 0.31285980308506767 0.8827836424418216 0.14073035997424793
