# total energy = -340890.3369168099 ev
CRYSTAL
PRIMVEC
9.08117204219598 0.00000000000000 0.00000000000000

0.00000000000000 9.08117204219598 0.00000000000000

0.00000000000000 0.00000000000000 13.29121322268901

PRIMCOORD
 96 1
Ni 6.437924327137395 1.910088306687737 11.262614778173097 -0.05835607134138982 0.009087564123564994 0.8413163764359703
Ni 4.428724109549476 0.3409017471180433 6.134466068293461 -0.0568774299133343 -0.03734450208672924 -0.20780555635619052
Ni 2.8422342849047215 1.6341114904648528 4.725677524910011 -0.07771622103555646 -0.6412601250078955 0.6739650714400846
Ni 3.590241339049596 4.170827906722438 4.887444981829602 -0.6714824142275467 1.7411497752712273 -0.7279168430661915
Ni 4.947222704451146 4.465484693691306 2.524214366804013 0.45931446713760254 1.1911471003184326 0.2702995611253538
Ni 7.2807478978397935 6.317934801874053 2.7227850893737013 -0.18420540043874725 0.14959089568867143 0.11078857810949308
Ni 5.199524905343559 4.614152560041581 11.401442286574733 -0.299160194110788 0.4346326481202063 0.0577462056715328
Ni 5.651594727271541 7.838477155659623 12.326988977119814 -0.4277207514917215 0.4388852527489731 0.7420111163757285
Ni 2.0638053046543297 6.209351228607287 0.36395975087163085 -1.3423102255902302 1.8309139286102534 1.0388408625811272
Ni 2.7157698840254887 1.8231451662297609 0.46654702628542005 0.8562413731769188 -1.3393125764144869 0.33602004325161483
Ni 0.2989994034057816 8.871669334406784 4.30490414594843 1.0927304135107312 0.9862777437724305 1.9737304816895684
Ni 8.53633797817624 2.4741017355120505 1.2134761453172425 -0.09770320568044463 0.2765020903916399 0.8147931333344614
Ni 6.631425939512427 0.7260160880979731 5.033541968394661 0.5338389207087386 -0.32926344125407164 -2.0358257083584164
Ni 0.9855251070672021 7.442256541358187 2.5508094870406155 -0.6429187436572411 -0.7335467876584593 -0.44969314199775456
Ni 7.54430167080526 3.9558402414621363 3.74309835003046 0.9069116458382768 -0.6368609674989354 0.11474010655807336
Ni 7.324927799482582 4.044172801231797 12.678354958700957 1.272956517586756 -1.3327776035094465 -0.029123142618201456
Ni 7.95131071740919 -0.05647126790661418 6.815016360797441 1.9314970269416543 0.07092285226280688 1.1198311263822651
Ni 7.045100566343656 0.9310743999243126 0.3459490624999676 -1.1762449863956195 -1.547587101987296 -0.9594027737584573
Ni 1.7661789744506837 6.632888008199886 9.205149039672278 0.9359234596895945 0.04683958606135804 0.024018217291468313
Ni -0.1446848643234445 5.240562721484105 1.5298314845955208 0.46383858026020114 -2.287333590698564 -0.5824839354099517
Ni 6.453807296916066 1.9076545525992956 7.089599217122654 1.1629598392509388 0.5288190988966441 0.6848254111933562
Ni 3.264163697058313 4.269858087074875 0.4831692034625957 0.609623471939221 -0.9476638880549744 0.26393119570516477
Ni 6.036345821372599 5.642931289210448 4.676978832094057 -0.3726070983470293 0.07536623274614117 0.9481955921887282
Ni 5.66372717302586 3.19917883042814 9.237087521497086 0.3114678078335475 -0.5969924134387719 0.057611222755565294
P 0.12869473671550588 5.530969519970173 12.54457930626723 0.8518324454759459 0.5498100993260144 -0.12782419343554116
P 4.257707478976611 6.0335488204052865 12.82439927446858 -1.0193508721773155 0.18047652952393434 -1.556688807178248
P 2.429613074022221 8.552747655929275 1.4641065024496462 0.5952404637446715 0.13821119309682003 -0.6847475067675691
P 6.586564949971755 7.697301256186082 5.891861650949731 -2.104604774805343 -0.339017435317042 -0.7755123334569676
P 4.897866534784435 0.7949476320670888 12.664745006266825 -0.13786589394225932 1.002068173837468 -0.525917866089449
P 3.8947875222957506 6.068356952573181 8.180914528958098 -0.1735381505328882 0.7463089724201339 0.3957372566065894
P 4.7137366918842964 0.9748365676563981 3.703291032692092 -0.1567010243708914 0.7754837942118773 1.4369427627651512
P 0.2712627798523247 5.582160086375188 3.6864908645442687 0.07298127745373238 -1.178964956429944 -0.3431129455426542
Ni 1.2934222427709496 1.263790378626979 2.4988016151581385 0.5485062929129263 -1.39993841762666 -0.2691335658417107
Ni 1.9259167894345774 6.680854758554913 4.811884182321075 -0.07613036460567534 -1.0233180843551797 -0.3779462511717555
Ni 5.979670227096619 5.733842901820099 9.078044416169034 -0.5693296574161808 -0.04819121499324604 0.8045246615289176
Ni 8.683743561622435 2.655934041903324 10.466524734671955 0.5356078396837034 0.32494887303911785 -0.7804393384449397
Ni 2.3101320943892993 5.187991816939378 6.91238741103063 -0.021615521387246643 0.10610505659089468 0.6873893152657903
Ni 0.6239464394865762 8.788195201642035 8.916237910209965 -0.4361691393693908 0.9977178672885721 -0.15614463764678915
Ni 1.7242239599409859 1.1865913356947402 11.7953671806017 -0.4533217398892773 0.2560520500674042 -2.0171391876925067
Ni 4.15390060216701 6.794251352966731 1.5031301146468485 0.13084061166436178 0.8110539780070032 1.4357060621445725
Ni 5.825944147958055 8.255130406897601 7.92718476783172 -1.1752358284048146 -0.6552916634002972 -0.3403814055441041
Ni 5.256781694625733 2.7204466875909636 5.163516242240992 -0.1839367201583929 -0.6507418392460856 -0.8465033199535487
Ni 0.8421197798745836 7.339203401822244 6.831351572940307 -1.0477934437887244 -0.15094458150308843 1.050675907542842
Ni 5.074958469406432 4.504324866214678 7.155630234763978 0.4445270244157828 -0.3389642134816033 -0.7992400160912106
Ni 7.945843851882169 7.273437554402498 9.140393926692992 0.7784179371395368 -0.334300746567663 0.2810053775786322
Ni 4.5923849908251855 0.19463312640271752 10.24965181811031 0.18528166422206155 0.5716904443388734 0.18958234847994446
Ni 8.345706016144296 6.91902665585921 4.902689545218656 -0.48351369009162537 0.44625943372585725 0.9046449612912872
Ni 7.375845930728442 6.070354810406976 7.190758932302477 -0.25850488248327097 -0.31739522906157597 -1.5465064673286075
Ni 2.132885779843783 5.019726781473967 2.660661700031841 0.8624837545422048 0.4444102963322605 0.2743842727176888
Ni 2.4123588472758084 5.292852109697707 11.582202106556139 -0.04553732231016674 -0.6388281185276353 -1.0149514575580392
Ni 1.1460529840126423 3.0762379242739644 3.918754551363715 -1.3176602882520339 1.5529331967905577 -0.5904504985551959
Ni 3.4608164761075577 2.766769745819096 2.6145947308533137 -0.0158549647543856 -0.9289987075453032 0.3309521418104042
Ni 1.3565999561787352 3.263455365644513 8.616986050223367 -1.2426321555716018 0.9986810025327896 -0.22118660564878684
Ni 3.4178806950249054 2.69165937244037 7.123758045494565 0.5330228525653465 0.44810677134724114 0.30263632558484654
Ni 4.230645586500659 6.713174649602536 5.961521504910984 0.24682333238028462 0.8012395630197426 0.9480896627384833
Ni 0.9625679043225016 7.6611127858784736 11.935988220467765 -0.39594448752138905 -2.0451840096448652 -1.8207729835215094
P 0.3140169374955409 5.574086924492261 8.059273138513086 -0.598836408626046 -0.5080322440582798 -0.5330812166071077
P 8.679538978999494 1.7674775820426507 8.341366124058975 -0.3277446906167001 -0.602779195323878 -0.5734182256632576
P 2.0678827508696664 3.2698939165725163 10.77601016735357 -0.45744527513934763 -0.6312125109639065 -0.3263400969596896
P 3.947866972470899 6.270031619722829 3.8494543118125444 0.010076667509711677 -1.0175930089459442 -1.0105574422554016
P 7.179547317386097 4.293777894048586 10.46629861348986 -0.4745279416532473 -0.3873485183222619 -0.8414809270382927
P 6.041721875179902 7.678503230204464 10.135719434552156 0.9688397508016411 -0.12954888943613174 0.26812517918185436
P 2.050837391078605 8.706337517488263 5.790955300467921 1.5379464935737384 0.923959602459499 -0.1809544976016174
P 6.8470946926706135 3.9106069238706196 1.612144135465078 -0.06973294571976377 0.9008821518147452 -0.46797265703323276
Ni 5.2309003545061135 2.7863759961062033 0.34635045030112094 0.6921849368822208 0.2557782275807272 0.8652335493732001
Ni 1.34150704836161 1.3009686966795122 7.152519933363638 1.46056245906662 -0.9826748569125205 -0.21395126424261218
Ni 7.092513365208403 0.5931276661658917 9.280204017901976 0.16993294968013314 0.8920265011963282 0.0452051357817286
Ni 2.787956120029296 1.5185444959517755 9.329328617683407 -0.10316371457438363 -0.15524192332686168 0.4782642687672279
Ni 6.168594928797866 1.9719038442997532 2.4395088271198873 1.3765215813646166 0.23210788054698092 1.2107533045851342
Ni 3.8727656802641452 6.8812126557686515 10.32603627991668 0.674913808506599 -0.12706546089264567 0.19838040638754867
Ni 8.223736795391103 7.185668027295088 0.42391637258102033 0.19794846105645264 0.85184478677112 -0.541605452028035
Ni 7.904043217295992 3.829557464022339 8.165630008412368 -0.1729596523215989 0.1948222567226451 0.04553526542763771
Ni 3.1232057457120934 8.356149363911863 12.415096323824574 1.4752552851921044 0.1498112392295936 0.998927314215641
Ni 0.2423474201769287 5.1208093066920295 10.187289593945591 -0.6876999045276737 -0.6279232986896733 1.1017724691083413
Ni 8.80779237075717 2.148033174692739 5.788376247627932 -1.4635691071034278 0.791154925090231 -0.7311114387440892
Ni 4.00298060516773 2.6250853007151327 11.77220020278445 -1.2382867341187125 -0.5281002184527486 -1.7826070139747492
Ni 0.8004517303991945 3.3018959666011254 12.652397336736776 0.09312587072240737 0.8935750766303708 -0.4592206218722156
Ni 3.1630176036364475 8.398467625300432 7.992338544260568 -0.17606708760232903 -0.3915661559480353 0.03661790833334984
Ni 5.53378468328143 7.944272809131049 3.500852638979615 0.2784764405091914 -0.3571537399064365 0.7585101424720162
Ni 3.099167883502749 8.4629711898161 3.734604729885239 -0.003413139446607025 0.2498124969155956 -0.5603747622157381
Ni 3.5047511861071077 4.098514534311025 9.383941877804592 0.1850194116996104 1.2352448619685952 -0.09262733381943403
Ni 7.262058845921837 6.251678571167829 11.541092549157014 0.566922847746901 -0.9585008307694783 -0.8125300483318975
Ni 0.5983284533541395 -0.016918223383456173 0.31569967866191473 0.1914685097590638 1.4920577014614238 1.158813164072417
Ni 4.5867546642026715 0.28646012114712555 1.6330244741798288 -0.5355433049943551 -0.3564824248710248 -1.2060206749961553
Ni 6.224144457749343 5.784415948531031 0.4406339020638998 -0.5460909986032143 0.21088933748783678 0.9229797550447331
Ni 7.978318122853312 8.499949722085253 11.2991265382029 -0.740752304267963 0.7299819531253363 0.06861554428586893
Ni 0.06431285990426013 4.718649605921038 5.949705083941283 -0.34243957362471344 -0.2911429802332663 -0.6573482888190099
Ni 8.225943520180248 -0.047768780806041945 2.3297901073566467 -1.2365550961395866 -0.23079456105219606 -0.616897379892815
P 8.410354879411512 1.6803982240050979 3.6041645919167538 -0.5740085509490889 0.3206355903757445 0.40969191901446866
P 1.4951695592963723 3.208596005762893 1.5464727322338374 0.5521809135510362 1.0509186196812677 0.003749182629787092
P 4.751741396586264 1.4481563319983837 8.219990811952737 -0.4054436852610759 -2.151411707856553 1.2252697530337544
P 8.545918614606485 1.3230541069149202 12.080184517739127 0.13333535306175748 0.04848380653300037 1.5675812857210358
P 6.4945817590694315 7.949857729893703 1.4773450349501307 -0.8725197986219683 -0.10592867891403047 -0.32300589038013405
P 1.8601327796708864 3.2978094392138178 5.882690575375414 -1.3886080802155054 -0.06399655745661881 0.5620917449068449
P 6.902544328730401 3.8499991821308526 5.95223055786664 0.9374882330735532 0.8235865632563751 0.5150701247416677
P 2.1991329293780355 8.587319677625903 10.31948421433903 1.3128824072474163 -0.09474566571401746 0.16183371761176646
