# total energy = -340873.93040244275 ev
CRYSTAL
PRIMVEC
9.26133109694693 0.00000000000000 0.00000000000000
0.00000000000000 9.26133109694693 0.00000000000000
0.00000000000000 0.00000000000000 13.55489421007410
PRIMCOORD
 96 1
Ni 5.380305346324538 2.893462039339655 5.644190299398926 0.19950963489598542 -0.9957869688144463 -0.5065075798836374
Ni 3.639888263069647 2.9841397300009826 0.701915341380139 1.5201853129355754 -0.784352814566733 0.7912300013025406
Ni 0.05208757714405452 5.686836875842321 12.500485988047396 0.9493800994151328 0.5760289238132272 -0.025170585728356648
Ni 1.575695052195513 0.7179328131397924 11.420093394329184 0.7049882592944762 -0.4365185522890095 -0.10528024669675418
Ni 3.8878048294380543 7.878910543528999 8.101502926734875 -0.40488858408855427 -0.5134413308889931 1.1315353021930705
Ni 5.271790332385331 3.160799616566688 9.614079230573312 -0.8979500657696149 0.2769669458432005 0.2355320757371815
Ni 2.7406871251174865 0.19048797970495854 6.988929986602516 -1.4898007871064471 1.9763483789283898 -0.17811882792503517
Ni 1.9752936957420655 2.1914346358558494 9.25921281518468 -0.152437363998531 -0.012238965268353117 1.7562048698321369
Ni 5.018428103458569 8.649388443558394 10.240993536075333 -0.330593730029721 -0.4163130238754121 0.35312970634870794
Ni 8.33554046264418 4.735262911754955 3.5583626195854743 0.5566597752579961 -0.5737905214010117 0.32328408374218515
Ni 4.700495875625588 6.338112186095193 6.4709298584006945 0.08658755538325733 -0.11840855654859607 -0.2812843422716317
Ni 3.7404848391051226 1.5536253007047618 4.116268896422838 -0.6985173068581518 1.2755566742137645 -0.029867991204025977
Ni 6.335546797441001 1.8092102490430986 3.114968994566214 -1.083090833538438 1.4630762266274093 -1.2538023132558083
Ni 7.728126815446364 0.055749507374622274 3.0944329194694484 1.0938691551008644 -0.6622287568397628 -0.46657911911981576
Ni 6.570988351111952 5.275226286142389 12.984950837127098 -0.180969667110269 -0.8260355390174999 1.2560641127067915
Ni 4.109622965382233 4.59334227732597 4.857355962899613 -1.8583838518957476 0.6382802164439653 0.12300208945654946
Ni 3.141989853546245 8.136745995271554 1.064848375966606 0.7458801124128316 0.6699934883868461 -1.2626595065361224
Ni 7.269357528897542 2.585022675660271 10.760390272974096 1.4846848060361206 0.22099480135295488 0.7462673205489212
Ni -0.03039198342091841 5.214518262213781 8.14933770073812 0.0009885891655144266 0.6136611323437045 0.8582087813159348
Ni 4.994765403056189 9.066305775853458 3.457176096772844 1.2552462447911865 -0.9352670570525183 -2.365544234872036
Ni 1.5856880282167134 4.259600957678171 0.2581132916690017 0.001902616339351562 -1.2066531663738316 -0.2666182556190247
Ni 3.5069048129413662 2.276129506767691 11.941061779078545 0.4481360819232798 0.391411632648042 -0.5635801565269132
Ni 0.155634813198394 3.8525098974484395 10.231125588021035 0.9916102117289373 1.2589357778276318 0.8496642341800335
Ni 6.111876395320512 4.42967603798709 2.6665455407451795 -0.6411017450531604 -0.5330642473262432 -2.420718308941018
P 7.568878230937986 2.807109390200015 4.543762668584641 -0.3583557306343377 0.20965752196326473 0.6151814256429728
P 7.288269166557682 3.926720941802358 9.022368169885175 0.871305466598893 -0.10590219655146922 0.14014594822568768
P 1.5171171343696632 2.9693771685757806 11.629068842739906 -0.9056312364639565 -0.19671844530409346 0.4248961375587327
P 4.05578684896774 4.510323707303691 12.929362476909816 0.9914065803585635 0.1477391871919133 -1.9215962228881747
P 8.183895430789562 0.1800754653948237 7.828046388194398 0.9225506379271143 0.48995790305507236 -0.5769514356274966
P 3.8559365898746156 3.773946027580189 2.8692325454873253 -0.3354222617666159 -0.5004631734617704 0.731105010986186
P 5.360569450215939 1.4590393284114171 11.10964524798159 -0.42797914735943066 -0.6899084821432183 -0.5986826566570013
P 6.398144132869448 7.130076373769802 11.064846338241322 -0.9495479924515647 -0.2622892892263676 -0.7707596492633306
Ni 8.579993291262886 5.111208116230009 1.2167193842947353 -0.3141168154206203 0.8275889995475489 -0.12760282145335444
Ni 5.845613132475739 3.040661632371127 12.628416456046699 -1.823419677115737 -0.40107820920352866 -1.2090890295088337
Ni 0.8558507003617672 7.947879674603955 8.075396161112852 -0.18589590076729276 -1.0639451138479226 0.6960696166486077
Ni 6.811106876878086 0.5797454211891642 5.145857533457179 -0.8899153683905965 0.11323729676030177 0.8314970763527035
Ni 3.2334547573325048 6.967928992695497 10.49171813796703 -0.19749286157627277 2.0593320190104727 -1.3509334484828668
Ni 2.837264283550366 6.280849377254524 12.698116306128211 -0.4280755637279789 0.028668057358653853 0.8598594295454804
Ni 3.407428857942559 3.8463974190666117 7.435469685722242 0.3615223012877774 -0.09184700400998376 0.4651966369499924
Ni 8.3790687177875 7.568683742989474 11.456244073292256 1.8901513741153317 1.1431554029305024 -0.5623969348520895
Ni 5.623294884663957 6.379806697723963 9.032628798368853 -0.10841879232573585 0.9625947983331936 -0.5205100648103165
Ni 5.860616488503862 9.022601555423389 1.1085155510731488 -0.9515657942125417 -0.4900486629966658 0.7013540049759985
Ni 6.391531542620016 7.297400838806897 5.168996042531662 1.108844031243142 0.8632149762812746 0.9550840917784454
Ni 7.420687675502188 7.257123310803005 0.18274550708797663 0.8782214769924359 0.8533959333083238 0.6143638148376839
Ni 4.290311530881415 8.704058079752226 5.470714458390301 0.25956546253730134 -1.439481984247237 1.1177071380607266
Ni 2.493298454609328 6.024153069210401 7.016298145490605 -0.9357707361618142 0.23474866060393762 0.2967695823914244
Ni 3.639554855157911 5.474002230853253 1.4213521946550962 0.46435151534087776 -0.4428961736805791 -0.23643504716742506
Ni 2.0934219711363284 3.3311803207946977 4.661162077238527 -0.32207000882942594 -0.1969364748521705 1.0021980145471125
Ni 0.7647312442173895 8.26327429777539 13.283416673580135 0.4384767044566449 0.3113415666683283 -0.8109261941798873
Ni 6.8945607294518005 0.7731757257151934 9.468770801307853 -0.42316887045498086 -1.0307763404054378 0.5568289538460088
Ni 7.066710347878186 6.924965678735952 2.958477508261276 0.27977484760564075 -0.5391605900319683 -1.2106939121021085
Ni 8.215495091757434 3.906262661884998 6.371776197716566 -1.0190094296774965 -2.072218130944522 0.6915843271837444
Ni 2.663225353624141 4.833886824312658 10.800878033188999 -2.003086823364499 -2.8445363829442236 1.5560781701774427
Ni 7.799392756579947 7.556857023453724 8.924908406619283 -0.10351801259000881 -0.8844394328776897 -0.14067610969754482
Ni 1.2389623226729716 7.848839002156582 5.919977914922292 -0.0629909990102399 0.05629533215761917 -2.8534539971488275
Ni 7.663547555209266 1.0145510140819567 0.3802730243960069 0.6582551169039954 0.3277801718403258 0.4880560580466691
P 1.0097629060161917 4.68539990628865 6.178008780746448 0.78566664828215 -0.6396148760949888 -0.22336355869544755
P 6.757983882941474 6.202202155408339 7.231101749425093 1.7026670458149968 1.1248663748133272 -1.4482661581977703
P 4.748367694952357 1.2116784418959037 6.7251246809737095 -0.02716190512677257 -0.501794233568368 0.2600997377742166
P 8.579984029932003 0.66095803168954 12.017823393957245 1.0006787496891087 -0.2974154435055394 -1.3071429336604778
P 3.6637176674278935 5.403532764175484 9.130278418917817 1.0825516732055163 -0.9424252653638544 -3.4561054086455902
P 0.5236208299138388 0.6572108972148619 1.8306020711133195 -0.9074929722630435 -0.06596782225037671 -0.401135030583393
P 1.421058610466151 6.315440448097141 0.7945962579111473 -1.6711525201464834 0.6924407616467688 0.5159149892404663
P 3.0217963013653946 8.337142672886689 12.102433060624975 -0.09625438904906003 1.8788297784549255 1.3267203415717732
Ni 5.171916140158618 7.354413591713764 12.908799543953494 -2.503041946841599 -0.2009715641534926 -0.4285180505820362
Ni 5.759547584593427 4.294516175101642 7.584193693816817 0.08436895046538374 0.48331802914105154 -0.9543613546798079
Ni 7.578334049768056 5.313068084124432 10.863529084336557 0.19169013885156666 -0.8732294230944833 -1.6560094938574577
Ni 9.004856845454327 7.773562904751285 1.8211953373369218 1.6911235639517712 -0.2767869686219104 0.6217613928533356
Ni 1.8350586235335251 1.302235735255771 0.14729868927190426 -0.08793584188103566 -0.1369768064690867 0.2722942229578794
Ni 2.048078495140224 2.448177250554381 2.2181359789204675 0.5194505131975506 -0.98415324123026 1.2847175147774261
Ni 0.024661071871410756 0.056511714906174446 9.788435824148774 -0.511029893234023 1.1591510070278102 0.6767328639932088
Ni 0.18315022724750069 1.979887315859318 3.735390180987178 0.06670829996082706 -0.22192219826323067 -0.32987382114456093
Ni 6.691691276491287 1.9846476399324384 7.477015089923819 0.11044405028588077 0.16599401963704316 -0.35902370323563976
Ni 1.932061803186956 9.110926868040801 3.2770043135368523 0.4791944938909812 0.6957775393294855 0.6264166322371598
Ni 4.874071739007735 6.52691367744662 3.5615077675528513 -0.9083980005758161 -0.17380708792355873 -1.1463818802876
Ni 6.352420942307199 4.832775464606871 4.844953188583031 1.396187692334976 1.00423972756749 1.5683266485274925
Ni 8.677774422710367 3.4026500112076756 12.561428323647307 0.05895745237081459 -0.7592123107453634 0.8241416644288968
Ni 4.093536033640968 1.226441003321106 8.900062108130241 0.8948565144459557 -0.290428470664745 -0.5298688803173972
Ni 9.011469435703757 2.8244095562867644 1.4458326705743167 0.1092204622914248 -0.49606735838691984 0.22174582058636647
Ni 1.3551364572512261 2.6229756096128933 7.133167806018066 1.476123546729671 0.7465964217535658 -2.1818826227519
Ni 5.151856097469164 5.26452944897419 10.934719082556914 -1.2487778634580236 -0.8063025793649469 2.228607280501949
Ni 8.89082207830971 1.4912224532248288 6.055201680990821 -1.4477804768106033 -0.7862250918887814 0.5614127165619492
Ni 1.3289454135181822 4.557732460086382 2.887965439461451 -0.09684754254836869 0.4961686598514746 -1.248516639376837
Ni 6.556522152274958 9.029714257540427 12.12688575255155 0.3482145284352777 1.7542778280127531 -0.04245662650231398
Ni 6.1801416652484695 8.679052486372022 7.341452359145024 -0.5874669904468398 -0.35588721448918703 -0.07938126744280521
Ni 2.1289669590597455 6.787823891041852 2.7545439283824726 -0.5393207697589163 0.11506817932145344 1.433555591460473
Ni 8.937684412570391 2.5504130821558917 8.505600724823688 -2.0310095179166954 -1.6770673429690215 0.07454733638927162
Ni 8.589625075379704 5.966482761810944 5.65019442020944 0.1519686518922286 1.2264797141814554 0.9412834384499273
P 2.263052507562932 9.21011572178228 9.11263002678992 -0.10857203007414849 0.25971870028571403 1.162587800623501
P 1.6193066593167662 1.1824126363101826 5.347202571354587 0.8562879101441382 -0.4596625945056406 -0.8415842853853763
P 6.89254175931962 3.149778632817635 0.7821536598717751 1.7842260376354109 0.6309461446763972 2.3040357339445934
P 0.6425965170837645 6.13250137919374 10.282050868139454 -0.36745563605307685 0.06719552400989073 -0.3748272459267996
P 8.479424499220054 7.630456819969461 4.457947176636131 0.5210924196763478 1.7131728304423268 -0.9683401854574033
P 3.119031014290865 6.863711236285332 4.715422362607394 -0.7564589163699424 0.39090486821495257 1.563668580930191
P 4.008461448162983 0.9268369493027275 1.6779466280595225 -0.5102343939159213 -0.6457284451918943 0.5198320649066854
P 5.58210048490279 6.57502629137631 1.3423234059765916 0.4138432221786808 0.26328430614978526 0.436977494203299
