# total energy = -340857.48957193556 ev
CRYSTAL
PRIMVEC
9.46925835054448 0.00000000000000 0.00000000000000

0.00000000000000 9.46925835054448 0.00000000000000

0.00000000000000 0.00000000000000 13.85921676332440

PRIMCOORD
 96 1
Ni 1.5876726730808859 4.291430014132652 9.900067956212379 -0.7731901130816942 -0.01698804991756429 0.8513439358753015
Ni 1.1721142697185185 5.353795579397032 12.111278035688326 0.8120669926525499 1.7054980875058887 0.28018031057417553
Ni 8.117578549226605 1.6339300001955075 8.81382470905399 -0.5525012730049322 -1.0499845379027724 0.3273677668932556
Ni 8.043320625125713 1.4458231827682901 12.113662394944711 0.5544051748958646 1.0503866584371975 -1.0085324414055727
Ni 2.8219336854510444 8.132265368951227 5.511658532531232 -0.06621901902923436 1.3964949391627497 0.18187700941588678
Ni 2.1119476317355703 6.725834300982696 10.254974812818991 -0.37287500729643525 -0.7110612049614334 0.1197604425908002
Ni 3.745565146405022 6.021794941520648 12.200074112157504 -0.3174646488469307 -0.10928576831172145 -0.5247647263216123
Ni 8.825074187991998 7.0662920162496565 1.1777579477042535 1.088434100128222 1.2150804712055785 0.11573178104738133
Ni 7.715182414992041 6.907975485639758 12.777061591354451 1.7437933835416615 2.0222112028987755 -0.17369473071541056
Ni 3.95253472649597 8.320429001928636 7.57525423720177 0.24223905544371185 -1.1546351214353276 1.2861244224272819
Ni 8.885488056362783 2.3878723512428284 4.9495557805587405 0.9588361026217098 1.607777141213631 -2.354566909924926
Ni 7.964943573635902 3.273835102419536 -0.018406344410522267 0.077673283612763 -2.214271580605567 0.7117970546861935
Ni 0.14596388307233019 1.4819294649152814 6.8458846116124725 0.33513738353634537 0.2025507357151544 0.40513643843330227
Ni 7.665383585248788 5.146825999306084 1.5701384473658102 -0.5003605864456351 -1.0519779141837173 0.7629638073679956
Ni 2.1778442006998797 3.5750522110205822 7.83074808486 -1.4859826989119376 -0.37543428338317925 -2.1871153319057495
Ni 2.99723806556834 1.9047507894438542 2.7731045077644 -0.2909051531908474 -2.203873010980063 0.5276423049797235
Ni 8.440366628383865 6.909083388868501 7.767675248740231 -1.6443788515970648 1.4222751334506474 -1.1215493946249524
Ni 5.859813807923366 8.964669994813645 0.35431597488461614 -2.2366579187205677 0.12744984081525793 -2.2057028650999495
Ni 7.46088548159119 5.057265753686823 9.053644093340093 3.050387643787521 -2.046320180131837 0.9901989332037076
Ni 0.915574069010921 1.0203031196055992 12.60267099466941 1.185459563015352 -0.0739886356723242 1.1368418020076487
Ni 6.514044868383797 3.592229445695285 4.349687732373652 -0.7106066339225181 0.204197527289958 0.2960172776064321
Ni 3.438628605751319 4.230021873633508 5.976537568089404 -1.1037298499450283 -0.6311508044880356 -1.7978919651582779
Ni 0.45264664760184287 5.120643499925956 2.2107527142968997 0.2760351780575504 0.729247388952157 -1.1490563417959694
Ni 1.8534179398454176 7.436180186516053 3.080003171384642 0.04189201224809559 0.4368972757846669 1.2966777724630958
P 5.603462045457239 3.24657310758576 6.516839246527405 -3.49210033868296 0.6143049365752904 -1.3905001550318956
P 4.144078884709801 3.6118876260617037 3.268294639349983 -0.28312293814226724 0.17117684938956326 1.9473522488063562
P 6.407222164764544 6.713533734366137 2.160471899302851 -0.5277937429559233 1.3677181241403735 -0.7606773253266641
P 3.859101554205291 6.131193283415268 9.282431791630591 0.7160236911730314 -0.04166266984610889 -0.012709991367500692
P 5.459652418663021 7.321526406228676 12.54489147397586 0.4972564935990145 1.4397948875019655 -0.951794108173264
P 3.8854639694943605 1.3578348340376734 9.393236318392463 -2.8181882319679983 -0.6960405631828851 -0.8065956851253335
P 8.961488324002897 5.149960323825008 13.546081842496884 0.1656474349309018 1.3545080532080027 -0.25611478498453955
P 9.277231274936353 2.777409232617278 10.306545340802398 0.3091347888249966 0.16140408627351557 0.17314400041826308
Ni 4.673022187738591 8.352141548194115 10.532463853808201 -1.2047716330804028 -0.9439720410256839 0.26203500712371647
Ni 6.674331004733683 5.099839539297333 13.288494341814081 -2.976997303820828 -1.6828700656937277 -0.8087469271403813
Ni 7.491111354293313 0.3517725320876893 3.9581092788956385 3.8999922283742126 -2.670085747899395 0.43739889801143383
Ni 6.222978804750381 0.15805328522734294 11.797935541750476 -0.6833907356293586 -1.2075810775047395 0.6775715578444201
Ni 1.3289820037985227 8.938146602132365 1.358925692601359 -0.08737739827440436 0.35114944269388554 -1.1745470298679062
Ni 6.908467887074754 7.5099930554737755 5.221668176648118 0.9230345195420685 -0.8239285199768261 0.21192420651025434
Ni 8.279947922416865 9.061256430139979 13.722301899898106 0.43833092290739994 1.050379459348346 -0.6937687364295729
Ni 5.845325842624417 5.829265980436823 3.94271131786778 -0.14043082645595814 -0.41627240044546376 -1.0638934346743807
Ni 1.7380160881471798 0.9485261411964218 5.016343406735227 -0.009052854230887634 -1.397616968582335 -1.0298787682918327
Ni 6.526165519091415 8.927550502021564 9.258788000418205 1.0210771108398027 -1.0282260631797584 -0.7325237457105835
Ni 4.886639187201999 6.293704695481006 0.49743055811481945 0.17268711538650258 0.12877293050205565 0.9271683392047838
Ni 4.2055438407591375 4.23271114300926 8.16432638392455 2.0185378678122463 0.7013563189688438 1.2298889969733207
Ni 1.3434510305807421 1.765514814440089 8.92020803908509 0.4792870536047874 -1.0238410467381853 1.3043108635283214
Ni 7.3111480990602775 5.01038345552009 6.362101148653763 -0.7089922382475468 0.7396804113600229 0.46726431811229846
Ni 3.4541392509537236 3.812635903406632 11.354579183530856 -0.2469223198519941 -0.6267999837185076 0.41105306102805333
Ni 0.7886093059227824 7.688251844201052 12.878344778829987 0.7985172789925732 -0.08395808818021025 -0.08607153497878725
Ni 0.3834453074680345 3.3471839777173575 12.3359645981808 0.7214906278248736 -1.9679318727299202 0.12885572002384904
Ni 7.955483784528941 4.371132761793607 11.284535079402534 0.6368712519115806 0.09469167254763046 0.29534313435754295
Ni 5.348606425812833 9.171147173469597 5.100649160887568 -0.6711826235989409 0.14905893444460136 0.5125172764128271
Ni 5.380366318370139 1.1095887567322658 7.458351508052628 0.9718970495707262 0.012429484012604401 0.5516270979300951
Ni 2.3651082541325827 6.4833739405385025 7.413627253867354 -0.041461866689212465 -0.7927407815201122 0.030447774966895953
Ni 5.69431957947255 4.655362020887257 10.692801124153261 -1.2754790268982936 -0.6604289846268626 -0.5389276480855557
Ni 4.135234597396586 1.8608039613703724 5.1499044552006525 0.5253411676503726 0.842507311420278 -0.5504333347323102
Ni 9.29381194633404 6.630242137784721 4.03498639986038 -0.5997648339775864 0.1152440427776854 0.4354235194526178
P 3.515045520759506 -0.004906969684912356 3.8456552073265264 -0.028745704674124687 0.37128889375623797 1.1538655902591546
P 8.736119974908117 4.651877333808817 4.870115331354504 0.04299681527650014 -0.22793112346147198 -1.9885284659343496
P 0.5716051527420976 9.170806280168446 7.911049289649644 -0.20870878489675024 -0.4504652442770887 1.63346091913298
P 1.4726022454254346 2.939115757721964 5.479976287892521 1.1978659070995046 0.9671186543454762 2.340675496654814
P 5.935785667788384 7.913847455496598 7.284875641725678 0.5696286767138383 -0.024748924809905763 -1.274632105516966
P 1.65862582601228 6.545568029481969 0.9334103640678506 0.7092817444635074 0.7334876522857496 0.23155432203635604
P 0.7704169667513167 2.481182423174759 0.7499662094597203 0.5927917450938629 -0.03433039785075377 -0.6375243121145472
P 0.4676506874817032 5.799267369935467 8.49338500597133 2.356379280543316 0.09191025314775139 1.2802054858396854
Ni 5.26144190256 4.29990500036962 1.7267060059556334 1.4517019233521966 -0.010245331877092033 -0.8094436960970898
Ni 9.277079766802508 7.729641972515896 9.904710733588898 -0.11109788181979577 0.12155198727358422 -0.6127496762730286
Ni 3.386926455076634 8.070004995199202 13.743575535741648 -0.6962794186665686 0.6514944011413941 0.03572470709511912
Ni 3.3964051827003265 1.0596952344053585 11.600372722919644 0.8069283858744039 -0.2897234741779204 -0.8368097468148685
Ni 5.817258960829588 1.519730744309666 9.937127792676758 1.166752730634468 1.6918401304028217 1.1305559689989366
Ni 2.695736879216334 3.6858614724116365 1.3683532862298784 -0.31158453591706986 2.1184123701123965 0.561884256881729
Ni 5.182297841142598 1.9783458654591743 0.370565222239517 0.20928445489456218 0.48559268410784107 -0.6150287021151924
Ni 0.3964314483902437 8.36370351265818 5.974958095794068 -0.25838378352437436 -0.18074932356934675 -0.779098251036013
Ni 6.995708164394511 1.5545965536107995 5.5981535792176365 -2.2499605493667447 1.0317711002185392 2.555680398972921
Ni 7.525266969217047 9.126357581401601 6.922276906548911 1.8971229203371587 1.2915890450862788 0.11051321296091934
Ni 0.386400663003853 1.4302841297907891 2.6205282415755624 0.20078927293935742 0.20592916526908406 0.6083438338958491
Ni 4.9259176709013754 5.945056071728039 5.93489082287286 -0.24914298165239673 1.4369319641318736 1.507501803930636
Ni 1.3417276255582526 3.584606692711197 3.4599391717024868 0.23515900866847889 -0.8569828793286337 0.8345667164169627
Ni 4.430438726935649 8.221636229403181 2.385600676160987 0.6135780857115949 -0.35385398610924224 -0.3839580045834742
Ni 3.414879705771079 5.8651639388997765 2.5433045457546486 0.19849019249253558 -1.2247300784802004 0.2447073144785463
Ni 7.222156008942936 8.777557449514788 1.9482042691565027 1.5038757771422746 -0.7833799091305025 1.9875349916728287
Ni 5.9213450487812604 6.093373065504153 8.304996951570663 -3.5313289451662797 1.9868523637835072 -0.4823824047006596
Ni 9.224790522109174 3.8208836274428313 8.298815419709777 0.3866761748455857 -1.1233743636488331 -0.48503526894247434
Ni 8.091585435013783 3.034130296159653 2.6648367953185996 -0.053828872894997624 -0.2682773884890025 -0.6666783079706842
Ni 6.791617238846621 6.667901378303626 10.678997786234124 -0.36075174167034 1.248712557437727 -0.15287805108037542
Ni 2.749313943047353 2.372636314533018 13.419879354707154 0.07759795029013732 -0.6028743261408456 -0.714163240925525
Ni 3.1530357734530616 0.8354982325703714 7.096279263640973 -2.2845079483243107 1.3168516763078095 0.6087570101738677
Ni 5.848535921210263 1.347418649835814 3.1881742973951166 -2.409746897531179 1.4399411832718427 -1.924530365815834
Ni 2.0639953073735553 9.02474296988328 10.352045127247791 -0.7326787832312092 0.9381824309271003 -0.245266529416126
P 7.179468592232043 1.4792780725729897 1.1317771229338993 0.04491100158007749 -0.637428152856315 0.3982335406658819
P 9.327816053123929 9.100279243863492 11.512255592275258 -0.8733345812137798 -0.6634636576881283 0.020849589755499578
P 7.456927331594483 3.021129004424059 7.321449705235916 2.387978909726468 -1.1620085310812633 1.1121676962997362
P 4.317745083129895 4.014018621062037 13.557890007678445 -0.589624660219791 0.7310571884673861 -0.4595705490124666
P 3.7438512106408983 0.5273070151832621 1.1071466349998478 -0.5158933919739115 -0.7712175627363557 -0.9014467660689636
P -0.012870615970152209 8.861616056023795 3.20440365930745 -0.4808484845546364 -1.104903558538155 0.10067128716983306
P 6.328835644016369 2.9510186154871794 11.91167837938311 0.05807967775155159 -0.4272358414355029 0.00523682291890711
P 2.867490287446632 6.194940330730648 4.890820811696128 0.3989891878849838 -1.3739065123392726 -0.4058964565277784
