# total energy = -381171.72173060576 ev
CRYSTAL
PRIMVEC
9.17789120799101 0.00000000000000 0.00000000000000

0.00000000000000 9.17789120799101 0.00000000000000

0.00000000000000 0.00000000000000 13.43277149835246

PRIMCOORD
 96 1
Ni 5.157791340241016 2.136135839101776 13.387530272455676 1.58770402461284 -0.7587924495991255 -0.9736945077907811
Ni 8.007058509511245 0.49366133383397587 2.3778154145391555 1.000568706473806 -0.7731597740643911 0.36810612515288216
Ni 8.057454310517087 8.572508391130249 4.641721267063411 -0.6862626578605148 -0.6856736181262644 -0.6342309860752562
Ni 8.710654010642168 2.1416976412160613 10.581330358006047 -2.537079238931966 1.367297234552871 -0.14008475597044906
Ni 5.6932937626208915 1.318642707214613 8.423435574263104 -0.5757787554756343 -0.31235792374798466 0.6377531402959017
Ni 1.1373426429149565 6.770943400665696 12.250284915188262 -0.4595679779093053 -1.2828938313051261 0.7637927310271942
Ni 0.846699017511055 4.360159165078793 12.832568884988826 1.2763439460017503 -0.6911258994900872 0.4811151079524617
Ni 9.085359777836766 3.5970175053381603 8.106986471953698 0.7804020574491011 -1.0360620142844092 -0.16689930506013193
Ni 7.86387422768787 7.2766819216319965 2.356054634319732 0.20870055736663412 -1.9218224799663675 0.20562346110320714
Ni 0.680462626165485 3.578817746934484 4.46927144332284 0.8877906087381097 -0.5472623932034962 1.5833544893948925
Ni 4.029571521256091 7.012487143312167 -0.03884726041111453 -1.5119554688266152 0.5921751945557865 -0.6145872437023997
Ni 5.404437990437886 8.153574365868424 8.061409063868648 -0.055536085394091446 -0.7927094140615445 -0.2998351086906256
Ni 8.68460715519606 5.14066539511683 10.71008332358437 -0.1139338086066941 -0.8667039632711395 -0.0025927004278406963
Ni 7.567593541461206 4.224803624515295 5.051997787482985 0.5941426026948025 -0.6773365590154787 0.21050727155806975
Ni 0.8515293416905078 8.323200152462848 3.214838181276133 -1.1384330577541684 -0.3211001887169889 0.06883228828236533
Ni 6.260441554126272 1.1473465444076478 4.026177537061599 1.553175137598035 0.10999924943897829 2.567677423433797
Ni 4.667196339882919 1.5923641366806935 2.6393651245927527 -2.4269051544780202 -0.3062253284876855 -0.66718198707998
Ni 6.093670091719211 1.852401330251726 10.70203706630121 -0.1009188844042649 0.7113016031070136 0.935306394930886
Ni 1.501512190922756 4.308818041271347 10.28417042979498 1.381073462401357 -1.4132119948071147 -0.08438746240814499
Ni 3.2148409346435165 9.234151751230815 4.376692218426439 -0.7121876052563928 0.63323519782089 -1.5952386424269882
Ni 4.0799030770229905 6.557612495806873 6.766826198638521 -0.1894856750010801 -0.627018527487217 0.04866404086460651
Ni 7.5550932535409805 1.0954547471235403 12.472798300270425 -2.0653463435253525 -0.2662156208639673 0.6048116523728746
Ni 1.5458597615765952 5.084937239278645 3.1012507632450803 -0.7048491626134507 1.4157877259540905 -0.08861949821162157
Ni 0.7112498624565247 4.999601206178604 6.386987236852306 -0.4859153575545825 0.4314393379938892 -0.0122271381938112
P 6.426845900882224 0.4065594744521059 0.8117991681384787 0.4807394697805978 -0.3809253884047375 -0.47642361601406336
Ni 2.674694499277125 7.2092519544147455 2.859689582605183 2.7226689213127497 -0.12641702867536936 -0.5770385960246643
P 2.4710738033901056 0.8226373399483129 2.1100871480774117 -0.4301784690035947 -1.4479342287796484 1.9472450338045302
Ni 2.893945144010065 4.095312756478246 6.3057592278881645 0.020235353210268377 0.06655043422672409 0.525043948124928
P 8.128325986963475 2.5089417828018896 3.6956513851104584 -1.3180158718192396 -0.8263047335184867 0.5248752837575477
P 5.465131385457306 0.24055620154498933 6.014214333560792 0.37554946880480483 -0.4211757512843521 -0.4867103426520521
P 0.013531882899838702 8.87666370807318 10.127570824290995 0.03948854501292554 0.17061043536313197 -0.8877039625615744
Ni 3.1866739863122597 8.346447751069258 8.820897922880755 -0.8482092469010618 -0.9713316639855594 2.455572954726358
Ni 0.5972274123789094 0.24390888522873264 8.01006885785033 -0.16877621036787063 -0.05844040352508 0.29805461975143505
Ni 5.388459281723413 3.4750433302575474 3.8389384593161435 1.653838454348068 -0.7468697300196105 -0.8541862904201031
Ni 3.5250077703733376 1.495243691180088 11.675778290456424 0.8788732516438219 0.3320546308459636 -1.7304853535788456
Ni 3.818893026976522 5.067269798569075 3.86286246850972 -0.4438449107470937 0.9580087216244082 0.09165597104510022
Ni 4.918174954762863 3.719716733829712 8.231199134716942 -0.5848606631722444 -0.46041361373905226 -0.4181529052976282
Ni 7.362128089427369 0.035100845191558004 7.067974838398876 -0.38339390454988814 -0.3387042749519973 -0.550816943323974
Ni 4.669958885157507 3.744166636193501 10.797933181105371 0.809719832576612 0.8102345674295013 -0.3064500429039819
Ni 6.719987748291914 8.78497657420897 10.494675461929402 -1.091932600199784 1.0013914594854172 -0.23772728361628737
Ni 6.3139945497316425 7.390616263953345 0.08763784823248764 1.0459453348363923 -1.3105234200969365 0.5112458658995712
Ni 8.257605763501136 7.384063249581068 11.229474875615374 2.3947581374318303 0.8695715146269218 1.1754713414543885
Ni 4.291214845800721 9.14922872323827 0.9893353792251511 -2.0095747450816877 -0.767275290259156 1.3730009698058676
Ni 3.2558844644373837 2.3820482579964297 4.461923623565913 -0.16205277560110798 1.4821972637275762 -0.8550496668616628
Ni 5.128752492238378 8.88028897512787 12.452474777825088 0.04892063696010285 1.5928984243295856 -3.5425677513048925
Ni 9.009550395882977 3.7849256513577596 2.219563788605183 -0.2760182087766859 0.15955829131402843 -1.1391995036065476
Ni 6.974481495531217 4.953243677334949 1.4629898278628721 0.0062976600832536705 -0.8117988265928278 1.104215017111563
Ni 8.692160559717607 7.2695507001092246 6.5489595799102585 2.6547699434779313 1.1842282617114122 0.23094137104270546
Ni 8.38767483868868 8.344465326553275 0.3206966303927251 0.939927438642665 -0.4379552847355361 0.139390815227218
Ni 2.5445703567419153 8.53533793145557 11.79300657795734 1.4156936235783877 -0.3257862813387486 -0.5996707316018833
Ni 3.4644520437230826 9.058560335305886 6.771352734616682 -0.15883915375981678 -0.5917059682288519 -1.5683803845835635
Ni 0.2712846993318518 1.9121310466869879 0.7851942969026862 1.2551315735901931 -1.1537707165525033 0.2498628905375568
Ni 3.4207010360022942 3.5665377284049233 12.757237671170602 -0.9298024343935212 3.3743222166295115 -0.23124758942921464
Ni 8.827809792801991 6.183411512632548 4.4594382506079135 -0.3554439563041814 0.05179461607378821 -0.9758961434277903
Ni 4.665397473192489 3.63905224739002 1.5399602130632906 0.5231444171093701 2.036228857334106 0.1609328030640519
Ni 6.822073432973755 2.324291788185873 6.567254788383222 0.8400627065345274 1.5327675204759603 -0.5107568420782945
P 0.5495170623609213 6.110704257930621 1.320484709994047 0.26174267269427826 0.49213691298426215 0.05581607852835548
Ni 9.005704859437621 5.997375656433599 8.452867236012429 0.6138812187743106 -1.3462725526720878 0.5574917842409882
P 6.92716946599468 3.9570937138361066 11.686054775320065 -1.2241659784466141 -0.5949560997350334 -1.4382177728228327
Ni 2.8237250978443935 1.7521604017167027 0.33739855693988086 -1.250840402414007 -1.5826399798263713 -0.5018520833894969
P 1.5296791392540128 2.5263338867731284 11.997143989123293 -0.2705024211647793 -0.35594557853094827 0.6527894658037339
P 1.450822697396027 8.5708013033526 5.368568037957257 -1.194784954181336 0.21669771663949777 1.319722312987385
P 7.113471481040683 4.679871007737421 7.2428026537695 0.48354300066766404 -0.7090850550716691 0.599522121839161
Ni 1.9947779576426632 6.426442073666005 4.983181958682801 0.7584708045936486 0.4555313459460864 1.085712330321685
Ni 6.7846459923433 2.3032101719209996 1.8188240150122659 0.12199858789269957 2.041347409507594 0.35090261679040213
Ni 1.6820780239201967 6.634394734236098 9.996722546133974 -0.31360722277405345 1.1221800862304157 -0.44821552901096356
Ni 0.8057940738754804 1.3951771425793411 3.4755683056386313 1.1827138819494147 0.6239566007324415 0.18736117245890957
Ni 8.85636221256691 1.1850676775589886 5.785387477068702 1.2311768625468087 1.2904461897310873 -0.6917871872231699
Ni 3.260941482531396 1.4941239884442086 8.636439746192442 0.7542076584419205 -1.5473017095363932 -0.6055706420260861
Ni 2.0135192116317233 1.6682652975472603 6.288350603712625 -0.685199249593007 0.23480445354253757 0.41287494472814057
Ni 1.7936077587267891 7.130937008142143 7.563765443009278 -0.49814249574839364 -0.6055050788954732 -1.2533904225293706
Ni 2.494036887366907 3.150944455568179 2.055522748853239 -1.1433742038095276 0.19430109411185248 1.5892194328161018
Ni 6.716968222061551 6.467155199373876 6.148072042267771 -1.7788796857218332 0.654533445078034 -0.4405335869856736
Ni 7.881394822136996 3.22890146408095 13.339494107297329 -0.38950387410236786 1.046920554265468 0.16964447190543688
Ni 6.091384796791065 5.669018240191378 8.96392985170892 -0.5954898607513164 1.9440740922757163 -1.20330276184436
Ni 7.084102228952048 3.7041785638965683 9.277975264292698 0.0770878434229382 -1.1547472215331596 1.2803299272326918
Ni 8.250988503889916 5.660941695867004 13.161900075495607 -0.8898636892170546 1.572854618304833 -0.038383227763888736
Ni 1.4778332314262939 1.3270312998424294 10.231769259544961 2.6741365209300008 -0.9718384284186489 -1.3813719674783822
Ni 2.9817316740812516 5.444114014431376 1.4015750505890245 0.005211111887294251 -0.45466488418073303 -1.4557364984328864
Ni 5.831898276696695 8.471826923813898 2.6492781649617942 0.2861061891403073 -0.16089963583327127 -0.3547608141942277
Ni 5.313374953180561 4.466870506964593 5.821306072373102 -0.816958002196264 0.361917479843667 1.4660237392915074
Ni 4.890466900995491 7.759677628012159 4.5905554409793705 0.7448786677315108 -1.41479090925846 1.055878277679388
Ni 6.661533758744253 6.014180375363066 11.197585374581882 -2.7186790834270664 -0.29291447031139234 0.5849902467715731
Ni 7.573045208880159 7.6781687755749175 8.700580357175767 0.86580073473058 -0.4697292347130233 0.6273820814742228
Ni 4.531014789104429 2.1526101539452447 6.514061566115937 -1.468406380591071 -0.12100819895497222 -1.1213164526785397
Ni 1.7630270249894977 8.023762271636656 0.6259468697650836 -0.13530224698014118 0.6832259279167201 1.3850249908499372
Ni 4.817713756837175 7.2174753449995634 10.376076915260725 -1.082111500344304 0.3571105453733269 0.7168305033450428
Ni 5.210555037196505 6.24086511203094 1.9236538891861383 -0.7846477200993326 0.216320278695421 1.5002829175846937
P 4.451295625466339 0.3299185755485566 10.131734833563685 1.1445738805445835 -0.7848426097189579 0.6228607965651015
Ni 3.6986351175648386 5.387624093617142 9.263991829141997 -1.264780409533867 0.5514424927231149 -0.011011520619155231
P 2.609788452161241 3.3344196801006505 8.659691015955364 -0.8083694891963046 3.4913428916916454 -0.9727362576425699
Ni 5.2692292961348315 5.144602710474963 13.022561330117588 0.5806096012053743 -1.2666678563645668 0.014501021829652447
P 3.173723981719427 5.977294430317995 11.691857955974951 0.3006036114255339 -0.48801697727861754 -1.075162836940613
P 6.499534799801596 5.782998471969117 3.9761405916047146 -0.8091719304929419 0.7918270114565912 -1.0470833050955775
P 7.789955491337286 1.7116400117256636 8.484273062175584 1.4886116518943524 0.003142145173407492 0.24204647981693156
Ni 0.4132611706630813 0.41045090035385007 12.238006732236958 2.096858812311337 -0.45093498482465566 -0.47178406035952297
