# total energy = -340863.5713250732 ev
CRYSTAL
PRIMVEC
9.30934264244219 0.00000000000000 0.00000000000000

0.00000000000000 9.30934264244219 0.00000000000000

0.00000000000000 0.00000000000000 13.62516395999113

PRIMCOORD
 96 1
Ni 0.21123456921076914 7.676353577570946 7.386828368024282 -0.12252669248202769 1.223671555308699 1.9281975302547762
Ni 4.322216057298158 7.09656772041218 1.847994806821284 -0.7072703704604335 -0.0773099867360733 -2.026130078337207
Ni 9.126227831542284 2.7010964461907334 9.96552650863798 0.8948832539188328 0.6182772909594773 -2.038279312105231
Ni 8.645698185189984 2.812063809988622 5.7244897806846495 -0.3202869487870742 -2.0735530477058615 0.19036704916476893
Ni 2.3637351796914317 8.760808206445093 0.36156835006336663 1.818610428652552 0.11345455497743043 -0.45058660034630144
Ni 1.2558675541770425 7.484674213426775 10.199293410678987 0.4780976612823766 0.41478913103171794 -0.0375617603038579
Ni 6.479814463786851 6.7832897232203555 5.092786650777189 1.8614277809283941 0.656270739484115 1.0515719369945502
Ni 3.404985149556685 2.794664648668299 11.246264902506503 0.7468733295640364 0.30596487573744724 -1.3762991809411653
Ni 6.9980097103007495 1.3718154162661953 9.68871786108359 1.5811330562635415 -0.8033229279113326 -3.2795973768511004
Ni 7.848809149245097 1.7301692503296113 11.613190779236454 2.480503656529767 -1.011552202068503 2.4514013398471715
Ni 4.714092834065954 7.541200541696974 6.261798038491622 0.43198415475376567 0.4430776935637659 2.8856010141950175
Ni 2.81277132002626 1.7374398469005972 1.0556720034219393 1.3288160477585373 0.7143715002815891 0.8582925992789927
Ni 6.537848905558332 0.5121953752078796 7.0797029153571245 1.1480613248725517 0.39933191593638323 0.2846028651219034
Ni 3.9864280696983396 5.858453082574279 13.147343442704324 1.1426861766035674 0.2788950161038487 0.5516931752813402
Ni 0.7873367195025199 0.4462005145787176 6.370349627884683 -2.4179512877188425 0.6793150228980882 -1.0702422597105437
Ni 5.4795535293915725 7.844275499398657 12.925321207288103 -0.9156279426653521 -1.1098333917396048 0.6635379625694895
Ni 0.8062430633898633 0.6183665656979936 1.776666623816299 -0.8220714121634294 -0.3812966557012272 0.24794690446176654
Ni 2.3763586482577015 8.027110988072359 6.053851529087348 -0.5677854528575125 -1.384598959056112 0.076715547685184
Ni 3.654819976926143 8.745317460357871 10.720687347310415 -0.6185714251611282 -1.0102759064592406 0.6422566845932101
Ni 1.7378773860028205 2.337296646706029 7.3397119232546615 0.5644635875731311 -0.38778920540410633 0.04296621914888084
Ni 5.051016561463032 4.119998517330228 5.219704642186763 0.29812558219868657 1.9857961546048508 -0.09344057374934875
Ni 6.916031639360799 4.099918265340962 8.836845054937408 -0.08268590633600598 -2.5531347497329318 -0.7450964401692717
Ni 6.050141756061051 1.1554011288325114 2.653268767646436 -0.9273753130092675 1.4854044578109642 -0.20627600708554153
Ni 0.5249594148474169 7.634461535868723 0.4844172278222656 -1.2600526650408945 -1.7464449622318954 0.2966016893549924
P 0.6652381747572209 5.920732584571583 6.402954669408653 0.2565071353269518 0.6555276906705032 -0.4090720260422826
P 8.971953405966897 3.9927118759536735 3.165439007629294 1.0517220894191692 2.035955034847429 0.5218256982979466
P 2.1117033474682576 9.352351763308283 7.962749917069583 -1.6421319645444172 1.1650568309892837 0.2332988155312885
P 0.5714391005831634 4.980246939014077 10.37291916671802 -0.07977336067490132 -0.7995670604133261 -0.3203879931413127
P 8.537942544589265 1.6777111047758277 7.7877212431006555 0.018529426262755184 0.22625913507568776 -0.07489726352952263
P 5.397994378868645 0.03706607849812691 5.186419087718698 2.5278775178280397 -0.2963381512809606 -2.6002337601032637
P 0.9423568234202061 1.3842620073230558 12.929858580871583 0.25897539436178624 0.3162708856491456 0.6569016881998945
P 6.58645298327551 7.603247310129267 7.52831175686659 -0.02043538503621642 0.018992224831786645 0.4590000212209772
Ni 9.327309631712954 0.1887850895296779 9.249715330203575 -0.14978861352177428 0.09483102633897217 -1.3076820939933995
Ni 4.099201445960724 7.84414516860225 4.162392332598618 -0.5890014248134953 0.33759998614422504 -1.3193248204386505
Ni 5.327559892753308 5.481396779226471 7.287132756247072 -0.02955200262550394 0.21568084533920917 -0.16839517287936806
Ni 3.510860302952104 5.788968149404192 5.4512373020036495 -1.051989227037627 0.004887667109604486 -0.1858298234160477
Ni 5.046008135143967 3.895559576574918 1.1075585553400527 1.3112785530954063 -1.3845380239111897 0.1298671920074989
Ni 7.778635324722574 0.3149611263339934 4.90418681716526 -0.03198220933355137 0.32897959146506567 -0.08497161704638914
Ni 0.13421930881114236 4.193970553633753 7.549457928583612 0.3773890931167049 -1.2589892567733865 1.5494300687333058
Ni 0.47293787746159643 3.6076029912564374 12.3124471537244 -0.4576897870499859 -0.1066637573078421 -0.2287127388225029
Ni 5.30969526430296 0.7295936601544359 0.02487456342851997 1.0431271486613067 0.014282992281575401 2.644992295265877
Ni 1.7933610679017649 3.266964836161762 3.3713011552253183 -1.0124011803323594 -0.1657024565385533 0.07841093310973592
Ni 2.9791013442692864 4.64599499294334 1.5709543566361426 -1.959756793118296 0.3338546601691799 -0.07354100661194432
Ni 6.5609919312631595 8.116331727555492 10.935870008718052 -0.1650152006635416 -0.5608753560012405 -0.5220149314906172
Ni 6.235816594227904 6.1020134130310035 9.548283635152359 -1.7944027210580968 1.5528807462860674 0.099725378316796
Ni 7.786874092924011 8.591229221634494 12.948892462752553 0.11576391983689742 0.8677403749554539 1.4909852943328517
Ni 6.13454025607713 8.207377098188324 2.935936715433576 0.48098809545629423 -0.5230341167837508 0.3401818879387883
Ni 7.423269789633916 4.1267384813729855 13.34723737075917 -0.43869164868092836 -0.12545260787957105 -0.10116802430059352
Ni 6.245758972125231 5.8838117318180245 0.9185267682314616 -1.6814546734034397 0.3391529324536417 -3.1585416124876438
Ni 8.515320842070066 8.210598130728096 3.0858273715783895 0.08252829771221916 0.02313684312777951 -2.2582377017738717
Ni 7.438406780702319 4.041306644328253 11.003573133714404 -0.07424343199560762 1.0642006815021543 0.7553314876337185
Ni 1.673326404410995 4.256138343519852 5.59878386568166 -0.3175145282482596 -0.752729017013865 -0.8613033610808586
Ni 8.469174430799416 2.086763618641534 2.9442480965072964 -0.4490495948764847 -1.9589492096153358 1.7785528985100338
Ni 8.338573663457087 6.624314079631719 10.009167775814836 1.2775523644875546 -1.0599719881327874 -0.8062195327328374
Ni 5.771997217843491 5.675589665872775 3.357445129698743 -2.053048499994606 -2.3830087102053863 -0.19985339138864935
Ni 0.9951687239928085 5.765098994976524 3.2580902398607106 0.6385769217487777 -0.6231505598913784 0.3713644841891798
P 7.488602756004182 0.09910167571929883 1.4575246717204235 0.8197535626635302 -0.7091961267282367 -0.5936317244966551
P 2.2963820859768576 7.435725690033376 12.087904879266224 0.9970596648792828 -0.14133739743062756 1.090323089620819
P 8.626371989951359 8.464864205175388 11.014596326287649 1.3321006320470798 0.6340746630030499 0.03919492503190669
P 6.168230766948317 5.749003141620271 12.031237979922757 -0.11233612510227105 0.7024942892280288 -0.037745337069573705
P 0.7966926088160164 0.4926010709023599 4.0862139820987755 -5.479500604550137 2.4571953208211292 -0.15382524548499313
P 5.217839980863884 2.3009343545084993 9.735970222255178 -0.5433682003554126 1.7837388135863474 1.7347572414813222
P 6.390174803886694 2.308149095023882 12.901980823520143 0.2637841286043393 2.1164020245505872 0.8352902248465486
P 5.880953763639673 3.32271848899612 3.1824024917159144 -0.26812492207153826 0.296944674516708 0.04315056724554504
Ni 5.04948051993395 2.6893666745141114 7.7480857860447925 0.38146532006860756 0.14615281654139992 -2.4184480248496025
Ni 4.105205971938043 0.43446981196783513 6.658957867185197 -2.173473829862915 2.1719077709273757 2.180650807227328
Ni 8.173993795622954 2.0503082330179994 0.7298021894286869 -0.4964483958754224 -0.6774717990417624 -1.9893049390890578
Ni 1.5930984898799379 0.900178984900148 10.777694968593059 0.20089365972770562 0.5673144267583649 1.1533755379966135
Ni 7.947367159356527 5.9321086012293875 7.768455558588934 -0.7215209668421767 0.8807457860761864 -1.3068606265333687
Ni 2.4918596619020303 4.933569895215199 11.722873453755474 -2.1239759802431037 0.6595267845275673 -0.3249275328828791
Ni 1.581545595712725 8.089567367579074 3.512567636385034 1.744980718981543 -2.9839454530038867 -1.728878671213358
Ni 3.40638155094676 1.0340631573776726 12.507287039681438 -1.8440653783905467 -1.3872441099884432 0.48362373330692837
Ni 2.002579233505267 6.062467325664105 8.205836401987943 -1.9500292814178868 -0.6061031174907885 -0.21079343533992084
Ni 3.3634468628732814 7.85866774305902 8.42719115753971 1.7417048764437488 -0.3733833143914215 0.5892572495780433
Ni 3.432866630645165 1.401959067606595 9.211264952460755 -1.138312215905588 -0.8610076842173108 -0.8163874744047748
Ni 2.1496389185652705 3.5767704485636016 9.384644941855136 -0.9700517688318714 0.7338301232268329 0.9665895213148836
Ni 8.350554787383922 5.0214593987064635 5.232812196568259 -0.13427406282594295 0.891924171290509 -0.8914145786439422
Ni 5.9819042747994295 2.1751185892628224 5.1246832513292615 1.3914113539922552 -2.1479245206389006 0.3343873927441983
Ni 5.467051082279109 0.8648118614266113 11.507268148193774 0.342324645313404 0.31452999169863893 -2.5502039492393824
Ni 4.5698631891565 4.771475621855398 10.577173590846938 1.208907509625647 -1.6100818780874078 2.002273326324268
Ni 3.8298169991302293 2.3128875504075332 3.497184878671978 1.634006250113489 0.30126129961419085 -1.1379538041249047
Ni 9.111314264696292 7.502389892395515 5.07811233403603 0.4135053792232879 -0.6250081819254074 1.1967677889393196
Ni 5.4532732552303775 8.826206338213563 9.056115448680922 -0.041800223865237685 0.29599850855335474 -0.6794849728170491
Ni 0.9109545489602199 3.0967993627673316 1.1347129767714337 -0.3553022885199945 1.290284210231926 -0.46518789519924403
Ni 2.67879126131995 0.4996268317629527 4.512995208012862 3.450902267178096 1.716331944896599 1.4585058336479075
Ni 8.608358412019403 5.3581690112237315 1.3276100029277496 2.474149432176965 -1.618272384318 -1.0906221089184767
Ni 3.175640185250915 4.183795442171413 7.449340603586599 1.2198902338893958 0.20624849628171577 -0.7870115923458187
Ni 8.472665434274601 6.20503059824807 12.260862224506543 -0.287333376679189 -0.33495457810157797 1.0798535575480628
P 7.394112928609168 6.41381122474935 2.416491224208431 1.0524857070580713 3.1955184468223092 3.3012697196182117
P 3.473176084105304 2.748769589647863 5.553140158911437 -1.317226800259041 -0.7608591023201671 1.3773615607674086
P 3.9583417830726493 5.838540398751822 9.03364735031463 -0.1372665697953636 0.4000027167511627 -1.5634955456874362
P 1.0855624406436055 5.291076579101971 13.715089527077872 0.607176038839993 0.09376993206430949 -0.29276586054867004
P 6.89494597837068 4.081792975297801 6.687176346475815 0.28792447329596865 -0.9243069584965888 -1.0951577920053008
P 3.498935035080871 3.5027146281766712 13.236533461356876 -0.07808080346382681 0.08918694067931737 0.708744898123431
P 4.306864951349944 9.20607406302672 1.5939530875306631 -1.195668899448186 -0.1244269948285341 1.498765966719535
P 3.444037841765758 5.87749999753489 3.303952716182044 -1.6526200085599345 -0.43568654330601736 0.7822349968927819
