# total energy = -381167.06643997977 ev
CRYSTAL
PRIMVEC
9.22143541176527 0.00000000000000 0.00000000000000
0.00000000000000 9.22143541176527 0.00000000000000
0.00000000000000 0.00000000000000 13.49650284209136
PRIMCOORD
 96 1
Ni 2.753594308305907 9.687763129175831 -0.003673819765140496 1.531967393172168 -3.801006299326602 1.6162250148706683
Ni 8.491715325465947 8.00320057677598 12.021793203721261 1.6811762229310723 0.488707575587739 0.09120140000618487
Ni 8.62760239388741 8.805363999340756 4.732764193132177 -0.13496311847316755 1.3232457527596115 -1.0168201353356616
Ni 7.263955006263298 6.307221887656139 10.562565640731483 1.0334520874653879 -1.682209035070961 0.57558643695917
Ni 4.113294921684337 7.979031195238749 2.911897763441927 -0.02154353049873064 0.7152076230296391 -1.2286214431148066
Ni 4.027544796192265 6.8267852085078236 0.48487135966083317 0.6341685082684368 1.042902177134694 0.1576047671320834
Ni 6.148207459869788 1.8205049494322338 12.781417223779588 -0.8459500185532399 -0.5293353764114304 -0.45332996741939346
Ni 8.881376289310769 4.692834456774158 4.469272749344095 -0.6842330290249958 -0.06730710988709053 -1.0875491264201076
Ni 4.342733449737701 3.904244986755282 4.003292421738651 -0.257217274020099 0.08222439331855518 0.4933311904026794
Ni 3.9299174622225292 1.3438581877847762 7.95517626464025 0.444017431769216 0.025866326243800614 -0.4812868576436356
Ni 4.866621623676361 1.620833214054254 10.344448268616025 -1.2725991342473373 -0.20577464196909076 -0.02988856002931627
Ni 3.4646499515544478 0.8584510627415266 4.46259181957541 -1.1063073808642172 -0.5451376335510095 0.10478145268346471
Ni 2.4288799122469404 1.7397805060988003 9.771346217406839 0.24307954906713625 1.1923048680719597 1.104291635985769
Ni 2.814658651892153 6.509355746220095 10.530524842147251 0.8601985580524539 -1.579998428438466 -2.7776676461461323
Ni 5.238890960821747 6.0808817618143385 3.8548844886658142 -0.7743039149711634 0.2671111360950432 0.8112228994846996
Ni 1.0291951560430865 2.2713409140851426 8.204064643719303 -1.900111313541521 1.5667868148441986 -0.5199518783140012
Ni 6.549118574601836 0.7561392397138315 6.086599051609487 -0.6069734359108837 -0.21586056545018306 0.23852201160344083
Ni 2.841788114113647 2.6780799758341813 2.736037617917225 0.14708612698894669 0.025225350225692042 -0.368569695052862
Ni 3.4920283925250857 5.958771517512154 8.046142033855121 0.5799729960626399 -1.5506577704928197 0.6692149583496088
Ni 8.756010878399412 0.4988741089413699 7.047441241721028 1.430100285922021 1.6487111604238314 1.568507911300363
Ni 5.6376534811630385 5.7773858880434945 12.07602261957176 -0.9929361296292124 -0.9719412725451003 -0.04777803871522739
Ni 6.884271635254525 5.09183673442944 2.5649154457743726 0.30201129040633795 0.959346209488909 0.8217811346165202
Ni 4.95869765368371 5.203711185711278 6.2677624444909465 -1.1417688069956209 -0.3608160192493721 -0.35603968090665133
Ni 5.407219038113099 1.6958680318979997 4.075377302476803 1.9645200188348941 1.711028016185182 -0.46419107850361346
P 6.930885989955291 0.9129257687671065 2.2835814471078524 -1.4113466594636015 0.4801830830564956 0.751345506402777
Ni 0.4808056289016704 6.026871816120494 12.707348812339923 1.108822433976587 -0.7671742459049175 -1.1469480372037149
P 5.3412581124603635 5.266343173273612 9.974266664389384 0.4083084084033807 -1.0982726834851988 -1.5272782152266147
Ni 1.219839106405824 3.4088510474408302 11.306505843880794 -2.019869699249792 -0.040590519827852674 2.1367255665992877
P 6.157650209466935 5.975757401064836 0.5585017529307059 -0.057819225001313326 0.19021458274730468 1.3850370750347953
P 0.6522164319648257 5.830731890406291 10.462717785176794 -1.055844082007343 -0.20586360213847127 -0.24779983736094097
P 4.3950282084930015 8.976818143149133 12.045857460897743 -0.04275256047617798 0.22724952401341508 -0.8385478125518978
Ni 5.39561847269004 2.2712394782984546 1.699547384524232 -0.8143015384100233 0.265583129486291 0.012347980042391637
Ni 0.8048302616111578 8.204504506176123 10.289949586859048 -0.9484434465334762 -0.34317130958441544 -1.104639506243491
Ni 0.5334434250446799 6.660024775192561 5.645020485707141 -1.1792758028021433 0.43691244529331846 -1.5815405761146053
Ni 8.47463722756173 8.777238622122686 2.1457007044062113 1.594412804091583 -0.6350786787875321 1.5163854795735108
Ni 0.7184558449591962 4.002969671508279 1.7988271996734682 -1.0158883675500117 -1.1197318818002393 0.43912333690170824
Ni 8.38849058035806 2.226524739239302 11.556960944792422 -1.0700535407385057 -1.6836743067625777 -0.38883435883916906
Ni 6.141558805124139 8.745775085379064 4.180933226391487 -0.17872072317509222 -0.37696049021971856 -1.5583196579134517
Ni 7.671145918334855 2.743616715469858 6.694333124681028 0.8158004915530531 0.42796012119603716 -1.223039578151655
Ni 6.370407161327683 3.260966891884711 10.991402949682284 -0.3674872606219607 1.5824851994160616 -1.1224847619550282
Ni 8.724335248647257 3.513191586202288 9.489120505960978 -0.11547647050346564 0.507582558115371 -0.11697002432985662
Ni 7.78899585959614 7.86694465094838 9.248518508510829 0.7829016839425033 2.2018536665571884 -1.6899889361266958
Ni 4.74300828544416 3.712706557182659 12.914681716043402 1.183408594023594 -1.600341253760876 -0.6327497735440393
Ni 0.983761145041964 0.8652186740006548 11.922877635260587 -0.2722039772369183 -1.1512163255617658 0.07163813316227662
Ni 1.727368454382236 2.0082349262864763 6.041627956653068 -0.07265937533793938 -0.777388467433758 -1.1773166221932432
Ni 1.059579784873754 8.26256266190234 0.6130410090023599 -1.3817923428452525 0.10987917892134624 0.15604770705760868
Ni 7.215929771984051 5.43833216032089 6.52873090362104 0.7533486528757348 0.3381275765129209 -2.1026494508511857
Ni 5.14187224157214 7.360365110792775 10.265547825155949 -1.2023046595971487 1.020316064304062 0.30470966317410747
Ni 5.241021112342197 2.915661031128056 6.312543577883204 -0.5855852000430948 -1.2895162217176501 0.5644098515170602
Ni 1.5438065662173601 6.057957274022825 1.3007968520486402 1.8083203595804533 0.1487429458660793 0.4946612220680126
Ni 7.868549180665083 0.7546887079641914 0.28031041936448614 1.1217998200728616 0.17447608896612532 -0.7602060421172003
Ni 0.7899671524308028 7.394696513869126 7.862293359056972 0.4973670510349498 0.30073473768675946 0.2413589668316037
Ni 0.20479977546682177 4.369503275988211 6.808526766903963 0.6006598349880301 -1.4804124039130115 0.015307834001663958
Ni 8.251847354254013 4.528656025301865 11.793662275172657 -0.33960416105844743 -0.06737704389307751 0.4723332479947736
Ni 6.587110887434112 3.961039805865474 4.765803673143527 -0.4899165082941756 0.7167641688834817 0.18017802444690903
Ni 6.79697230865667 3.8820028851651247 0.7169204760061443 1.0578289736478557 -0.7647885192815602 -1.930136913369334
P 2.89211870718126 0.5264176136012548 2.2453595205402546 1.3944223729044374 -0.8659637426710055 0.13230845445913988
Ni 6.3383626741693915 0.016309030212418377 10.839986062318873 2.006594322297125 1.1870976128394073 -0.8312515360008006
P 2.8475883968251767 5.664607736116617 3.2529138125651893 0.7641447150499744 -0.42642362994685273 -0.18614812598741487
Ni 5.9171275163591055 9.082717104451525 8.30221114448818 0.030307649844605867 -1.2357050894344652 -0.12270769814458221
P 3.5909467274163056 9.123973805328129 6.384169231150714 0.01694614093603533 -0.8348179131958203 0.16100993615889048
P -0.045897849189341845 6.394539657124301 2.9268512426867863 -1.1956876685012634 -0.7275203789587212 0.21129660022858449
P 3.2492741121101165 3.5175072178541096 10.990242893139978 2.809620287793329 2.0954539615440106 -1.526808474679048
Ni 2.113313179860211 7.478113616267371 12.248076156665109 0.7077966752775487 2.228943066574813 1.6090295255634934
Ni 2.0653801599324995 4.394133729283116 9.458740487847887 -0.12563515620402232 0.3891557467343298 -2.059117589006821
Ni 1.8048285096713432 0.20150034596891198 8.04122977534887 0.7674724938716266 -0.7496737751273088 -0.46569748784581083
Ni 1.163966430810979 1.1133407518184555 3.532709675848112 -1.3161600495574235 -0.0496837403783725 1.5194258090617316
Ni 3.0105034916814444 1.9643040092153687 12.156043467402982 1.255782834020947 -0.1633558106832477 -0.9023430526309879
Ni 8.48738125094382 5.789198546475084 8.271237265951203 0.36788938115638575 -0.17868935571652453 2.743963569025468
Ni 6.8412720831339175 1.778298440734824 8.579901754125565 0.2767954532623426 0.8261157574361321 1.5078468459748806
Ni 3.9378755607599696 8.052664354939168 8.288148455879144 -0.7839980023304756 0.848451701929171 -0.9034817942211214
Ni 5.036010166010362 -0.011999853565204137 0.6055080186254943 0.37870472660433485 0.3346661003268817 1.355420537719943
Ni 1.206292818165384 1.374547123975508 1.273005290783127 -2.726240183603776 2.0647282503253797 -1.072070056947902
Ni 2.948664547542308 3.597576939291647 7.120821734098242 -0.24338679589490986 1.1229555309438597 -0.010353832430498297
Ni 6.717603416290797 4.08743801751402 8.344212937325182 -0.21371086609703194 1.2361956559176388 0.692633337273549
Ni 7.6944300420973555 3.123881036893298 3.032461573068876 1.2666249189417735 -3.0694320620134814 -0.6973070886001346
Ni 7.4535016058427725 6.790240660994641 4.4730378613172554 0.35709948962973337 -0.8565658463958732 -0.19840740297074216
Ni 8.371578468286604 6.674188899588283 0.8228489459010286 -0.8243707497205675 -0.10248082957474608 0.6825450997996115
Ni 3.172496443022366 5.217386574043866 12.539033645057788 -1.5628018620545214 1.4009979692394259 -0.9028773278679032
Ni 2.9199397770392643 8.833710691002508 10.213640366677092 1.8741537131354948 0.20695477832012102 1.3118593652995405
Ni 6.44579239370726 7.9257405214868735 12.62366982118332 -1.5956628744486 -0.9367189590076964 2.1521519284566875
Ni 3.217838239671954 7.164455720957409 4.87949843572466 -0.1985722106833806 -0.6450396466549858 1.2085650386845637
Ni 4.599550418761704 3.4096072051234145 8.714975491966491 -0.43973500234377816 1.1790168927138016 1.545953680148931
Ni 6.044908943280671 6.622438205507037 8.140942075806803 -0.16971054925668194 -1.0767471507085973 1.2961753789053805
Ni 1.8712505070817522 4.244884801324283 4.893574956486424 1.2709533711137981 0.47360285873581665 -0.6761268549780935
Ni 6.592625305655885 7.3126902910493605 2.2127377715413568 -1.5101646954747798 1.7428145645681599 -0.14229513335820654
Ni 1.5249026241527566 8.81189277542941 5.556847889200254 0.8804827622227868 0.3544070303992348 0.7516103300283894
Ni 5.511070840811422 7.441283204264431 6.086936556136104 -0.24119801577370717 1.5051811262172594 -0.4265907516523363
P 9.142573440032669 2.9884365973592026 0.0087990934234364 0.06067674905476648 -0.14592553102194222 -0.15476086992538507
Ni 2.647741454179281 3.50122216337309 0.3626864217339052 -2.9128503368292735 -1.9292509112199552 0.17861967882085367
P 7.773282534094635 8.041109896691877 6.560082860999306 -1.796018659394965 -2.9253263578090976 -0.08414063650466154
Ni 1.552373279474929 7.808572966426946 3.1144797837543403 0.1443468736809127 0.5675337418580226 0.25724247083107954
P 8.47061668183482 0.6532455441279524 9.649365073196803 0.5261788330603195 0.9153006412329204 0.5903216862868156
P 1.8792086056191926 5.643758071234632 6.77975220065109 1.4107951578355058 -0.4870934370230838 0.3569755624573594
P 8.995417777853671 2.017419475699328 5.082499109193041 -0.24942117501444783 0.04480867167425832 -0.23580358423101327
Ni 4.079830333512412 4.608237010676269 1.4792436101338893 1.3130592991449128 1.4159031684860326 2.3205998089508615
