# total energy = -381175.41844622046 ev
CRYSTAL
PRIMVEC
9.20472659678418 0.00000000000000 0.00000000000000
0.00000000000000 9.20472659678418 0.00000000000000
0.00000000000000 0.00000000000000 13.47204780242045
PRIMCOORD
 96 1
Ni 0.7654153404970702 4.558309371086098 3.8187326180190606 0.867448554746648 0.10811951591776219 -0.3376331533750056
Ni 4.528587309595032 7.5505450048024 7.6116128415185145 0.6712921525936116 -0.9883076297182657 -0.19031074200553677
Ni 3.1846880529343937 3.5254746378163246 2.8064833348324765 -1.5211757018733028 -0.7218608666800987 0.5762243276534851
Ni 0.22715055579186838 1.8549824843565126 10.3969989434809 -1.039180762419049 0.2604211256693773 -0.27640001759613686
Ni 4.312460334119578 1.6213297098476143 9.132067954933612 0.7711358016558268 1.6107051134937034 0.5081713407393054
Ni 0.2624451586352705 7.027265514648904 0.470351392977968 -0.45615278158016925 1.123008238558666 0.9400907036934067
Ni 3.6517818932453783 0.9292539472806222 1.757819233601666 0.8723179670238075 0.48949870403046664 0.17329261018098543
Ni 3.861990229656492 5.259543836404287 11.652701273356481 0.07746759535986013 -1.4983620464128968 1.3134179680359122
Ni 3.4013304930873023 5.834977306244492 3.429349680197493 1.7173195056208486 -0.5690350089938975 -0.1566640004853689
Ni 5.845047276907616 4.688123627267118 12.909535784577184 1.2802170558039114 0.6137696328971107 0.29204595166350994
Ni 2.0109289587391848 8.764418296575208 0.19981620032458097 0.32362038403568133 0.40215318743526224 -0.6066798159298649
Ni 5.304334034984507 1.590383419747594 6.7539550969910085 -0.6539896567594221 1.3098875862851505 0.580549180281084
Ni 1.7491465404034985 0.052984246006465494 2.574144074778448 -1.1787294433803701 0.3782660964050195 0.07044642684702061
Ni 0.7058653631615314 8.900362900527378 11.39309485233776 -1.0597102498309685 -0.10486912730126455 0.024859996466473314
Ni 1.0352003479502336 4.207406791909128 6.674133550741943 0.12420845105982478 0.04401728612121451 0.1650817922354189
Ni 1.681721919647208 8.181832754335325 6.833372555751855 -0.45273989924387836 -0.8733374094272572 -0.7263173597895556
Ni 1.574744589622688 5.192358538533957 1.4919480758066015 0.8828474058002215 -2.1533878577463175 -1.3229917277672762
Ni 7.888275620525138 5.977208738316329 12.333700068194037 -1.0627091845582923 0.16499566027951584 1.3155504409978827
Ni 5.396427322447535 5.477971993475519 7.762041082434512 -0.27635116663607245 -0.9341033757617204 0.3361766234341372
Ni 0.07421678835438841 2.398107364591997 5.188987767732462 0.16042141064527213 0.5211543832625348 -0.4559568635192793
Ni 8.464924114247914 7.78606633876707 6.735350504025464 1.2089828429482727 -0.5026792072764826 0.20790428671758387
Ni 6.871862119122835 1.7129535562651048 10.142336381002549 0.5060231840480511 0.15937857120305454 -0.24119313067770073
Ni 8.704108929313064 6.7254333318203 10.410174588825685 0.35885555308889167 -0.1619018518455405 -3.4059074476349607
Ni 5.584617953350247 3.6506681213530223 10.80204924607916 0.6037107059992118 -0.17200860126223927 0.9197540490185837
P 4.900062452238256 7.763174184252272 3.6861679895947677 -0.9618165254062726 -1.4482432753796348 -0.6375415385057278
Ni 8.415577576108054 3.7356369505955227 11.528259815965283 -0.8826769416606283 -0.648944895246663 0.595073342039188
P 2.927406745800049 6.716108943994208 13.08537275220112 0.909031263284441 0.0954069534471002 0.9826326908206755
Ni 3.808151785041674 4.572871248224181 9.454682568990004 0.18035774455788292 -0.558164899048613 -0.12675872828550425
P 1.6542458113936205 1.7968638419735476 3.8585292525364423 0.7972170721239109 0.24742959850571583 0.11897137103060157
P 7.109472925976471 5.1542877902134085 10.227938495420208 -0.04493825527358712 0.10765877423125975 -0.04772198866631136
P 6.336855807557255 3.94292738874319 6.498727364312735 -0.19108592960866444 -0.8244365699614963 -1.096601209320047
Ni 6.248379977562788 7.240787552557937 1.6059219183549245 -0.44915938098147157 0.09473203886726266 -1.6454759413159856
Ni 0.6085474730034485 8.411159307444162 4.470187002584744 0.5510753391916833 0.04571112888386966 1.248976866842707
Ni 2.5108928769642604 0.9236298594605411 10.526694458691576 0.25325237583508 -1.2837476946649893 1.0020782011397968
Ni 8.782965820237179 4.099462965614381 9.196194522226834 1.0432101952934163 0.8515555376654754 1.2562358623979657
Ni 4.127380900734359 4.6931125889667635 0.9106143763548217 -0.8274288198206008 0.7726447821011855 0.6196965399045069
Ni 8.559723591267577 8.8842730388097 9.162932322968823 0.7088282018658567 0.9903087193086946 -0.4993917947744625
Ni 3.4264778055659626 0.2058968425732643 7.478158116052975 -0.4493226460322133 1.4701513883066357 -0.011993167806134183
Ni 8.762365642591774 0.15742107154924675 1.0319372724474207 0.135014026315761 1.8038708084495323 -2.148220197502449
Ni 1.6566298355268463 6.920582735868644 2.722660494024673 -1.827664054214388 1.9415086455413852 1.1081053533049046
Ni 0.8751034624414165 1.779043491695844 12.609216858765963 0.05826479717916417 -0.02556473584298178 0.695556424457615
Ni 7.965153495276884 4.432480761428967 5.009957680526223 -0.5880994818245162 0.08217374258627784 0.3392220951286803
Ni 1.0602279989859134 6.696318782270518 11.941474710865364 1.9519663505395997 -1.225884760909934 -0.4925598594542936
Ni 6.198536384198241 0.15647850756761614 8.533167955652303 0.39889379995770013 0.0680208481246635 -0.3576877580330356
Ni 7.042278423379758 8.231298953918166 10.820452255536914 -0.986482660694385 1.006073181231803 0.24784354611468284
Ni 3.545043886106819 2.9380658189516913 11.72968040009844 0.11173088741810434 -1.0627819467777568 -0.27982549833791803
Ni 7.733001091168433 3.4427885807168357 2.7955573246157233 -0.825625448063275 -0.14526398617854336 1.5585451436606963
Ni 6.044467673997723 0.3192567298718337 3.1194523161120067 -0.8050059720407103 -0.40458082304014836 -0.13080024534472956
Ni 5.547035055528003 2.4835456348800364 13.198457418180835 -0.0765078025497521 -1.4018664878873082 0.3398286183644276
Ni 4.549518857390227 6.011174178670009 5.606971631371632 -1.3122961957266432 0.8642948396090148 -0.6187660576704377
Ni 8.246348681554553 2.5386727411884906 7.754995784860878 -0.37338434283268596 -1.0047583190751213 -1.2060934372156196
Ni 3.714254371207555 7.525167574164162 1.6295927927217333 0.3630325672847167 0.27611848179997606 -0.368153690561366
Ni 0.11870599238188045 0.7617776326304645 6.772088407965738 -0.8871018102012013 -1.2277079301616018 -1.8501887176794651
Ni 5.32005570764686 6.719772425094686 9.999276523556233 0.38009980717964864 -1.6554456509341875 -0.09204600739466728
Ni 8.035183053599596 3.06598390149779 0.5958845309182021 -0.626584782383908 0.044250485177943145 -2.2130279380064533
Ni 6.710512470353277 6.302549792327398 3.576613336182976 -0.19852670215742585 0.03883779880280409 0.5956451553822579
P 7.086902936885083 0.39030801282307015 6.395827728075934 1.4732477678437723 0.7480015296312086 1.2711456896302624
Ni 6.771208436123513 2.0731160901834853 4.950626775678602 0.49616094654199067 0.74811234417746 -0.40970863118501694
P 2.277046803201317 2.8825244999559976 9.772313744182581 0.2163272206739565 1.2853541199201606 -0.21333419948390356
Ni 4.42240158603946 1.657182119109833 4.449008768122481 -1.1742444110258228 0.15225455856376358 0.43470052524366426
P 7.53711530900944 8.16962728715132 12.877485847783829 -0.15443613959611469 -0.07292111363975828 1.4544889991790306
P 3.492512512638403 1.2641771214565112 13.134033538225438 0.15725098333709048 -0.5615749531714264 -0.7350429125880115
P 0.8094673200213645 6.314856511501619 7.944022204919175 -0.45976029642576954 -0.009795388823867001 -1.358917495129608
Ni 6.303856863473801 3.5306476940436333 8.64547114036209 -0.2574281044793244 -0.40926897254443706 -0.25519433005279923
Ni 5.5123976701483555 9.172960872363221 0.2601669888554505 0.5012237057768787 0.06037772975710892 0.31661412792117727
Ni 8.04960685984193 5.1961600905301815 7.291799225700503 1.105456859938464 -0.2745930462943852 1.3411252041431936
Ni 4.894383136059877 0.4516179338430598 11.407051978952472 -0.061683078832093764 0.2591438016188505 -0.18456792598448857
Ni 2.56260502978458 1.9366468168274764 6.061209230343326 -1.2173358428986583 -0.7943685469315223 -0.739406845983662
Ni 1.6280307506545195 4.233612647921846 11.681127309372805 -0.731386803892663 -0.3130953161346414 -0.16122153794906427
Ni 8.347066797638556 1.1131367662360374 3.26311876502697 0.8607917115517626 -0.04800866666879474 -0.4048991256115156
Ni 1.9461737086339967 6.37021373596965 5.220216642932444 -0.46160686271620505 -0.22119843272332873 0.0855017785182463
Ni 5.206920415672039 6.935761329674394 12.384880187829411 0.9552823238321805 1.7446202503183306 1.1266072687638338
Ni 6.736506617659183 6.401344120597333 6.009152820756278 -0.4994735558549914 1.0764177923936364 -1.309902755793802
Ni 6.976602700636259 7.17990749226004 8.405965080346173 0.4760438640771414 -0.6405875244209032 0.5050525926046657
Ni 0.6600598832612544 2.575105048212845 1.9364314262301114 0.5464537812592717 -0.1908488738971939 1.4264197517466402
Ni 5.391714502539383 8.555829992007522 5.629577518895916 -1.6263932136529213 0.04526761358854785 0.027713920975500655
Ni 8.336499771750745 5.533826273168239 1.828911017348988 -0.2690669742698334 -0.6623303154146335 -0.16749682943481475
Ni 3.0042478016462617 8.812365716304834 4.778925491618596 0.19961402168433365 -0.15041956223755384 -0.046198867153565595
Ni 3.1409471931618484 4.040009637905865 5.205397033455634 -0.21171260472008055 0.45618569170063367 -0.20022003069944871
Ni 3.6812094034921854 3.4303898142787843 7.457168578481566 0.2084051376134024 -0.2688412314122725 -0.13993177533235254
Ni 5.514257024877744 4.479912716481139 4.149000041590372 -0.514292880256011 -1.7358713004811073 0.4145685303804796
Ni 7.624081563877077 1.2150238825706967 12.292394779022462 0.1494145180118072 -0.5953160541776134 0.5306602658704409
Ni 2.360570490401669 2.9856910732579096 0.5406828663260451 1.1924359943331848 0.1944831282156715 -0.7568175852609417
Ni 3.218460194034029 7.183893138783926 10.877654107172123 -1.0003532480288901 2.604369379538192 -0.4093137097394435
Ni 5.289440787696632 2.63073841447237 2.6004686717615084 1.109729776282205 0.8098882398336762 -1.3027453188134146
Ni 1.7417735545706263 5.61737757454774 9.676729104002439 -0.47599861266150273 -0.37517383063294096 0.5839044699065622
Ni 1.719185156026471 8.035974660068543 9.176781754284852 -0.04862264610370981 0.5216840305137597 0.46371002510213694
Ni 7.51199561070993 8.485993732938857 4.602927441282954 -0.16335426802135092 -0.5201920193492654 0.2856451903434887
P 6.779474280415546 1.4576328558503624 1.5039657665723916 0.85023296219931 0.24089256871814638 -1.3189013597479866
Ni 2.9519189321582737 5.755117100144618 7.395130563604671 -0.6705439615736775 0.01586139251228881 0.015516607578360375
P 4.37127853570766 8.609337066472548 9.465703387888503 -1.325300321295795 0.7544750531706942 0.9164003020550024
Ni 1.2782327386435222 1.4604310926708282 8.399161867076414 1.754372187498772 0.7175275294120674 0.5121601501837244
P 8.74004418111273 6.438337915931057 4.297556041160044 1.2558357987460693 -0.07626277641848156 0.3646716455500365
P 0.24528846912978927 4.606440885343388 13.33655868952457 -0.2540874701418656 0.28149388717927654 0.14199817094307804
P 6.156857383135513 4.827437161075508 1.769917005486989 0.15830025053721122 -0.03193618658696435 0.20728876462077203
Ni 8.474515439139116 7.8498642973284145 2.5221290864601245 -0.342894401773945 -1.1526844254668598 1.0988578665647075
