# total energy = -340889.63939203287 ev
CRYSTAL
PRIMVEC
9.07298802937502 0.00000000000000 0.00000000000000
0.00000000000000 9.07298802937502 0.00000000000000
0.00000000000000 0.00000000000000 13.27923509267535
PRIMCOORD
 96 1
Ni 6.296436091192729 1.8904659769690872 11.418535353096727 0.38000313370078426 0.0425584421875009 0.1456069713402589
Ni 4.783533447103877 0.09018096667379007 5.976106982767607 -1.0372809742931748 0.4049852575674186 -0.14344544491256586
Ni 2.8349731263939293 1.702029084082328 5.062708388142748 -0.5361845381227798 -0.7818058797751631 -0.095240603072565
Ni 3.6782529459551494 4.220681548258337 5.325769702056244 -0.7098299036574937 0.925627219969909 -0.5954842043243616
Ni 5.241991543187846 4.647393258468611 2.4775736025922024 0.11727084339972707 -0.3397527708211697 0.9793316514719006
Ni 7.768310682431953 6.589103473052626 2.767339442810943 -0.5971633917989974 -0.40173461184060494 -0.33187928161036395
Ni 5.100779554122917 4.522186020670101 11.424617884417026 -0.5396334159033288 -0.11341933086412079 0.9454694515068169
Ni 5.515251803188973 8.098885009184762 12.677048645437868 -0.4498126982947543 -0.6168888952523827 -0.6721681274406617
Ni 1.6373023859334455 6.48452821052613 0.8069470381290358 0.23320394182463708 0.11715360109557243 -0.5352658829632523
Ni 2.343425842175818 1.3917782510011618 0.19086210264498715 1.6763345785680548 -0.20426746129594497 0.7632273454420275
Ni 0.44944498956012563 0.2985013133022479 4.684781228433836 0.4476851104287903 -0.3114194710941152 1.0636188408567553
Ni 8.79232442785885 2.234359450467419 1.138806100017516 -0.041113482210858227 0.2795007680086477 0.8517663681247009
Ni 6.9680005352050625 0.6717504402713823 4.965903232750356 0.44388373440482914 1.3163863066356167 -1.763930006390536
Ni 0.8097442404053605 7.849840554812925 2.8583687338857584 0.7210892786213968 -1.3454855379944182 0.08654256107793482
Ni 7.928430779002107 4.314151473171401 3.827899184893811 0.10821001874903945 -0.5739319320748825 -0.4079330273418329
Ni 7.384523279614777 3.7997221125961973 12.670781025157345 1.389463229126949 -0.15433818056566967 -0.12846799766712713
Ni 8.191601876073383 8.730537377901758 6.77037814901778 0.12942650492565452 0.05491207865684737 1.2214331528964835
Ni 6.929748816758792 0.7721974931458258 0.2528487583434965 0.8853164361660043 0.004680436194804843 0.15724712668234853
Ni 1.7531916648030383 6.325378923698326 9.300351887927484 0.385785030489884 0.03406068912913489 -0.8665396697791334
Ni 9.133232888224159 4.850827800926454 1.5396479988412037 -0.11771615846726177 -0.755520463716073 -0.012840603408094014
Ni 6.5489645730511326 2.066772284570585 6.940100189048961 -0.3092815988155061 -1.6303293154825342 0.7873712896780827
Ni 3.6185436103064537 4.4313381893602095 0.6066263452373132 -1.653408823009817 0.9871920280565837 -1.054584755678945
Ni 6.165231608163434 5.839656497934319 4.644014477645701 0.7189642618585941 -0.824698051152999 -0.7540796175044884
Ni 5.237228224358555 2.615869533234781 9.406240011853216 0.057847764246403595 0.7130833775977848 -0.5585806464297928
P 0.2763087840518741 5.33854628410464 12.524457314514466 -0.7647093293041927 1.0006646086217217 0.5637063976921325
P 4.031709349065048 6.208482543133397 12.626680858487529 0.20955853449155523 -0.5422798523872402 0.2933839537486431
P 2.3475812707926087 8.508412479656602 1.4810863962056608 0.1532493183768651 -0.1018298262543085 -0.9525505267233143
P 6.557964977391431 7.860601118873 5.75126381724387 -0.7331138138860986 -2.071793384702277 -0.06513298505390717
P 4.462721655704054 1.1226915655933178 12.572527820840849 0.2708983710516173 0.6755195604113979 -1.5708743546500106
P 3.9203928562715746 6.070228348236752 8.047548227089722 0.33317768870681325 1.3366651114893109 -0.9716754204782232
P 4.858403746112088 1.073044173909734 3.4358299584054404 -0.977241344601775 -0.7520111650112339 1.3918612970454805
P 0.6675115401627256 5.8173913847779755 3.556365514555948 -0.008859507273158936 -1.9106890890573676 -0.4416576732877877
Ni 1.596201749177847 1.0136705388261502 2.7004524661606233 0.345659880334224 2.141219083594267 -0.5562666535846356
Ni 2.1327419821092066 6.565595360506543 5.054820332161442 0.5652166636890718 -0.5050579919213044 -0.5504117374657553
Ni 5.9105619010789106 5.621287816823118 9.423237348033776 -0.05481977605335721 0.47122227431878205 -1.081205700700583
Ni 8.699634779934966 2.4539076200506345 9.955137654775992 -0.9762866939979896 -1.0098179929862157 1.3533292024085533
Ni 2.2052714501498807 5.198459345582248 7.146830948136673 0.8292918411712685 -0.27085363385661093 0.1715134067933756
Ni 0.4980607824801085 9.172428197448042 9.094868664723636 -0.8920172452249476 -1.1148994934086027 0.6763567116007126
Ni 1.5612979633944506 1.1186359398472356 11.100166010132801 -0.6291047205922843 1.0638271002128195 1.1012014270962196
Ni 4.073563043845087 7.083971470968873 1.6719221871847338 0.41872960373670465 -0.35965388062047093 -0.45854210774795223
Ni 5.2507469768454955 7.727037658899675 8.123598921868773 1.1246154351447857 0.6252858610668264 0.05407004237152623
Ni 5.189422649288964 2.507138842091494 5.044622293372635 0.29497803770864034 -0.07218192148088859 -0.8527058492198346
Ni 1.033132098614397 7.3898581967035835 7.215763883636525 0.8529850710231502 1.6440253249123882 -0.9866657232394686
Ni 5.289543074586542 4.269793633635391 7.5044146535998 -0.4247207883231331 0.5028974939348759 -1.0119352964395347
Ni 7.536586562622245 7.418011679231756 9.014343172141524 1.8615031142510199 -0.46097205734568353 -0.03670404028925292
Ni 4.101843548208707 0.32390023659885314 10.296493413461844 1.0220263621269494 -0.9690037871833312 1.2158345757627835
Ni 8.823154441919671 7.080124523952454 5.001305125588473 -1.496562788420629 0.2775140765959221 0.8406772001900747
Ni 6.848636301837149 5.996973041136376 6.988038229746948 0.8392134711603547 0.7975752267942781 -0.15789787289247
Ni 2.6408928348179908 4.9100562681980975 2.6478663335840733 -0.9897021960729471 2.371628750503219 0.4543445247268369
Ni 2.325461325448205 5.117791407084671 11.616144129801642 0.16709316623849288 0.5317149323872005 -0.5220771521871201
Ni 1.2869761637685093 3.409048311700104 3.7956438043794996 -1.1749188113850282 -0.4084122809710966 0.6658329292512533
Ni 3.5707380352368623 2.811183751212212 3.0159801492058196 1.3021117989944735 -0.8117862281873374 -0.27354249354268373
Ni 0.8407466412428615 3.328262424355325 8.16477758632329 0.5548162942913543 0.9123058202706547 0.2905148597309642
Ni 3.910448861153664 2.517082837209405 7.128811086180757 -0.9328782451053677 0.4083654868935612 -1.0196995137659857
Ni 4.494141414000883 6.677147750994419 5.960770003436115 -1.0696923007443448 0.11332985647410804 0.524088269079878
Ni 0.539138736765091 7.058739490655999 11.081760546176419 -0.8355915581370513 0.6051986033986481 1.7421792449770062
P 8.94372538272434 5.882009207067902 7.866061243199605 -1.1516693539387846 -1.5386067528655565 1.7933650238222019
P 8.52663104005511 1.5402486306631065 7.790130311865404 -2.347597163475312 0.910177203963426 1.4073596497913956
P 1.7637616961099416 3.4333004092823804 10.18506713751059 -0.23250408754413504 -0.13909153881924435 0.5767498611396519
P 4.058393007497325 6.045005440912124 3.7943817517144436 0.8665514968536754 0.8508546549437088 0.7688866006103339
P 6.9128821316089795 3.989438296825681 10.3138627421605 0.6986499757812741 -1.1931767291539517 0.08641272036828988
P 5.962994700154099 7.656830875850046 10.48084927623543 0.9652870004533762 0.6519492292906256 -0.1394412088491792
P 2.3585232946176093 8.633057192183845 5.735660092057936 0.2939763359170034 0.4074118647310403 0.531266274885556
P 7.127766785233613 3.8661091675941472 1.6085401058939481 -0.2608199037696928 0.9549948744987489 -0.45001684388576046
Ni 5.264238510367697 3.067604545028265 0.35688962186228695 1.3447466029458648 -1.9248334988785494 0.07182633791368274
Ni 1.3703750717282135 1.0994647156828692 7.200465918154491 1.7699913820932678 -0.037929685166237896 -2.4342178860893497
Ni 6.682355646247778 0.6166465534564927 9.24674322957558 -0.06324656666447172 0.06253385686816326 -0.5964033737045212
Ni 2.8355265786769523 1.863963778301736 9.068442679157553 -1.2010301637600993 0.16656531875948088 0.08018653695291997
Ni 6.581527527866991 2.1539001906995057 2.773368443500588 0.18070767169813393 0.01517439374759322 -0.5458349167283503
Ni 3.9697136203782923 6.735105999911585 10.344777135012013 -0.5887705397496119 1.27189696597399 0.8639567395433055
Ni 8.122293318860136 7.118621213081374 0.1420494258800603 0.14308034826366325 0.13202306200823713 0.5148402681190487
Ni 7.624848592281948 3.8738030616269836 7.959161897491044 0.4056038649880241 0.7129219123192561 0.9561950654544371
Ni 2.7975107579250853 8.016311743155468 12.575489244204432 0.519889143396866 0.6565633310238693 -0.8395988795242315
Ni 9.058498684039641 4.8884716291602235 10.281581049980277 -0.4491604094227361 -0.6427781043143188 -0.48017948351206974
Ni 8.75614135073273 2.4822334893554863 5.597410433655413 -0.44659110603366314 -0.1655132233458827 0.4839003840070828
Ni 3.54669461638425 2.7013733744676194 11.26935637305275 -0.01010340698258905 -0.05344140764859183 1.1813954202483072
Ni 1.2292901044987314 3.353222215020811 12.8108371155197 -0.6620384952058276 0.05322800608620511 -0.7426868022865145
Ni 3.0044746928107258 8.494195107074699 8.109827940308586 -0.7216500362208733 -0.2510098596578064 0.13363437235941503
Ni 5.715900938255211 8.06537846359129 3.5994694671163225 -0.25780554242340115 0.04724967701558314 -0.41958809508225803
Ni 3.2096331030353586 8.382570132680852 3.6159623451503897 0.35337318981808175 0.3099025202289566 0.47034887057489316
Ni 3.5557948235952574 4.559612097185959 9.312249297414816 -0.5364223651651987 -2.69724353926111 1.3140923683951176
Ni 7.114656317217754 5.9874010385365635 11.582175769106433 0.4596651656088019 0.5398915546607218 -0.8052378855458584
Ni 0.5220851480574039 9.002990141948969 13.292647268751915 -0.40802455861437464 -0.9843139351778403 0.304066887383786
Ni 4.787425759061526 0.5641692967388977 1.2576776701236578 -0.5931149327612365 -0.7844500022662296 2.0950382141628303
Ni 5.894892850377605 5.7157013325137935 0.46304539894128277 0.3750115940234638 0.2971105106706109 -0.22009440102587255
Ni 7.940724678075801 8.77544866972079 11.217169451959034 -0.3807114726217185 0.4673658766871692 0.3145215070582067
Ni 0.23524353195043626 4.8565619294980955 5.989067746477403 -1.106718757370023 0.030169324494528686 -1.116875900408683
Ni 8.102795467118902 0.05542053410468452 2.402745039329924 -1.2106175503382184 -0.0063940764518018904 -0.48130562669671295
P 8.647029594083099 1.846489202939422 3.4465324553407393 0.03134020487417828 0.544834500488294 0.6641750819328561
P 1.9572250244851341 3.119565548714647 1.6216732563804224 -0.44717577489253957 -0.6466437579173121 -0.773911307518435
P 4.682768839640814 0.8474651890392235 8.087785115364277 1.379659612772966 -0.2627325474113733 0.8336004958489514
P 8.65060435145213 1.585404893164787 12.282389988104013 -0.7195026508605674 0.4287813315457519 -0.7328962985586539
P 6.450159731049263 7.758402979267028 1.5225436013993374 -0.44987054811588334 0.5047463742181566 -1.2267504513443388
P 1.6981730640776636 3.2119194960734188 6.270136220163269 2.0888356848965444 -0.17037260832071302 -1.9420573189560038
P 6.807091088657484 3.8413489826700795 5.723257317125285 0.2219751629883532 1.5291908588682952 0.1383747152578778
P 2.084237786944653 8.332314850784769 10.304129240369903 1.2588365332456062 -0.9912718545529122 -0.5476213192048118
