# total energy = -381171.6658611448 ev
CRYSTAL
PRIMVEC
9.24019136232773 0.00000000000000 0.00000000000000

0.00000000000000 9.24019136232773 0.00000000000000

0.00000000000000 0.00000000000000 13.52395407162146

PRIMCOORD
 96 1
Ni 2.754953799015775 7.603596346107142 5.81673369460943 -0.5573629719726079 -1.16338150016939 -3.3143247530299567
Ni 2.0579754086607482 0.5659081246547261 4.326109728486098 0.37379160557343366 0.6138763336783041 0.09844599738374013
Ni 0.13046226111207393 0.6557153920391349 13.082559467459166 0.13998885382253312 -1.100358362369634 -0.2931299287563081
Ni 7.19197354380106 6.756464846957496 5.964184971464874 2.7708082000221377 -1.3895917842850134 0.013707836504395747
Ni 5.850501049734294 1.0945930626344837 1.2786197887540356 -2.681278531291421 -0.3986001799766813 -1.4905278950804588
Ni 7.524223102750479 3.0865750249560837 10.421085911873698 0.30549822051367387 0.010061498001060092 -0.24711438125814217
Ni 7.872079344823227 2.356618391814104 12.624759733098301 0.9459962705445641 0.8020656584654638 1.5381928052565894
Ni 7.340204692803106 3.6826043252445757 3.620497303370598 1.8053029129103682 1.9718777447515456 -0.9936935766205274
Ni 0.2928734076991182 4.341476166635356 7.989181213319538 0.33308332922079414 -0.8296263416925518 0.47423586433412523
Ni 7.404387061645409 1.81117913895026 6.745261114993591 -0.9623505435328717 0.5250930561953085 -0.08664129143932821
Ni 0.22689474566606682 0.18475208113742125 2.6277450092641064 1.1305212591062594 -0.17309129280345673 -1.2713958579678557
Ni 3.9879372069066887 4.054383422620048 11.557219178563388 0.21354194461933548 1.7220115117798795 -0.12705466225936826
Ni 7.2059447130624426 8.92950835800713 2.471773352001306 -0.041657013419154065 -0.5688378053814268 1.5992575337783943
Ni 4.283457005397116 5.508151961682566 0.170041696571204 0.30998171020632426 -0.196335608043378 0.6224347647712763
Ni 8.161648460109733 7.1960392279776535 11.664410017860122 0.6481658509887933 -0.223286425600609 0.15874762248727498
Ni 5.748276813266918 2.408890154057252 4.422900732462936 -1.4288738697140877 -1.3539233843491263 -0.10561526143866971
Ni 2.2953004822780376 1.056874601705276 11.767828087044807 -0.17826743768775752 -1.09920702237401 1.4466340219109861
Ni 5.101130774649084 9.061347407624458 3.356077216773711 -1.13654483959252 0.5662376487544184 -0.36837043455786234
Ni 7.127902057254484 4.187229653090215 7.898245718576126 -1.2218422154094442 -1.0864782619534321 -0.24272113728645292
Ni 8.451624143813898 4.65022791908233 12.047137817919333 -0.19823179662482635 -0.049110898594038 -0.2961260352701545
Ni 9.518136265055961 6.710836782266554 7.358207357533233 -1.1287988770985138 -1.1048125414862457 -2.2284748686891427
Ni 0.4960476582521597 1.9123130328430038 6.4371044308670085 1.1048565073503038 -0.990205875182243 1.2767668924717819
Ni 6.028938384130162 6.386810993583426 7.795572408811063 -1.084658435135874 0.1251024236290039 1.9597300536454183
Ni 5.739378509034967 3.545627729258643 13.261237970848237 1.5568942383208348 1.392024562096222 -1.2313627533053697
P 2.560669536522506 4.370231641993439 13.098030319770231 -1.1547904160662692 -0.17982809730665805 1.0139281584998474
Ni 7.901934402947252 5.872326381609549 9.203618633231272 0.650514553726628 0.25096975044849035 0.7605785949652707
P 7.327785875681878 4.257455107049544 1.0449713872591697 0.9747453176527986 -0.3822811311016836 0.9245368151192078
Ni 6.247182462691397 5.867466040980258 2.3435527613011446 0.43286835713093197 0.8207766046114058 -1.2095839668673813
P 2.596382875937349 1.1007655104298564 6.404768381376131 0.9670353506030508 0.0954555472968485 0.04987091668851411
P 6.388760673949927 4.200821974507869 5.46819460239884 -1.2896854003056628 0.7844636291129845 1.4473004518503914
P 3.9101717568380425 1.9463538976306574 2.710146263313199 0.1477240176832617 -0.6120871029883652 0.179888004010316
Ni 3.3144196622888638 2.996898968288283 4.842955209339792 1.2924277389374903 -0.8493775561775501 -0.14403628441902938
Ni 3.8875610087014008 2.060100652662149 10.616953019138446 0.400637007901052 -0.5763104596093881 -1.4696993883708818
Ni 2.9453941419239023 7.539534099751874 13.392163165544963 -0.16566851797682436 0.6538423325482803 0.12032017174901213
Ni 9.096635698239021 5.887637378610944 4.49602483443635 0.9637062862298178 -1.401328098885335 0.5273348010416338
Ni 6.540983585598083 0.856982467105702 8.91814199867616 -0.16307221800455785 1.3087814977051653 -0.4940469855227814
Ni 2.8806758419855942 8.919676794452823 9.697797924800462 -2.1413196137278736 0.6902663797032693 -0.2170710408185165
Ni 1.0572626897403143 3.2720718655131265 4.661666351905522 0.48354248644703174 0.31116904564620607 -1.6670405548606386
Ni 4.311713510424435 1.2289546844795627 8.404177609473061 -1.1304107016703242 -0.5162507753133302 -0.2419248666374027
Ni 4.5991943424747825 5.317554535522163 6.413356215180052 -0.3675011445790316 -1.1199871923441551 -0.7038477179321297
Ni 8.784880883616154 1.6104452229223052 4.425119302396572 -1.5044756155098025 -0.3661137773132017 -1.2359174625555878
Ni 4.899574481594501 4.889539633831364 3.689239706624601 -1.9653697684296993 -0.33079247630408837 2.6158192732463466
Ni 5.259858780979788 7.085471098756952 4.96270993676133 -1.4261284457584664 1.1213956426559073 -0.670077049239588
Ni 6.122088752730687 8.353715076688497 12.360298989659649 -0.45427459072084986 0.7595522105832855 -0.3381301476160822
Ni 5.368994680547371 3.5380877331493257 1.946218990837525 -0.5625090349499217 -1.1264756282819761 0.6346207653145071
Ni 0.5239595041435997 6.033687842463727 -0.09644726886008961 -0.10739780726038924 -0.22422384981321386 1.2963188464617805
Ni 5.194696951858579 2.7816949126681827 7.106730006904877 0.2640124425650614 1.1596536576958416 -1.0498032751299018
Ni 6.797962546132674 5.99155257008813 13.450194339031906 -0.07830423232854257 0.10394867236952421 -0.823930062638723
Ni 6.351467261821001 8.523697636035314 7.073122507089682 -1.4098867870886236 1.3012075420126494 0.4330267370856671
Ni 3.815330433227707 2.3251463002107524 -0.1387192960670813 0.21007661177855433 -0.12521015285146178 -0.29408200825693226
Ni 2.2062435184280362 5.227046861636422 4.214510393915153 1.324830580748228 1.1301037119528665 -0.3074049506180835
Ni 1.397634376851608 7.497934758472282 3.4738166584704433 0.6282320881793438 -0.3936335800000253 -0.2679223191424289
Ni 5.919192631936091 1.6903266768010416 11.961233607344452 -2.444006590044997 -1.0243835495052165 -0.5680240512308797
Ni 4.650495884630334 0.6027515394668355 5.555315746169304 -1.7363695802737642 0.09751268693619335 1.3538002285077009
Ni 8.48353976460015 3.834873437849283 5.8616059116511785 -1.0277689210376815 0.9710365013426437 0.40455485489821946
Ni 6.3141091683529 7.221606837333635 10.325471184250679 0.26555844689594266 0.8526336012210025 -2.435108773334735
P 0.6360633531600954 8.030068135849096 0.6782198779757067 0.425422442375848 0.7468303921412428 0.6953016281343316
Ni 4.23162877233687 4.907715090138996 8.94915208071399 1.7197119171124255 0.2364260483063606 0.19910751436156032
P 7.831136057126677 7.452177331102994 4.085411061021368 -1.175494224272524 1.9026906442329232 -0.7752207703584778
Ni 0.8120834535091529 2.8600332545980756 -0.08087847052113264 0.07002682281109875 2.26568001698453 -0.3066932692630396
P 0.3031022994797731 4.6700758500171515 10.117121502544661 0.25050900876198795 0.30128598220453917 0.6923127207093368
P 1.3705975770772663 4.932820689929456 6.229552177671081 0.31846840752109673 0.586237488915113 -0.5249025374510573
P 5.558806690446388 3.3830188425775556 9.823746352457386 -1.094301871762909 -0.8277034136382261 -0.9758861161254612
Ni 2.63797297702563 3.386511634892901 7.478070195193103 1.1923676029890948 1.1572681881828004 -2.510866842202656
Ni 1.4962087377513604 8.602645830591696 7.369905439732247 1.2761367150869507 1.071217993360252 1.1918161013609991
Ni 4.003608571369192 8.2234098988287 7.439256771593609 0.9011554600807901 0.061570721623945564 1.8668309542218366
Ni 0.1690419078714146 8.449110811777459 5.196701149353813 -0.19551928278966973 0.16506430873392217 0.2058335202314842
Ni 0.539977375780244 0.1934822138875231 10.355291129647725 0.8175066756108825 0.5132711238597161 -1.0983359326229665
Ni 8.543591767926687 -0.20491602661505906 7.308114432401086 -0.18749975491930287 0.41582142895097424 0.2682154249028155
Ni 2.3522293009416457 3.85125629704269 9.636682375454095 -1.2096575004177939 -0.03062492397470855 1.1921444312346952
Ni 2.624870385747429 6.055734938930432 7.78057373027596 -0.627816340798164 0.34603937516082983 0.013859017370279359
Ni 8.378136902321984 6.7292432433569465 2.158342366674726 1.3874168881208815 0.16512164433441884 -0.725322599976454
Ni 1.7843825841499898 1.553054394693175 8.391599861061293 0.29924555473574266 -0.7322964601911259 2.2111836857088627
Ni 7.677499396208024 0.5818659350478526 11.013339669992746 -0.2995746559403873 -0.31503238525635424 0.8151613153071574
Ni 1.7845304272109568 5.698980392625732 11.509318026810076 0.7677159773410004 -0.9984408614975255 -1.3092674362026484
Ni 6.8393955639686785 0.2928207386086487 5.029518367974059 1.3018050663873324 -1.2108538347187403 -0.9997104722385686
Ni 8.743826713623879 1.980819811218591 8.750052754528852 0.05795729324107438 -0.3449834230924897 -0.18642477668756927
Ni 4.435781559149686 6.84829386820063 11.64758640154121 -1.0666002920825823 -0.6566939430644626 -0.2008268110455122
Ni 7.664359844164581 2.026447875909534 2.003370498111715 2.125967042531203 1.120616855508354 -0.3459894957595009
Ni 0.6625318811688451 7.1783442616181645 9.495316688595702 0.6660008222876852 0.21468968507053346 1.1962111451049011
Ni 5.146629476661681 7.808127980763686 0.9478967094091013 -0.20227845589037421 -0.039742827115576716 0.9028251344737291
Ni 7.556471370423908 8.201787851162276 0.3929326673424581 2.1429273245346256 0.22237085576487509 0.27558754899717053
Ni 2.1075028340846957 1.3980871462258193 0.9982317275535812 -0.7543796652434105 -0.8122605967205947 1.5293829202744433
Ni 2.4515059163809916 3.7416029467617222 1.7896116084125668 1.6644686803684043 -0.7495912427158317 -0.08123554704272462
Ni 0.7155502508698762 2.612118921739025 10.929762139589835 -0.7744185861721565 -0.15109653369992043 0.2716362776589064
Ni 2.369148091231058 6.133010658859625 1.7548010356887538 0.4876130569719796 0.4660592420606038 0.36061650164405634
Ni 4.976720838845347 9.108786549812248 10.47777818163976 -0.013253779686112657 0.6177751545120781 0.16996868801407503
Ni 0.4472603721521781 4.640701281841269 2.3663132005370158 -1.6782834747643096 0.3549099381775823 -0.01904467533627688
P 7.970311818644493 8.57615420210467 9.294405360894586 0.32973652423574823 -1.9276627407972287 0.5280146007174776
Ni 6.146880186016593 5.087566173805362 10.977947889235505 0.27661470471010424 -0.3571105453733269 0.8380240788379437
P 0.6419244065083063 2.499517950430027 2.5290200332459936 -0.10430425593673004 -1.1842930535110765 -0.04614204577370117
Ni 1.2234660108411624 7.8883605619122195 11.894371583022123 -0.1797062270168131 0.8110161827905322 0.333942849007612
P 4.2601532429121916 0.16853462136847155 12.86309291158756 -0.29344411756261723 -0.06040241234745727 -0.03330966989572328
P 4.120219785706919 7.0499610435509386 3.077849512301637 -0.5209710636071351 -0.4772633383065394 -0.4806921614824302
P 3.8440766683944796 7.11539083822015 9.531236084276768 1.0420272307289087 -1.4168573048691857 -0.516278286117156
Ni 2.988850761656892 8.795266858649086 2.0206006828482885 -0.03883394214806215 -0.6350426833432741 0.8623248603668375
