# total energy = -340858.16594897746 ev
CRYSTAL
PRIMVEC
9.27573775398374 0.00000000000000 0.00000000000000
0.00000000000000 9.27573775398374 0.00000000000000
0.00000000000000 0.00000000000000 13.57597980889506
PRIMCOORD
 96 1
Ni 2.859941835927446 0.4110830723386561 9.279467505196376 -0.2508273113333551 -0.30966700717938284 -0.15243993510169232
Ni 4.537375522949112 5.660741568081687 9.683786709581545 1.902796573683168 0.6837242077093774 0.25410032565767204
Ni 8.631593400059355 6.472609788729982 4.922813035608948 0.10960844175846284 0.056626747355108926 0.4903749359878329
Ni 8.881296259779347 7.280767714285856 12.12336324242287 1.0580626869252165 0.5590691560304372 -0.32552377170598135
Ni 8.75282729220424 3.4568077317076242 10.364364283236947 -0.06070323141732771 2.1356994393276185 0.12192916810734483
Ni 2.136304432576943 1.2133778040747298 1.7841686735191398 -1.9939030999827017 -0.29507034031213053 0.3962861871315239
Ni 0.5971924017483111 8.290635832541245 5.867389235975443 0.041245894023664444 0.3790477117660504 -1.185923647135964
Ni 3.3457771510668994 3.7313324655959197 5.7701850699966295 -1.6287496297002404 1.2059407136878393 -1.0978641351928706
Ni 2.4213385773145237 5.944514212487844 11.194195897575204 -0.17812474146230614 0.3021537295214732 0.9322619516776074
Ni 4.548460029537723 2.335797723958737 9.808971138426088 -0.38942288435278744 0.9732589629152593 -0.8543487841398963
Ni 6.862413391139826 5.693605506862814 11.448229599241825 0.8750320235208607 -2.5154261794385646 -2.2163973686993184
Ni 5.676649458290446 8.44555920412532 1.6748142186864166 -0.17967023157255507 -0.26936187980243287 -0.2733586596666518
Ni 6.872570323955331 1.9291957605179535 4.333154388045799 -0.7313076139152954 -0.23066163501875758 -0.45052206565695313
Ni 5.300165815262398 7.287817274961458 7.720319880868665 0.6874121980839257 1.8847628561099088 2.0240821946692433
Ni 8.236075943207181 2.8454345821160767 6.112421761747851 -0.8675735103602865 -1.8506587153373482 2.0230491254190386
Ni 7.070143537626796 9.058713295361231 10.957526376941114 -0.048325683688581283 -1.73335341915526 0.00950562549759008
Ni 0.976419807997206 8.763308875840332 0.5296399865743588 4.005124636639192 -1.502927297186076 -4.438072183747493
Ni 2.6328253975825713 4.484012203782354 9.404583293581707 -0.6347153819108424 -1.277901006076225 -0.23882771576931772
Ni 3.106351808752915 8.896230197526346 6.624670667650255 -0.3802481598320548 -1.3028083108408661 0.49899635910825674
Ni 0.7398467550355209 5.643321732622767 3.0213610066445797 0.7196363482249541 -0.6053904076944799 0.31007221303760146
Ni 4.834783501819921 2.1445598391575817 5.293301769341417 -0.8001890102680413 -1.875015546915158 -0.3402543930479366
Ni 1.1544304907938772 2.229664732840009 5.658712964239905 -1.2731768611276784 1.8730525096515163 1.4441788755022742
Ni 8.28486632367253 7.154942331964098 9.828385257497185 2.6802991980972872 -0.6175419554553494 -0.07171089538174101
Ni 5.88511238805817 2.6497907218926704 7.326942336711046 -0.21418960550566338 -1.2576373707311825 1.6753279916804114
P 8.52997769321565 0.5525965098849462 12.201561421790753 2.734554874117058 -0.7399079539897966 0.5261178979153971
P 6.516919987871231 6.363221013667655 6.182351548502272 1.2520344227221083 0.7241362929778368 -2.681438711018369
P 0.2868317827098589 5.382256094182231 9.161125788076033 -0.9211501580351619 -0.09122016905926225 0.9756272060371197
P 3.228123693686201 7.298280307122087 8.910445265599188 -0.9323794510920781 0.6551664506763427 -0.2446515215399464
P 2.3971660047873953 2.3698025784807837 10.215218768685546 -0.36068463587783045 -0.037436290469587144 -0.9284194380030656
P 5.809626434402847 0.26768387731164256 7.332563433776066 -0.4031713442871315 2.0865489457448967 1.468242344209381
P 8.235918255665753 0.4832483118862618 5.058111728875431 1.2650002388541568 -1.0287757650356413 -0.02456509093387382
P 6.037160280945619 9.092783080047395 13.0449959055116 -0.8225313825189834 -0.006123853509550744 0.3196624278291979
Ni 5.1874934290432755 5.744918887991009 1.7208098193733974 0.5197631593419629 0.05550806036963343 -0.9891314111711418
Ni 4.982184250104111 3.48623037179053 11.873755922801507 -1.501551242774156 0.7153472339312971 -2.1210168976147794
Ni 7.897159037989904 2.866156580207253 2.0393293773200853 -2.3578525226547327 2.0342547643268705 -0.6781927363681869
Ni 0.459900352443424 2.349609297440278 12.109230728415834 1.6046352531505397 -1.2738330066544385 -1.0216990606945178
Ni 7.937675460399151 0.4165687436328019 2.6995838096067453 1.81256036580373 0.5627126663202954 -0.6921697673735693
Ni 6.5728805136026835 5.874528771307037 3.9713811374854306 -0.7301459895070264 0.03508733062143635 -0.2747105457088559
Ni 8.472050711085213 3.722251518357217 12.961707201276914 -3.5639878688518816 2.279469357459139 1.744332286764267
Ni 1.9369502772611153 0.6584428807077848 11.719940074302519 1.3652115556684359 -0.9376075322602369 1.320641996588177
Ni 0.9125990221124571 0.8072127278810789 3.8760376844954654 -3.86032679146379 3.8772927298941675 -0.12356953192424523
Ni 5.237916339349289 9.386675554318133 9.565920837806807 0.36299220096508455 -0.69714202377718 -1.9045747486295133
Ni 3.640708507963515 6.241374922832519 6.622824795841775 0.45755043325864425 0.05122485961324727 0.9387971816929639
Ni 8.08119895031176 3.7352653783938865 8.063086217244331 -1.7108704075613954 0.7344610719426126 1.8493525949314151
Ni 7.087387134068828 1.9944412997181926 9.662418192570515 -0.1846049498700111 -0.6837766582138675 -1.62286283190216
Ni 8.553955475250426 3.5236672492730663 4.170812281424427 1.6928423464150912 2.264634092218519 -2.501786220057627
Ni 3.089618377886092 7.229315197091696 1.589571116511797 -0.5506678193406194 -0.7726216421727339 1.251108054253097
Ni 3.6408569197672116 3.9463069632508434 0.5699885181306739 0.06981162147649912 2.6417251944788314 -1.097800886055103
Ni 2.494060361125993 2.8137486620267933 3.576999030931539 0.48060962907095295 0.5967239902687336 0.013610391694583012
Ni 1.311236837137357 7.980464438552507 10.52688262887521 -0.29412288879719667 -0.20423377984453214 -1.0256775857262916
Ni 4.0728465773778915 2.1581673464090394 1.6049391587846082 3.605006734466404 -0.3268229501333791 1.4164976075369218
Ni 0.5439839874016619 1.198666484033277 9.99130988044807 -1.3048207132852045 -0.059276012052497905 -1.1766648475418573
Ni 2.249876565355977 8.60077939931679 4.005796907188963 4.0136378163165265 -4.324384943933965 0.5037030205553067
Ni 6.7180550848314216 1.33377687982382 0.8334528623484596 -0.8537728570317683 -1.7335249117361178 0.19770394914581435
Ni 2.9439058138689536 1.831114109749781 7.344646009744537 0.2691991289723235 1.15852674318025 0.6047139504527457
Ni 5.8544096961683785 4.178172579314018 5.697581088054344 0.509060171102162 1.512656351548382 -1.295146423420234
P 2.7612201592558305 5.265187008278589 2.1634814165551606 -0.39950186585534425 -1.6142612062760782 0.4880714846656369
P 2.420420279279149 7.435218023245648 12.871141680792215 0.03945897732657075 0.5186293028478358 -0.2563857792577391
P 6.300136721358751 7.307370530098521 9.838377082181077 -2.5928832332754634 -0.47611714051723814 -0.26470946863208605
P 6.194801443684894 3.928757267463688 10.122400171505975 0.6769660630499373 0.03507807465005572 -0.8170315357466769
P 0.40622165819381034 4.701352014558697 5.694621200144365 0.26004343061498436 -0.5682302537044149 -0.8564717440201701
P 5.113185494079796 5.388498665675232 12.977985193421143 -0.08529274783123375 -2.6514033409985434 1.925172113164891
P 0.6864222159997381 8.524987346316342 2.4168092345804495 -1.16549674674018 -1.7923931468272356 2.9954133444341706
P 7.626539389686383 5.110430599973673 1.4541907967532801 0.3103239240370913 -1.3421585305037143 1.4765968868216635
Ni 7.348693941690369 6.419626774810198 13.496872744817663 -1.4457842723161811 0.5525472957515194 1.5331722121135467
Ni 6.03742927733982 3.2575741609822995 0.046791458984305534 1.0633126224702463 2.238064569260107 3.169068223050581
Ni 8.1781953397654 8.587839745181968 0.5850838537141922 -3.3700415869762863 -0.3777994411812461 -0.6480545222219097
Ni 4.291188167829189 0.6408393856417891 3.359661075302742 -0.03541540338481642 1.2884497281263487 0.2874794153387501
Ni 2.4865748407770316 6.29115780723509 4.838954801077576 -1.4447411757636472 -0.36537947025033846 -1.6314390036069453
Ni 7.639859349068177 -0.1442553456195899 8.39396013027501 -0.40233059355339096 0.39431697922029507 0.46273223456989987
Ni 5.37345341907546 7.158671178531982 12.170201080095831 -0.13785175287487228 3.601490750893346 -0.4565536165630137
Ni 6.460727568696502 5.213094465180987 7.827923076417766 -1.27352807381951 -0.5517949909665271 2.2035045718970503
Ni 3.703319737648134 8.145414882623852 10.965549890078478 -1.0122564272243793 -1.2680457105487002 -0.06171984560730016
Ni 1.2867025108387173 5.682817823881598 7.351162215500604 1.1349741526712904 1.4450067707202081 -1.068496737774347
Ni 4.441612806613703 0.8566032485776259 11.746562369164419 1.0869222914693863 0.508882250763401 0.7730294191341138
Ni 0.4639519946843487 5.932270238682852 0.5846274874178244 -0.18129465454985552 1.3937772831212705 0.16633674768844256
Ni 4.289759704218607 4.76415803473567 3.6995222506210403 -0.4444300938266023 -0.47208050855401923 0.5171871710846705
Ni 8.493412735079833 7.138978787328954 7.504122840980789 -0.48984580295724034 -1.2037437060365204 -1.010228598161073
Ni 5.337361523563927 8.476994679295865 5.651313708251843 -1.8643554960981503 -0.9710694114631083 1.2605992815729836
Ni 8.167927098097122 7.007448826302598 2.3777917713885413 -0.35943559396207775 0.5886584396517798 0.5931714970307849
Ni 0.9704276814229447 3.4730402727369696 8.084306322451665 1.6921581758638728 -2.000572027362445 -0.3257047773685358
Ni 2.5762526731608686 3.559573630029979 12.016846235762076 -0.488383616589417 -0.06303625042587854 -0.29806387572281573
Ni 6.845707787486196 1.8346203386121196 11.91246079363188 -0.4494895106273807 1.2658610441925553 1.0728742980167523
Ni 6.580273276574335 8.599415865870325 3.967566954130421 1.6298657455825543 -0.8321521934381992 -0.992081494938401
Ni 1.190188459747093 3.7304605462492 0.5801046377001621 1.0822225720008716 -0.7009770812525541 0.5403607809876565
Ni 0.7921628434124426 9.031813655941173 7.988785702871035 0.44677982500570146 0.2952297487081303 0.6169068929745117
Ni -0.11864317859660159 1.4662807933119366 0.5899322818262146 -0.44207110667612254 1.0189418096643548 0.37833680174195483
Ni 3.3802272410000365 9.061876321927521 0.5686491016023095 2.1972691325102995 0.3479373635144911 -2.2622450231610522
P 4.554081126602742 7.907659173101458 3.6976355655665443 -1.0843910404071002 -2.4810230193683465 -1.569264844071046
P 2.8442751148996948 1.2189432467133627 5.196043804083762 1.578564524205417 -0.7715106684967422 -0.6933403906429028
P 0.5199811608750117 5.162226319463882 12.14276344788737 0.6823332408991216 0.022140283542465097 -0.8012249077317233
P 3.9306124150098993 4.376283785773885 7.590914063782721 1.0441928709216597 -0.7537286619229728 2.0927525034524472
P 0.602722596583566 2.6554489219086137 2.4003012041404914 1.2963494425893998 0.31718028483729244 1.1527813560560405
P 3.1917813532559287 1.687599895574902 13.306347236674252 -0.7271704518184702 2.0844270143058874 -0.731208883553902
P 5.846738661064797 3.3660539137469847 3.046992652716803 -0.43057441889043263 0.19299805902971276 -0.1934040362188798
P 8.872150382376526 1.653159081379496 8.007656263711093 -0.005090784259346071 -0.3308446696982625 -0.028871431618711568
