# total energy = -381161.0395508425 ev
CRYSTAL
PRIMVEC
9.33740671605687 0.00000000000000 0.00000000000000

0.00000000000000 9.33740671605687 0.00000000000000

0.00000000000000 0.00000000000000 13.66623856848195

PRIMCOORD
 96 1
Ni 2.9951318564743565 5.966864172371519 8.91437805714535 -0.4600426035528786 1.7551242351734484 -0.6580296311567506
Ni 8.453452861066262 4.715044775930381 6.942530706635302 -0.7116595006670646 1.4079720865644139 0.5482813213863138
Ni 1.184450008865538 4.826552083820583 13.089522786937646 -0.6565160227257016 0.06777505066244456 -0.24142452996221647
Ni 1.8065173643297165 2.2724912960792305 6.726071883927221 -0.45953301090631177 0.6211479276390528 -0.365936371195073
Ni 2.804377979997304 4.915024009985352 6.863020823186411 -1.2863720196617134 0.6176563695460267 1.624510394807912
Ni 4.603163971781962 7.2337914924574696 10.793814029707102 -1.0042037321232318 -0.15025604007649607 -1.9677773494299269
Ni 7.358464543449764 3.6636341342411622 3.0168628025179727 0.5069904330573268 -0.001370912205597639 -1.167899956865034
Ni 2.4858977206170456 3.430068249166171 0.9787777580947179 -1.5843078544470972 0.5138457654162634 -1.5382509121880346
Ni 3.1447171078896177 1.512846593901415 10.600203840595347 -0.6426474922737255 0.5223075230303714 -0.14948239513526515
Ni 5.298016410565864 5.272366555032922 12.593533762137298 -1.3475102817339308 -1.4429995104821922 -1.424068477905644
Ni 4.689497631868448 3.0669458495227198 8.971734943778841 -0.4803486621000824 1.604727812864346 -0.2627127499170314
Ni 5.8779440506968905 2.286301320226744 4.541099164813666 0.007446428975716208 -0.06936167842327409 -0.29093394954625384
Ni 3.82757097937835 0.6033635965933974 3.7073630761530194 0.5782020202051462 -0.19479526013945161 0.7171135818031005
Ni 8.425487328732386 6.111127102107211 2.073673635387308 -0.6033116707885804 0.4083225494707678 -2.001287565372231
Ni 0.41715236835688974 7.900529000404207 8.484916185858326 0.2182807448559015 -1.543605748742045 0.7242180540583657
Ni 3.1799471424457835 2.8359570886294145 2.9503627274833693 0.7026115315321835 0.08495387643457626 1.7855444993365184
Ni 1.6298816464132058 5.1379079020753835 10.719715173299106 -0.6003829271775595 0.07185667693098594 -0.3476208607153368
Ni 2.665269298624984 7.003194902635291 11.976995085035352 -1.4129404863132828 0.2806415664813102 0.37701371205515716
Ni 6.370865737476644 4.689787091468565 0.9494442957151272 0.8319832719605026 0.2891580885927536 0.7686552013258181
Ni 1.8207662465806334 7.6694842150721705 3.840690969188811 1.3355232845753837 0.07490446261837423 -0.3926871569263559
Ni 6.032263367185033 4.288325300919303 6.982135316115816 0.44590153616580624 0.21741479731118038 0.13127229988514166
Ni 6.246808955310405 5.9126698653044665 10.483713158879905 1.831027571369982 -1.7387095412608506 0.3640833771467343
Ni 7.505117849238035 4.784384356268067 4.887060345132767 -0.1287392490506428 0.6881688737442921 0.5528681694260478
Ni 7.193827392828423 7.994267223809813 1.1308430246645296 -0.7168477297362235 0.2582007209792908 -0.1517169408927387
P 0.4618841477220553 2.5516143872500425 9.049741504788415 0.023272083154063147 0.028431001647183294 -0.11620357847747731
Ni 6.381118209764657 6.172063016635051 3.0318689484324213 0.8024374399825859 -0.9346962721507129 0.05927138406680761
P 6.5329164265098445 0.987748204476406 11.079629240084488 -2.5477665434424828 1.072787908950533 2.2091849101112793
Ni 4.9760252863583805 4.287158125112381 3.3147596831079813 0.5978761015953058 -0.5688308634028914 -0.5298087165034231
P 6.030881431029636 2.1554002191287074 2.1871716783337987 -2.1741186625357654 0.8176514287188629 -0.04993750826039141
P 7.955507649613512 8.686729286541137 6.57317372070159 0.012933420232216436 0.6737146459921752 -0.4237535393138573
P 3.367974496237864 8.40820378938347 8.236545842848324 0.7178507170794411 -1.3976578491225993 -1.536091956863503
Ni 8.370564703961813 5.166499040641772 12.431958347092676 -1.7923304119101005 1.6069487317750648 -0.4831295672793292
Ni 3.2544503085532974 5.549286018280264 13.645601757240977 0.45497547344261646 -0.1464970872546961 0.4766850972055662
Ni 1.391647058110523 0.5416629484768614 8.307911640386827 -0.3822698182477739 0.7291787404977507 1.782512140268098
Ni 0.4162186277113513 1.9450284516888918 12.512575646947177 0.3149004876641803 0.42283359860274916 1.6772146671801629
Ni 0.6779638717280472 9.437690200715444 11.132681582342046 0.9343270617367521 -1.3086897093223075 0.21331183088640038
Ni 0.5068325549169858 3.1017463633819378 2.9229350297613226 0.2838734431550466 -0.9221480031720569 -0.7123362150191151
Ni 4.905948050910719 6.716536524454983 1.2370224084312902 1.0485688885021685 -0.06627404063688586 0.1810599128312301
Ni 9.492127280350337 8.270869215237672 1.9056890245517109 0.1260357340765507 0.5067284376451918 0.5246073748081417
Ni 4.856674557045654 2.7550764739128732 11.543666593735155 -0.366230248286408 0.23685953629935333 -0.9028480172918645
Ni 7.7401123575007 6.881481809489352 7.6993125599938965 -0.37480796265308997 -1.3574349970468107 -1.985848347999025
Ni 4.168264928715968 3.4801821096122207 5.938103093007642 0.44388707683893874 -2.1724713567403295 -0.4824024593053176
Ni 4.484569572392122 7.098212350725284 6.498351215293302 -2.2334692365799405 -2.3416681995853863 -2.5916694154730204
Ni 9.077966617021753 3.514571777587402 10.934343864341932 0.2820754707143594 0.9614725118032925 -0.548259467009443
Ni 0.3570792301855273 5.336467850349138 3.6135174725731765 0.5519014346374043 0.6032607629459869 1.5595023653676432
Ni 8.385103045812848 1.4345617781794704 10.4614779928877 0.9520255074577798 -0.4450163053473755 -0.7829302231875936
Ni 4.705698032068541 3.287570089250547 0.11367265244720674 -0.525007695570354 -0.5589624552492438 1.3390150997787262
Ni 4.839250956599907 7.913946853480595 12.773080883386598 -0.7404250028355313 0.899006532058587 2.8268675049095506
Ni 5.328512380049149 6.293103816516202 8.475213686810537 0.2378188148888291 -0.7199515654725278 0.17753184507331363
Ni 1.3860166020179259 3.85160546359451 5.037498101757405 -0.4585711612136748 -0.08496750328133108 0.6896796539618639
Ni 8.015117652424689 1.5712240590604796 2.2108560098078818 0.446456894448644 -1.5186285099714167 -0.36757056436438634
Ni 8.610629423929751 1.3679860701525781 7.690730549720753 -1.2834106230405444 -1.7306478472986389 1.7121667577753157
Ni 5.798183924754996 1.7303334650602336 6.974879217559336 -0.45121317818670675 0.0244758736541772 -0.9250613201641101
Ni 8.50555558908731 3.6691432040498393 0.5589819699703088 1.100480232659479 -0.7242422224280817 0.9932968554027409
Ni 8.582691903815242 2.7552258724161596 6.133038260095416 0.0013125481638364492 0.10572427621270825 -2.589768856016198
Ni 9.099246566333573 7.6676260711875495 4.726974246417781 -1.4443812213210674 0.16710910707809284 -0.07253930482030733
P 1.0334734838884243 5.251264016443752 1.5702781797865493 0.6410706347049088 -0.714139329666125 -0.6246217451202662
Ni 0.8517479457130835 5.06753186962115 8.157049965509117 1.0160853140521662 0.16296088923767418 1.2423333933842604
P 0.4615984230845205 1.3964184728092242 1.0800083164401246 0.04430473545464628 -0.17927016792065903 -1.411331232844634
Ni 3.186847485816313 1.2260948416565536 0.45185390570768114 0.5828752573110995 -0.2212891926649221 -0.3081060904501662
P 6.905385570015136 4.035085500442817 8.996416510262359 -0.2838515887781757 1.2674163044948172 0.032269658666983135
P 6.611163892605968 6.550741535433175 13.309413106518079 2.492697884603113 1.6718927407466175 0.7262865065516202
P 0.2251650204870812 7.289582496028392 10.901721767408754 0.19063675788638784 -0.41780940591528043 -0.3631528949126649
Ni 6.8385577520139496 3.052099373258658 12.644468380610775 1.2193559586524805 -0.16688182155863515 -0.282738558219655
Ni 8.396214559494755 5.734717573077746 9.730990276107466 1.2939593450906683 -0.7278525654871594 0.1591687691850936
Ni 3.0579632645126393 0.32305745602468794 5.807099280438597 0.5251794452615278 0.012496846915430092 0.16119531269681917
Ni 1.9546086307121164 0.8377903905435746 2.482759418307391 -1.4809261103246367 -1.042433979249024 -0.1782656379155446
Ni 5.654639975316368 -0.009124513588201844 5.334752568783283 -0.0449372268323226 0.41441015042574436 -0.5484443293267394
Ni 1.673123175708092 8.659660145226976 0.08302261575740676 -1.1091551347256576 0.7133235186330489 -0.3507568352411572
Ni 7.786967463093819 0.6178916672973304 13.453236244409725 0.54149952257779 1.1264085224894667 0.010053527581260106
Ni 4.039651492199501 4.950188682696331 10.573268224193498 -0.03577638626866097 -1.5337831062246683 0.6596897924679929
Ni 0.6732783611687353 0.14470458906103198 6.095866978737176 -0.728091678081159 0.3111024540743287 -0.9718453703971844
Ni 3.4659892518000364 1.1550838655633535 7.943651010896464 2.939089987252093 1.0180534935221308 0.5158288572845632
Ni 3.2242718108894945 5.170887621675802 4.731237706205308 0.24039043227074733 2.179808770942007 -1.8356221327192
Ni 2.43162871429835 3.2524334287589345 8.865179262531928 -0.2755260996316158 1.0477931866784083 0.20261244219102525
Ni 5.672614482742984 8.409632412571142 7.52326416494343 2.4048713146064324 2.927772248246429 1.5414714760078614
Ni 6.434136003618331 1.8623737297458272 9.116515165832162 2.062299329168913 -0.6322700056941434 0.37126883915157993
Ni 3.1213735917511563 5.442951633566343 2.3415320794103445 -0.6763392280992159 -0.4377881630300525 0.4825906640567238
Ni 5.282572340288657 -0.2201685742928049 9.74983596355637 -0.9849816506688263 0.7693272876921782 -0.3376745481359023
Ni 5.172502992992583 9.534799227851444 2.0127769379665805 0.746006867798683 -0.8240583606864711 -1.0655358553738101
Ni 2.178388913821864 7.579751739035924 6.297443843036665 -0.8510539154387086 -1.2752463420621973 0.8912145468179943
Ni 2.638368230627021 8.552858890190286 10.17750692028525 -0.42079342824426885 -0.6097445708981176 -0.6692422120431184
Ni 4.598065747857322 7.316082055548773 3.731101564584544 -1.4912987118082122 1.0044004215150704 0.4046427866263354
Ni 2.859421991051796 7.596736481378269 1.6391284800259731 -0.2954616622132782 1.210966963257837 0.736601515324383
Ni 7.0075461340434995 8.374710512428004 3.5237849965369303 0.34957541333854636 1.5719259358429767 -1.5689118316070012
Ni 6.703576204294909 7.202753953399771 5.375669083870778 0.34167672731675997 -0.6038420893707537 1.0648712252066177
Ni 7.503614526798718 7.994603370442208 9.49882780322272 0.181571562360326 1.2443722781911601 0.66996134959733
Ni 6.809023535395568 8.323102666949094 11.554804252155137 0.29393956914179703 -0.6800454733062095 1.8292527388577462
P 5.416881594742909 5.518332515880663 5.06571947902816 -0.8022150395591345 -0.7161051951432441 0.4605583668470326
Ni 5.465772254943303 1.0488988793527199 13.28726010970268 -0.007479339096180668 -0.3037539841290576 -0.42708363212835476
P 2.955765350858455 9.356361390489043 12.227374837914555 0.8895232751585003 -0.14422680316328063 0.09263041914322756
Ni 8.83843412922177 8.019814367871746 12.907024111507798 0.2648485653131116 -1.5997789534995028 -0.3505627169524801
P 0.6633592342911802 5.983466081049192 5.713361990773636 0.6499419690526098 -0.9576729355515442 0.9019563587155305
P 2.1810687494745595 3.2154106121633346 11.97785599391054 0.5657020879659226 0.17102284031020223 -0.47569393693689044
P 1.9186596158588858 1.8400946779432794 4.508656346084432 0.09747823415383212 -0.774915323302917 -0.03793251337971531
Ni 8.046304589985672 1.0759680206668798 4.497313264722431 -0.008303891880005054 -0.4630258545509187 0.6955834210408085
