# total energy = -340890.64659378707 ev
CRYSTAL
PRIMVEC
9.10869229607590 0.00000000000000 0.00000000000000
0.00000000000000 9.10869229607590 0.00000000000000
0.00000000000000 0.00000000000000 13.33149189603450
PRIMCOORD
 96 1
Ni 6.438725130556996 2.1095367161988268 11.301838675949806 0.7000070040298009 0.18906324275168082 0.4208147684005076
Ni 4.618535135919734 0.08277706357536435 5.604585697104057 0.5573974247549691 1.140496110930784 0.8390651185079485
Ni 2.8526147303734417 1.7658657533921216 4.565222870395976 0.7725933600379596 -0.7071127618366466 0.7441150500926088
Ni 3.737260041233501 4.309458986702741 4.625401268221979 0.11394486435028764 0.41067150931891855 0.26283076355213447
Ni 3.538581243440237 2.8293602387740378 2.5058941773640417 0.37214378555736555 -0.6999938914036783 -0.3426087522127261
Ni 4.984221808164652 4.655926318064487 2.322466063191961 1.0868531287943477 0.7966506580974797 0.039854927213408775
Ni 5.1991322957464545 4.889746450989166 11.282694937213233 0.33504790914633265 -0.9642891553164811 1.2290814134703607
Ni 5.793428928885164 7.955905365090156 12.302634388329238 -0.34115170805122536 1.166418744333817 1.6582967472297374
Ni 1.9118234397959022 6.542436701787242 0.3778194504706953 0.054013220991661816 -0.1671996099093701 0.05455392398648024
Ni 2.9126410130370037 1.6569713362080727 0.24030278927849616 -0.026385174861748108 -0.5148595513927584 -0.3614731932173968
Ni 8.504330623495374 0.07234396734428031 6.529791104181502 -0.5256517569122561 -1.0995325240342289 1.3444318999189233
Ni 8.704439485989425 2.5695621152338086 1.311517802306184 0.48979180979085324 -0.3284108634457893 -0.4005580750340005
Ni 7.079211942661855 0.7021025615855355 4.75482303451234 -0.6060594087370466 0.48947042189569256 -0.8838956445590777
Ni 0.8979977429930661 7.460565565768888 2.521478239125663 0.7609629748878831 1.1933587632577707 -0.5778603205950112
Ni 7.878900479864396 4.140410765162067 3.515261169255828 -0.19882366457255438 -0.03760058396159331 -0.2926943838807863
Ni 7.748691722553985 4.135646919056901 12.31036675727508 0.582802495091635 -0.6998627651424528 0.7507603233232684
Ni 8.396984684012814 7.223775999134296 9.102876461620815 0.06841191291549507 0.7730983246988363 1.359675199231239
Ni 7.050565105184328 0.7207061548650588 0.21332010989545072 -0.34087248624790967 0.8812623207012886 -0.09678943561692363
Ni 1.8828577980857162 6.69241132152253 9.109355474497688 1.823373140148518 0.4561095870470596 1.0293565772397757
Ni 0.11202507474876298 4.995143130306324 1.134416585848536 0.21880987788649411 -0.6476696280786652 -0.26452897719016377
Ni 6.606643874244821 1.602446703730974 6.996167083531057 1.2377624861841263 -0.7353753562267658 1.2830095309473841
Ni 3.5689405150817626 4.433127702897457 0.23296118323497098 -0.65600077365218 -0.13418124600182052 -0.10810871728448478
Ni 6.509026018204549 5.944432830857324 4.538146371481605 -0.8343373740149761 -0.17750587693138462 0.8882788612284378
Ni 5.414771478717194 2.831172868554015 9.133845104781336 -0.07703899246287377 1.5244440882119294 1.3299823001524966
P 0.27569188084214874 5.725933518485014 12.337602658305782 -0.35650710746137315 0.5228271429792674 -0.0498878859693786
P 4.164111582687194 6.265086128066029 12.662917784265202 0.7404738537955956 0.7557197242110727 0.17838905086728635
P 2.44620309457939 8.519970248280403 1.2839822252967839 0.2275662839228855 0.8190562794861893 0.715127147500691
P 6.59431981347945 7.987840440510254 6.130419576713804 0.6994966400522856 0.5963213555136763 -4.124615113398058
P 4.922902091185731 1.0601151605157277 12.683181892162262 -0.19824465214063278 -0.566089038991696 -1.8529269425462345
P 3.947607073942095 6.344349968997488 8.15564714728203 0.5731541733685935 -0.23441210320012534 -0.30551750378738346
P 5.024263619786659 1.168727208236564 3.489731326304473 -1.1153278391952728 0.8524302269609448 2.2577044549782217
P 0.5102452635019438 5.610189364644971 3.391731816054246 -0.700189295243936 -1.0668437755519562 0.41341821882612023
Ni 0.7397323914701648 9.042444842147157 4.517722861468216 0.8470476224927929 0.9578143462254151 0.2446402086860367
Ni 2.0825385520387667 6.569006757406303 4.541772541910795 0.4814277540968741 0.03723394465079394 0.7660473313893259
Ni 5.998911919872613 5.991597639906173 9.098330313263093 0.2094289508922264 -1.4529332246561364 0.16616422666632027
Ni 8.781690305908949 2.6594831262284493 10.280513792725587 -0.4202051598409666 -0.6396375018028081 -0.39242027641821453
Ni 2.390722049404313 5.433344102442686 6.799180680778595 -0.0922396114627121 -0.582030907032933 0.06502911248619123
Ni 0.8277597053228094 0.14390549801469113 8.93708550846868 -1.6195687345319205 -1.3456817131656245 0.5957541701562966
Ni 1.6235515439330184 1.1486061068095825 11.428927706126338 -0.808694219525575 0.7424286635291213 -0.01805711461202697
Ni 4.448949501529719 7.186730947299288 1.308055588339504 -1.1599516485522345 -0.7321439937736616 0.5620390372920384
Ni 5.765838699721594 7.976463683750498 7.947635583294973 -1.656357878335812 1.09339658633982 1.1814357865679395
Ni 5.234055022261189 2.4896424484523076 5.604492788441968 -1.1837186690648454 1.3164932645271263 -1.8930112121616303
Ni 1.0402491024748737 7.503558593716082 7.062838157272473 -0.5085428651461112 0.8174033172637988 -1.132785629660404
Ni 5.340399005583963 4.822633605668205 7.016724491322163 -0.3912727930773326 -0.03093165658184996 -0.6852025920271168
Ni 0.8065063934352693 7.509014700440736 11.298346403298332 0.48246673688434966 0.12639157475407264 -0.1564346580833822
Ni 4.653284797279595 0.5245449996405668 10.449570212089386 -0.29075911453128633 0.09310170235269127 -0.25477652578909027
Ni 8.686531796806335 7.107640171522701 4.870474279690294 -1.041478300203974 0.7798778095145149 -0.4476367736893581
Ni 7.617927335009508 6.425991178635349 7.107897947516538 -0.3465422829391773 -1.4968630932698672 -1.2071807567425274
Ni 2.479422495622487 5.104511199493181 2.5202121308873875 -0.1122628486621744 0.3069555217854907 -0.7100618171626416
Ni 2.54929527472904 5.7011396578764835 11.437887015933299 -0.6405384163505227 0.017234618710731606 -0.38127557265530465
Ni 1.0626291596075552 3.351725528332451 3.704368553115425 0.6218215566673096 0.09884426126342331 -0.46386300574023337
Ni 1.5624868703402235 1.1807324647692763 2.5962678903690586 -0.42471538900649436 0.2860761072333202 -1.347496654887176
Ni 1.0656896802410842 3.5217574886481886 7.933384123225868 -0.8843548435836834 -0.4407595869535506 -0.09164980039751312
Ni 3.497346193118849 3.2189936632378497 7.384646436672642 0.33764292356701847 -0.3002925079430183 -0.37309252262388004
Ni 4.246654552868863 6.842267528257115 5.782201554680141 0.6333560396694705 -0.4414730680808074 0.5056637438261034
Ni 0.5882502831490168 0.1422559138279884 0.44993752224440564 0.8997544659682053 1.3853764606520849 -0.527533290205685
P 0.35574271279365816 5.627760032210678 7.939077055951927 -0.03885296831145567 -0.2643001490088093 -0.700339447668555
P 8.614618670610763 1.757285365187406 8.0519410412672 0.47008044740485494 -0.1717448060778913 -0.37455496610201944
P 1.8861187099512025 3.18151139416948 10.03458729678298 0.9623217471774653 0.8336380339551062 0.5654274941482972
P 4.195682310412824 6.36560054827732 3.594729955765426 0.5140172579971213 -0.4968772558827249 -0.24169655267668047
P 7.000312449424864 4.146823284584699 10.235266363418873 -0.039856984095937804 0.3557817992595743 -0.32460228833297644
P 6.3700182640727405 8.114515025184328 10.154797442487963 0.4797544801595093 -0.9856912751413412 0.004790993630740137
P 2.5977170833238037 8.43121514990806 5.786533648767362 -1.2417847199696421 0.6295338377099029 -0.9407913293048572
P 6.9723123291050175 4.104267473870865 1.3302990150867602 0.416246946524167 0.5487919424741452 -0.14249413674289008
Ni 5.337384028412243 2.925019725956546 0.14002974941479043 0.8415842853853763 1.02211532229633 0.853942292730097
Ni 1.5692090853031535 1.1655027311405246 6.824150339149707 0.412747932231973 0.4115084033979171 -0.9588314746360195
Ni 6.980519260922903 0.7657695885860664 9.242483567710021 0.4057715009141399 0.9684767110352674 -0.5619765594852193
Ni 2.5814307413810953 1.5021235660592789 8.941431265594446 1.9643971201037846 0.8041479949157893 1.2034122908390308
Ni 6.516923254482138 2.414459301698887 2.4923623039915093 -0.40036909895164596 -1.539389396667852 0.334588710121727
Ni 4.415365752792154 7.164569498783288 10.57696620519851 -1.5461238871782081 -0.16965218521492073 -1.2699964065171676
Ni 8.233128417118305 7.692481981989972 -0.01611600939554476 -0.3838839568124292 -2.151352315373527 -0.1466284706262378
Ni 7.289486105831555 3.7871847840679447 7.960806752449983 1.7330389732386347 0.32114209769851787 0.4792816542881488
Ni 3.0868538631467586 8.333360467866383 12.526189935831525 0.9120309693427132 0.4883468498142106 -0.28218679948124303
Ni 0.4114268818084006 4.993676630836092 10.001431656586416 -0.5428233835955362 -0.05514244950009858 0.807168526909668
Ni 8.809098361225287 2.30772364460456 5.609252080200953 0.1503383153776572 1.0840025467194299 0.38267271011314746
Ni 3.8696366673259965 2.812636679597968 11.32306284002179 -0.7756889682441479 -0.22488205222250304 -0.002485742536331203
Ni 1.3108592438484334 3.7613343151454575 12.060920662603918 -0.26081219046020887 -1.1490964510052857 1.4265066550334915
Ni 3.233649549247815 8.538788806699662 7.889377297818817 0.7834218181120315 -0.15384221476585763 0.3825888921500895
Ni 5.7197851511408695 8.199954559537016 3.70251493421982 -0.11799820848405486 -1.5058064185060842 -1.3598099250368902
Ni 3.1187707211821336 8.533542199899328 3.4326990708202003 0.7480100142716408 -0.06514455501813296 -0.25643642999001637
Ni 3.682034039444552 4.631451261688615 9.578583385425688 -0.8465431720525486 -0.20663698996938606 -1.3916589512266873
Ni 7.1432369412722 6.345397468619082 11.184388464030418 1.8777296034122113 -0.481681521978893 0.29134455472111115
Ni 8.155950466737673 8.94985498429054 2.4766716705292553 -0.517035990218787 0.5214544310014567 0.006480979738653355
Ni 4.766423865104194 0.5037434788941668 1.4666770897337478 -0.2141754644382763 -0.33353327227401913 0.09407203668576057
Ni 6.468100663423459 5.878886680622575 0.29780960763481346 -0.9436185143410071 0.24384188115445746 -0.25781788371857534
Ni 8.159393552450394 8.954928525936003 11.149579596170204 -0.2528111745326033 1.0852893838516533 0.5971281676856878
Ni 0.03821278619577764 4.9346796304094 5.509758744403409 0.9397690586879298 -0.91388807715611 1.251434327244264
Ni 7.821752543987129 6.470560010361116 2.374791857332947 -1.4121609278347809 0.15174522302751287 0.3960301052566598
P 8.576471466999989 1.7706842516514576 3.46648138905125 0.18396603073443155 -0.26330847451950135 -0.08399125541099084
P 1.8450931595541338 3.29062441997021 1.131571941223979 -0.7461302807504246 0.3307461964471852 0.773687621543403
P 4.661236685711354 1.3852499343663862 7.968099171554755 -1.0142279491284532 -2.11028588435052 -1.5998419455269544
P 8.677568843522428 1.8111723891991862 12.382623281172688 -0.1262787033252922 -0.47190490220810344 0.04349972305484767
P 6.429570894733495 7.98523535449481 1.3085192207807144 1.466592467310784 -0.12210606000484131 0.5616276607862327
P 2.030309310036815 3.3990634025361737 5.704252098056474 -0.6036204602782508 0.025069027153485857 0.9674590684040305
P 7.1643782162436915 4.0402242578757965 5.771456030301051 -1.5417440129429576 0.03779675913279942 -0.5502839536386395
P 2.5673578116822786 8.641461987000675 10.355316196138288 -0.06503785423693961 -0.40950397137337863 -1.1182951493537128
