# total energy = -340886.85245107784 ev
CRYSTAL
PRIMVEC
9.10287917583017 0.00000000000000 0.00000000000000

0.00000000000000 9.10287917583017 0.00000000000000

0.00000000000000 0.00000000000000 13.32298380696131

PRIMCOORD
 96 1
Ni 6.36226636125808 2.1964701698933755 11.228317931808979 0.0473787463942797 0.5412125874649905 0.9281466439576531
Ni 4.896821123329972 0.6268442983797011 5.958904122937896 -1.408350552949755 -0.8609994566871945 -0.9302829735743656
Ni 2.748523390957114 1.6058025346266829 4.5718619848518545 0.7606045631071998 0.754792584411113 0.5031666884358624
Ni 3.5532816456578673 4.247676591118494 4.486088283600045 0.8496115265652271 0.8899968723608092 -0.9432313062049175
Ni 3.712008552884863 2.7029634798100637 2.2178373585917712 0.6904065048255594 -0.18295867251583975 1.763515801671253
Ni 5.180703518740942 4.479363076336221 2.3075671712091177 0.8233430797870014 1.1220435606525516 1.4846963760003462
Ni 5.42158391210223 2.9604839366232607 0.14624503906219383 1.2069622129738182 -1.054622550895416 0.04229773232694651
Ni 6.002930198914461 8.18930527560862 12.343291391304557 -0.7143982397544664 0.02844154317014456 0.1435485461493334
Ni 2.3352708742230903 6.491563659546332 0.28008649472199587 -0.7268776031683998 0.5468970394442775 -0.6428287550465962
Ni 0.5367512808762873 0.31645613887722557 0.23780726129270724 1.8180046767477527 0.43373507600660144 0.16815760294726523
Ni 8.122581169972682 8.974747220328547 6.773125731010973 1.30110855454094 0.46885068876281194 0.6824767084555214
Ni 8.893094392558508 2.420391899025501 1.6123875575485163 -0.28152242642436676 2.193467756486338 -1.0935621653834071
Ni 6.99356924994344 0.8694360330587999 4.93070295055883 1.1930710568140226 1.1928417144120358 -2.134524445182911
Ni 0.9732161399529639 7.536210093759216 2.049061782850244 -0.08328420204163721 0.2733072376034261 0.9141840111299739
Ni 7.674564757000778 4.21376836553952 3.4895159758106975 0.4701799490971966 -0.6739236766791877 -0.06304704905915594
Ni 7.8563674633801766 4.187269883751496 12.450861937160086 -0.38813707566182826 -0.2505537459569943 0.45840018285344925
Ni 8.337481945668896 7.69155983274734 8.939256004030598 -0.30564117384944134 -1.7129594288799403 -0.04289911335637128
Ni 7.433848215467792 1.2165998251355177 0.20144125828921758 -2.9359820377507306 -0.43798922329726503 -0.13414010835123996
Ni 1.8881101319100932 6.989818863651216 9.267361097612095 1.1225832352061054 -0.9354526907007631 1.451682897188803
Ni -0.01684396794935101 5.105104105738694 1.3900670248940659 0.23377009874075225 -0.6778541220818454 -0.8948099774787364
Ni 6.825684846090284 2.256621996638572 7.0169891379352745 -0.11839004460583481 -0.5684781080491629 -0.11611230431525163
Ni 3.8039385314411196 4.432637996632363 0.45926575127270675 -0.6637580490000956 2.1810727252560955 -1.583427508724673
Ni 6.422044969949924 5.960865793437835 4.487593899844545 -0.853760001515962 -0.08812893172844821 1.1746940969687318
Ni 5.402349528035554 3.0968541721665095 8.881673920125923 0.5473354125332768 -0.20783435271159692 0.48616655433344014
P 0.39769387534890094 5.917563396369599 12.448676335828136 1.5068536288236758 -1.1646302849748265 -0.11268425247030915
P 4.289030972005817 6.4237927227851355 12.477253915259714 -0.3739492141972205 -1.0636993163857036 1.2663991760842126
P 2.5213519338970167 8.953828803582109 1.0971864332455608 0.1265196156915047 -0.8893659236450298 0.5125769260061688
P 6.41527242771348 8.049375814239498 5.55880162571297 1.529969646015849 -1.4073550218057052 1.476946042630966
P 4.960204472244439 1.037100147231685 12.488245642074913 0.19534161956122487 1.5953954797198264 -0.2694549537368714
P 3.9581048961137353 6.584267382847343 8.219042561869397 1.2933703053564176 0.11847591945142177 0.11465628859501545
P 4.730493311845676 1.1957906429412808 3.786871542947692 0.38708163781412047 0.280651079563007 -0.4302779706959364
P 0.47851743081014864 5.7433069769714 3.473981001911885 -0.9960219676433878 1.6228564041442568 0.6409197109493414
Ni 1.0702801424626536 9.071082992490233 4.2624086910586305 -1.2376624702711523 0.4704889956971833 -0.32480951924777607
Ni 2.311539667757484 6.508777204397295 4.687678829110604 0.23967232315780013 0.12939385191550618 -0.33013427389479916
Ni 6.223420142531614 5.937653451095181 9.325649564954334 -0.004629528352211382 0.5043565949789056 -0.17854948770455056
Ni 9.037065532359058 2.5400856595994403 10.113623930709448 0.015155881804831964 1.1986670628445613 -0.8882156120906703
Ni 2.783114332487342 5.22580828592049 7.121255338586732 -0.7810314635029839 -0.06593131258548646 -0.43005428472090457
Ni 0.7897612609715299 0.09640859519648537 9.1662663401262 0.07235932759901731 1.6503664366390673 -0.12129924783282982
Ni 1.6832680378956932 1.5661777008158717 11.166166202470574 1.567963351650803 -0.46011228044854957 1.1660425919413209
Ni 4.461011671566499 7.346314927637614 1.2554390804584188 -1.493651785421421 0.08076349250231252 0.8280286581881289
Ni 6.221899961680155 7.944292175022406 7.852060891159663 -2.158144398594696 0.5015258103983298 0.06597167890511864
Ni 5.539757491824709 3.0155381509324233 4.786135572160853 0.29531253822992365 0.16188565389562443 0.15440811457165665
Ni 1.3514680855860066 7.3999581956475184 7.191799922685892 -0.6196222350231458 1.0758830029360889 -2.91168768397974
Ni 5.122172004520057 4.838535386851538 6.739031806693258 0.47346041962068136 -0.06253359975784714 0.5378243877190478
Ni 1.3630014337225327 7.882201434975646 11.486957132494299 -1.3999312185378086 -0.7696664161991519 0.9827599604271591
Ni 4.723830004161432 0.6423574253680734 10.091507575040541 0.2988555183861756 -0.5193103880752604 0.2378452972513904
Ni 8.681607196618565 7.490895960354617 4.9576420117073985 -0.006318486018860085 -0.4804980431937531 -2.0374976967442007
Ni 7.800302829463157 6.42898136401467 6.6786651519954 -0.8848626364580372 -1.1177151084805268 1.5198796087696984
Ni 2.438124307999418 5.466488415936077 2.4453137621100955 0.8297117023175065 0.045794432626295324 0.22139229390168969
Ni 2.5123855977372074 5.556661538777771 11.324016502416159 -0.21121586758932012 -0.5105606669070885 0.6678209062155595
Ni 1.0761970140401924 3.6528034255920736 3.621346605422071 0.5544473409877096 -0.772957685355914 0.2888107325556639
Ni 1.7329151418709208 1.4330845018386444 2.3684672546368892 -0.33929717134098986 -0.4498044707646383 -0.0015678587077521387
Ni 1.1103055029648674 3.5143941450744114 7.599416846814293 -0.20921992020521385 0.07548038972650227 2.2746739929530246
Ni 3.6909262843101245 2.7234540612270486 6.992248422149746 1.079887753220108 0.3139934024688786 -0.5309281748198469
Ni 4.373614926926574 7.1919391967399475 6.014954192247957 0.6383982300790683 -0.6017731226568668 0.10405974402609176
Ni 8.517427664660882 7.421723180173513 13.54401215370183 -1.3278503414111584 -0.4817062045692414 1.0532094725979733
P 0.3037102872112715 5.784306345564071 8.191023899229911 -0.1423198159485549 -0.4963054425396549 -0.3771828906431698
P 8.878857489255015 1.7090382893357132 7.9343299838617 0.14376349037361694 -0.2056039207191814 -0.4413337142894657
P 2.269056529830754 3.621671578214868 9.984723517960859 -0.7441813845541699 -0.4857086408604151 -0.03454379941314051
P 4.432064515233309 6.156595905222824 3.469292108758669 -1.0396595018276804 0.7732371642695457 0.2369400118283016
P 7.299453304743507 3.9852769909736647 10.24510865090552 -0.7425003973073212 0.615423880671082 -0.06253745641258908
P 6.603683824501021 8.171354397530303 10.13295571558517 -0.17809774487911262 -0.2782519832032111 0.4038765978842722
P 2.72062306574918 8.467498371425805 5.483913147587961 -0.7242080267560367 1.3806826547208415 1.1188643915936214
P 6.9633112789838405 4.0327029923874775 1.287208129390128 1.61318982758877 0.03969423326582841 -0.22623008160996522
Ni 3.006398860064963 1.8709603072145804 13.392796942514504 -0.3815072290501365 -0.6523644624511733 -0.13698400555793827
Ni 1.7019562492013665 0.9620013925936899 6.812294510566345 -1.0503120964455204 -0.042330385337094836 -1.1323246308635855
Ni 7.323858124281017 1.1999688645629583 9.416938700804346 -1.2440966559322701 -2.217726114813071 -1.537607365066765
Ni 2.643867587069474 1.695684365329175 8.804267585572688 -0.0032969255837169025 1.5119505837306089 2.2456318400844033
Ni 6.369657899290328 2.0817101699271694 2.518216902248856 2.3997031401419315 1.9079434079914304 0.9002422042379011
Ni 4.23193771272224 7.075686324560332 10.504559828428864 0.7599527884558138 1.7609315858838446 -1.2498366437398412
Ni 7.734479908882873 6.4643369474103025 11.374750490185784 -0.9026405292667486 -0.5016672210722006 -0.8365608640288561
Ni 7.598118776218975 4.352004691349531 8.08766434536172 1.0406812582239755 -0.1518370114103708 0.17111231470021498
Ni 3.4071167119339543 8.612753017214711 12.469300729571566 0.6935802745678508 0.005906338182105957 -0.4956559818811141
Ni 0.4086901536037734 4.9203247578118265 10.339168703229689 -0.6494755709391524 0.1757657543118263 -0.7704560019799828
Ni 8.904955444351637 2.5819953161271165 5.826860485949731 0.07128692047044496 0.18213026307727342 -1.1257343792405774
Ni 3.7603903566304324 3.3102165612525654 11.552666267082706 0.08197859585633624 -0.7440811115308799 -0.4561458396016338
Ni 1.0527024824376876 3.5708593056828333 12.593124466506628 1.0980019463223154 0.30997476822778874 0.049957819975365574
Ni 3.4290728569262985 8.82491382622656 7.9581249104827565 0.9355195393829566 -1.7960582543836487 -0.19369122844199546
Ni 5.640335205763522 8.091576762906376 3.6041203165400177 -0.5544730520193225 0.6474423425592075 -1.132759661518475
Ni 3.1959936311680126 8.445524020674759 3.1715496692492966 0.02281545523261877 -0.09991049774440858 0.2264234285676939
Ni 4.057544750133791 4.82365217911419 9.59492001843259 -0.6173100419502013 0.10419472694205927 -0.958218266532053
Ni 5.659569589830199 4.8153412502675845 11.474660052780301 -0.38433030032122845 -0.04281529539331336 0.32223533076269667
Ni 8.179638017738856 0.17371479807686985 2.248892741782436 0.15036119819579266 -0.49779873925572976 1.1754011503380855
Ni 4.964109607485615 0.7117331997586855 1.6623751092114356 -1.4938335624149242 -1.6700394895879627 -1.9747488956517538
Ni 6.135932369098188 6.076445052545545 0.2857575885570833 1.4340577279078721 -1.3250815204167694 0.18817312683724366
Ni 8.242848411945674 -0.3642198571149253 11.659889082947062 -0.2607013759139575 1.9161601394742678 -1.499915506942946
Ni 0.6460195137306025 5.208603843948876 5.74315222802245 -0.7373610191982268 -0.6681001280188753 0.025131247849988974
Ni 7.512142080757658 6.726299609346329 2.4669367417182277 0.7594282834109114 -0.34988060328379095 0.2831594478071575
P 8.638586988810182 2.00137725966289 3.667004827666102 -0.5147150553950942 -1.1853808872586167 0.4392688613406371
P 2.063741086090151 3.659403013120867 1.284000274707167 -2.4259517894258154 -0.8969496495295585 0.1718353089091686
P 5.142726306092492 1.1463073907943546 7.932611360240409 0.13579204213236615 0.7521949988872659 2.0258801671099302
P 8.845804934334948 1.8081140281817663 12.160393608539346 0.1590947214140486 0.4276549312507925 -0.23167336411272357
P 6.4225274225554765 8.200993372694098 1.3218109046635114 1.604533951685985 -0.044124244012724 -0.25150736811951524
P 2.1457580290341913 3.457473840498486 5.729682697448165 -1.7934483275646276 -0.5389150496800654 -0.023807386832242868
P 7.040148683577698 4.238164082197681 5.954521086530843 0.5375891317797903 0.3351175860420035 -1.1261866362866475
P 2.6365215634339756 8.93886366993061 10.23071972951688 1.297879763190997 0.06126321768585578 -0.877823984443701
