# total energy = -340862.3889043202 ev
CRYSTAL
PRIMVEC
9.26602829298022 0.00000000000000 0.00000000000000
0.00000000000000 9.26602829298022 0.00000000000000
0.00000000000000 0.00000000000000 13.56176903127009
PRIMCOORD
 96 1
Ni 2.208984103498835 5.017897214955154 0.04926376652570474 -0.028074903859345197 -1.8378515362703511 0.5495622449812664
Ni 1.1352645320247563 0.01983115395521824 8.704377342947687 -1.0470264837157128 -1.0793365087023281 1.3039866474196833
Ni 8.252482404511074 7.136713596213904 3.2036292419185073 -0.11388572897757805 0.08656595811670252 0.7022256089476745
Ni 8.411144608592563 0.7078504405882775 10.635044237986975 -0.30184673980401566 1.698048573206379 -1.5871759200235118
Ni 0.649591213703856 6.426954353777773 7.633485763337514 1.372873700199384 0.658066397931957 -0.11495067990698268
Ni 7.723892549109999 5.910178684570934 6.098253115960457 -0.9544192045009369 1.755886053040137 1.737676472010646
Ni 6.870435738438412 0.6731324854254834 7.416036168753509 -0.4055056488472629 -0.016739167131551817 1.0551413995133634
Ni 5.344774898385783 8.056320583544823 0.4880583940278777 -0.4890137939742481 1.0174533980442864 -0.0802076199988425
Ni 5.445098187738716 8.637133774938613 3.4700497965311676 0.647367266346898 0.3645649447688431 0.05196405177211696
Ni 1.449002987201718 4.1928222492348945 11.129561053801035 -0.2319217326781038 1.5070181794259982 2.867051019106972
Ni 0.7120359056109726 0.9001714927878532 0.6870556196807451 -1.1316831406248447 -0.4482978043121246 0.14343516049992072
Ni 6.9553681546394825 1.7690423416822727 12.590271667870532 0.6899215947693408 2.1026543359471916 -1.5523708965291845
Ni 7.546114528464818 0.24342412536022626 0.4114709629927124 0.17300927461261173 -1.5280657441249168 1.6913354228522615
Ni 5.011281270686381 0.7133322229824028 5.951622849740313 -0.29068686653245424 0.23636125650669615 -0.8967593878956234
Ni 2.7876475763066937 7.688385128328579 8.201900082145809 1.9699244776799172 -1.3272903551426303 -0.6534790356715907
Ni 5.486396876262409 4.389919939068296 4.228966246166546 1.5560424318435007 2.7323300985515973 3.6344348099195343
Ni 4.836023609762636 1.2165183349559348 13.238782462664389 -0.08605430858760664 -1.11580220772853 -0.8547077101412119
Ni 5.878544463655545 3.9909525547818596 13.18174171851294 0.3339659889360635 -2.1401163374483914 2.054462863843629
Ni 0.429007848319152 6.0557665225974695 1.8457835887886727 1.7383467586047932 0.9921599135848203 -1.9301585106358885
Ni 0.11230889707234026 3.264987028695754 0.4320322799848763 0.9728686694553762 0.2784450730506237 -0.2536035885269116
Ni 8.288823767847381 5.634773788833622 8.960762788816538 -1.3944946209032694 -0.654313358647428 -1.0051298434819271
Ni 6.273898096870804 8.63111085648665 9.345401186804335 2.3652174476602363 -0.7445655073664661 1.5617219987267814
Ni 4.387492239630736 7.529917510843231 10.591185345819778 -0.8925875159061208 1.2616578047444853 -0.41865941262040157
Ni 2.338643638727023 2.056215093471883 13.00890990382108 0.26734742047556537 1.0584486095097254 -1.7365639556727577
P 3.2750499355247267 8.26213760609099 3.0716189152883757 -0.12682891940180738 2.087755307348172 0.6619832164878598
P 4.160715460871736 2.9409818140652915 12.239944446399312 -0.9451161819324563 1.4065700640105645 0.2641844493665515
P 2.15354545565561 6.86084539905721 6.107570107504224 1.800771600698918 1.343275417716977 0.5634104637182684
P 4.162846647400893 3.5474341060076697 5.811733619172174 -0.640015196857201 -0.4673820746370854 -0.7173717205604935
P 8.957265789703044 7.616295427472772 9.42281236776316 0.439672524536959 1.7129596859902563 0.9449817132371209
P 9.251063751789813 4.8864308041913755 3.6873233365758087 1.297433419682198 -0.40277667995187405 0.7853421750631959
P 1.4299242347515762 4.290171143475397 9.049036534854189 -0.9971329413193795 0.39660371837194275 -0.3096562085461054
P 7.222998852559569 4.000598490333388 5.896901392494291 -0.27376129442170916 -1.5909029911661117 0.18817826904356624
Ni 2.7000187458448215 0.961220720819792 4.3837737824387775 -0.005599862685280679 -0.7698661909147837 -1.0393954495330164
Ni 7.4227929566537725 3.2960374898227216 8.188256781947853 0.1917904118748568 0.6563535290059084 -2.917730033519078
Ni 5.684254380423597 7.5379974875972495 7.326569884862368 -0.22964142128435933 0.9745925941250182 -1.8722824642547111
Ni 5.161965424326116 2.6816256794953643 7.5407643236737965 -0.2103740884143151 -0.4967597564682541 -0.11335505328508864
Ni 1.3092990772013327 2.16361762851297 10.085331544273446 0.8594768493950811 -1.4294996762235446 0.02075882981390618
Ni 0.5380263787110429 8.741765767491797 6.223482563016516 1.5261281607825716 -1.7077568016330782 -0.5677998510352157
Ni 2.3477799427172323 4.9333910360599145 5.175578146630391 -0.7967403895978085 -1.9505913245689437 -0.3897602130875481
Ni 9.200341512395894 6.140597012486275 11.145671897358618 -1.3591800047623754 -0.6082566734986814 1.514013894017541
Ni 2.098885154196946 4.093907396196882 2.5178643799921594 -1.7612545164409024 1.375327303946199 -1.1748254803402733
Ni 8.101501737962936 7.959963154341798 7.46762570840451 -0.9942432784764103 -0.15398079722625096 0.8435979733812955
Ni 1.978352656930579 2.5157267072431324 6.103026973785767 1.0351343602638172 0.14475413642166038 -0.7410932325471495
Ni 4.9631998493829395 5.734782033221375 0.3472286615783943 -1.5552975832576763 1.3673404290859805 0.8078406132760281
Ni 9.182986241225853 3.03140898510023 5.097299665414482 0.8295589787897262 0.994338666403694 -1.2822086323126434
Ni 4.7396754465879996 0.3603391651440603 8.336595703802677 -2.97150748435085 0.0341470781953541 -1.478355521383983
Ni 5.710041737426387 3.579522362314053 11.024253567778393 2.859950917727081 1.2425552795870796 -2.2122321815780355
Ni 7.523792666079004 6.524961136033797 0.3188421836128719 -0.506353056583644 0.6599060222438571 -0.0005219339417410366
Ni 7.950085568080579 8.747603365376007 4.9527987325178175 -1.388283606996551 -2.1371657394605004 2.0943964668137736
Ni 3.104536481135452 4.1531729137642 7.614919422257208 -0.423355018323858 -0.24840481793479158 1.0697501505654736
Ni 4.274641279897719 5.710894212038051 6.219616775973194 0.46396302165320735 0.6585443660096401 0.9660272210535105
Ni 1.950387783256694 6.659040566802888 3.6106173003772812 1.4384530287620902 -0.018633298830471132 -0.42562787351843473
Ni 2.9630720257414156 7.057776300379634 1.3925228377677226 0.2977013501770744 -1.8507106516212062 0.03004051222614827
Ni 6.143247096605139 6.109852330296099 2.2863378350816577 0.13285378543964863 1.213117948162569 1.5998599432490834
Ni 4.072715989274358 7.817525765967059 5.085908010114723 -2.370232127266008 0.3882026387924411 1.418951211283737
Ni 7.270338991591999 1.9409179022445302 5.602949614336286 -1.5657827990597162 -1.147908344234455 -0.3840119977498612
P 2.5337398664286965 2.0196420794258843 1.5392337184348386 -0.2661857960672964 0.9042322992339008 1.8028400531921727
P 5.852043622466907 6.877913423347235 12.139478460209208 0.029292578316530198 -0.239762054658129 0.3770962444666344
P 3.73877759221235 5.603806721962143 9.218802220752583 -0.5322813464136317 1.5977292700593257 0.19790243830986562
P 6.441363027920547 2.1486159285533875 9.551649079670527 2.967574467845031 -0.9836493050106477 -0.929737899704173
P 0.33750767119692554 0.9144068921997783 4.602363098514463 0.5560054295034488 0.8216860037995526 0.33016487002241846
P 7.4692342909326035 2.3378838243992375 1.2169844161838328 -0.12268147289233712 0.38433415697597034 0.21211626791640245
P 4.001877202250883 5.360592008843477 2.3994834545174015 -1.523509235102486 0.5713705991056095 -0.12660523342677552
P 7.047018441421589 5.51782724455327 10.734615125834832 -0.008204904408295546 -1.0883063163011062 0.9878006081748602
Ni 8.785640411907252 8.372384811847082 12.10886998863633 0.4285087946106556 -1.9426551004410026 2.0114675912290263
Ni 1.4022373419293201 0.15424416174626382 11.425166818026232 0.43255699653810026 0.1144310599580868 0.11402456854828749
Ni 2.5928385954850377 0.17676061072821894 6.721212837475408 2.043198860894036 0.688086341332815 0.010881679909510292
Ni 7.333829818104081 3.1018215348178746 3.457491548257405 -1.123852588836832 -1.7686328111828444 1.4762212486497996
Ni 7.927652513354112 3.9200211074745073 12.133063588756448 1.151042261877747 1.1881188550150696 -0.23347082233277855
Ni 0.5064736988454652 2.3677204358074246 2.7496485204918377 -0.16507613580846411 -0.8833701110729109 0.2907028073720542
Ni 3.7421133624318994 3.2444627758171407 3.579086858979834 0.025707174958117016 -2.80911943689751 1.3526697144476831
Ni 9.051612490745951 1.363616535609654 7.097104104665276 0.7707894740600015 1.6665605299004267 0.4364226501410935
Ni 5.467911149629076 3.9816957924226117 2.1352459761928677 1.3046564197931982 -3.2119981896448877 -3.576414524651008
Ni 3.5449508103997838 3.6924845143877216 10.267221828317059 -1.1317247924960574 -0.513768889431741 -1.6948614337276489
Ni 6.589221042902052 8.831303399801522 11.683030195422912 -1.328539654168699 0.0130383212411969 0.3228745070085923
Ni 0.42245583964625466 4.160780323070449 7.0627929281487 -0.7261019013446398 0.13869250360861277 0.9151425183885014
Ni 7.719092746405204 0.7460552022333389 3.2625685952865813 -0.06152469887735856 0.559946416429068 -3.253942395287157
Ni 3.0291758722588096 9.240278094746605 0.6935714908429307 0.011269145155916076 0.32305397000925007 -0.4263398119837947
Ni 0.3346815325386966 6.45554005135363 5.118523503436362 -0.9394954933115691 0.32945241733642616 0.41036014872608684
Ni 4.200457456626307 5.466317392746402 11.749889223253899 -0.9233602783126034 -0.5448902934268938 -0.30812048862786934
Ni 4.681438458171708 1.4150800572745834 1.9624011890612636 -0.049011654012012365 0.1379417414855173 1.041514038537916
Ni 8.11257464188616 4.42185067289209 2.023456903313074 -1.1377982523836467 1.6975538929581475 -2.6592673171276524
Ni 8.756359762202322 3.528735260721421 9.934077529887873 -0.5817943655420948 -0.07542613944979913 0.4715138374172718
Ni 1.7428750775155892 6.959093098051311 10.164925801520399 1.420155001783851 0.1842740488931536 -0.3713778539256185
Ni 2.1525447245897453 7.00190214920219 12.70160021913946 0.04392498351772436 1.8422234400858015 -2.3055244026749775
Ni 0.9451812256807944 8.928615229928475 2.9795210793351465 0.3224857562106059 -0.7196674585732057 -0.6910647072348485
Ni 5.769335053078869 6.177902042774897 9.089667142731134 0.6154287657670885 -0.7781513137417115 0.267794535315313
Ni 4.72461815045809 1.5864274542187455 10.252887282401387 -2.8747283331465714 -2.0086059534105147 2.240127622436723
P 0.002878028417199694 5.484997705975876 13.280796488579606 1.171867169042898 -1.1186818432691703 -0.3646814157420494
P 5.7403045861404065 1.546287019243507 3.963060882732237 -0.8013182387764781 0.2620298649173939 0.3171579162397893
P 5.895807074541711 6.742332895979346 5.211801831406175 0.9260635361763793 0.20301816226987615 -0.6268861156744108
P 6.858584488130626 8.164001099437538 1.9943124642254426 1.2599799028214302 0.261412285938053 -0.7413737399020457
P 3.46371553952538 0.001514069038539697 11.775792405611535 0.9022988296566139 -0.6174085152012786 0.33621416154029193
P 1.0513235808611632 8.060777543199276 0.6359182622150604 -0.9560086604752438 -0.16658640180540343 -0.04025807618909841
P 1.9291222481070696 1.862397577687704 8.07055412975107 0.2660752386313612 -0.10105309598928404 -0.14379048695681043
P 0.19067633216077043 2.1420741125117164 12.18272672110566 -0.16755647902815657 -0.8504815878750062 -1.8456129253833247
