# total energy = -340855.22239725647 ev
CRYSTAL
PRIMVEC
9.37825394187526 0.00000000000000 0.00000000000000

0.00000000000000 9.37825394187526 0.00000000000000

0.00000000000000 0.00000000000000 13.72602261236947

PRIMCOORD
 96 1
Ni 0.8038767054364634 6.981200147427056 3.575340097990863 1.7975242974062138 -2.3857201955992786 2.8359789802925155
Ni 5.6514575632304815 7.295221592446014 9.558307673635817 2.3130531069518554 3.8066331585950763 1.696027943231924
Ni 6.8650410977912655 1.8929067155246242 5.621684421386566 -0.3180063802830136 -0.026807864221463504 -0.4569876187766388
Ni 0.9635968054237223 -0.09693738096684863 3.197861637514484 -0.23277405337607004 1.6893003947001037 -0.21348640879105168
Ni 1.8671258962570003 3.7038943854680575 9.372100571881532 -0.13996494256313316 -0.43598093461798465 0.031457704288649045
Ni 0.40574639261041745 7.760673699056213 1.6316942167755788 1.8201584898659622 -0.5694705538694192 -4.370797212649918
Ni 5.073663356217639 5.38801304011414 9.803564011634794 -0.9244298572276983 -4.958180642244017 1.1140618279986554
Ni 4.657475215999884 1.1192851941693835 10.93891227864579 3.7361098557635337 1.5754838283975643 0.8844803134179541
Ni 1.631150278064221 2.3698471828488428 2.4835725756639904 0.5910071423896144 -0.002453089526182872 -1.1930150067651069
Ni 2.3261351426137047 8.433375832947322 5.150731031188739 0.39844231424257837 -0.5870198756070923 -0.4168930647485981
Ni 1.3129930231882159 1.6498692723378394 4.692405459522688 0.31214863595065595 0.9290182479293291 3.3057825198869
Ni 2.322411975916998 6.547202703539159 6.7488792346793804 -1.1231936150965947 2.7277226816865734 -3.464590049077833
Ni 1.2570329836938865 4.418067156973365 11.695037730002602 -0.9245782098801044 0.9481896786514574 -0.12358393010194844
Ni 5.18421421017426 5.2859213709444965 12.238560984723817 -0.05404021757485532 -0.630021833089915 0.17458253263700255
Ni 9.009069311143886 4.282654552606242 9.632346172679872 -1.0613375010217463 0.56546117559971 0.24539019947818383
Ni 2.8022784583781752 2.914592424019886 0.3933999216879632 -0.1436945848088945 -1.0515927629301567 -1.0355465081005715
Ni 2.779639354081324 0.7736337130849781 9.963129370436926 1.2386621151802604 -0.21889446718050043 -1.7985550526635734
Ni 6.852896259322159 0.9946200684783965 7.895798391036462 -0.5064628426886311 0.6973914207838248 0.5925215221516119
Ni 3.674446669025592 3.736540086403161 2.412156236338824 -1.2602894636420487 1.9151777209563403 0.3602681171657021
Ni 4.503775017026771 1.7405194720616852 2.6201330782771506 0.24857682473628157 -1.835840419377593 0.025496087388575447
Ni 8.710465715115824 3.8545560302604827 4.311920330928012 -0.04811151079524617 0.20214604407756798 1.557658884401001
Ni 8.198169231553358 8.633057609537444 10.767103609711288 0.6587276856650397 0.8917596206881868 -3.0757518335839222
Ni 8.329999343028437 2.613165973644951 11.63008582091431 1.0347474092380438 0.8348765343478977 0.556055566015094
Ni 8.784197545265718 3.9479071670338284 1.9959971687073652 -0.5244045147687162 1.7883631997322362 1.9393540610922275
P 0.11088940891317237 7.578913765179961 5.736282929615978 0.44184999180425194 0.03219175424119617 0.4683706638025998
P 4.93624380557068 3.2653391103091294 4.037330691181026 -1.382425091333245 -1.8713098159287966 1.357931477067255
P 8.965526079474342 7.044906624431409 9.088973907842325 0.4216526909207706 -0.4152930672513299 0.21505169639564253
P 3.6456366738309245 3.921263548430948 11.311615332366593 -0.30368096479927703 -0.23444912708564783 -0.9193359876445586
P 2.532831852929612 1.3739047806066287 7.943097613290467 0.5815107728634049 0.7419416965903739 -1.5133811455295485
P 8.258340106933888 5.966341807584697 3.905835383361043 -0.8189639768826993 -0.9389537618754862 -0.2645107223577186
P 5.1785028537050035 8.428893027705442 12.832993151526653 -0.05456986482608021 0.19034493767758184 0.07776635754720156
P 6.394665408017915 1.6353142226822004 1.1921232767469951 -1.816989348109361 0.05646271097341889 -0.7052893354746628
Ni 6.2235779267886455 3.491983366126032 10.691240102508091 0.9427466532590151 -0.837634299598693 -0.4394429250246561
Ni 4.315919218281855 6.503434393782157 8.0570790324301 -2.1434454018216247 -0.20810046188878997 -1.7546771203337006
Ni 9.0486080285074 6.781565262105153 11.576362494914097 1.4138773963052553 -3.047136998060707 0.09526374300101657
Ni 6.214302833934633 5.89699900014024 6.980903794611902 0.8329602911617914 -1.0417369531819995 -0.6568132422511462
Ni 6.196315343445255 4.735671094884369 4.38652058736535 2.3551911737724858 2.3041568329034896 1.3987845065278748
Ni 3.413871891524345 1.1747575644742196 4.9971227391013375 1.7709568313303305 1.2112587834666428 0.40338963094552466
Ni 4.025943615606363 5.996774240659793 1.938073322899962 -2.4449481280226597 3.1589820424591726 3.395043251226946
Ni 4.875885365117268 6.653233239239324 4.9714966610188425 -1.2446083054613664 0.7676735541388392 0.8361320040215535
Ni 7.348377534100758 9.110832741435987 12.77167906702691 -2.173977508972211 1.387147950730211 1.4219038661541576
Ni 5.012704707531006 0.1168136517401487 8.955735182669903 -0.7603636507409872 0.21334242701401968 -0.8983714695777496
Ni 1.6541551342531922 4.929547732468794 1.3947010580624148 -0.0317405256363905 0.604306687711998 2.3840394654627453
Ni 6.354723425747704 4.773427944055505 1.9681606362409554 0.0985411282007077 0.8641349169923828 -0.9065210952680774
Ni 5.709021284097952 6.7349084502257694 0.5081841193395292 -1.8186515663031326 0.01861992909403245 -1.3376236187478383
Ni 3.3945245542565714 0.5495262748788039 12.659249748865376 -0.28273110202048723 -0.67875503662956 1.3355780490727192
Ni 1.063400180704207 8.665909632052717 9.39684884542294 -0.1592343323157064 -1.879100772728125 -2.0342393377079033
Ni 7.728309345730433 7.1637478546094115 0.6855287714001403 1.107435066710757 1.6757483670472817 0.38989391045193494
Ni 0.3056307214835842 1.9887055764990795 9.717914296753982 -0.7359314858405519 -1.062018843359487 -1.0806385153432034
Ni 6.379519528382697 0.42075816321852416 3.669706899633865 0.19622813593123625 -0.6446454965403607 -0.20710801606853363
Ni 1.6406316924984037 5.958998634981369 9.424493123689647 0.1807233554274178 1.9672968102490829 0.6933388479810059
Ni 0.9939260777087334 9.410983749315324 6.788423578995082 2.5762564233520595 2.2844876366093363 -0.5998555939191799
Ni 6.824320720468593 2.754055478140226 3.0056149404134023 0.82548763693383 -0.8679427207742471 0.6434201087736918
Ni 3.4309496914102464 7.639169044843287 0.17664878564021907 -0.8588060485803016 0.6488052843450052 0.37289917566615133
Ni 1.9813155126275308 2.2708503373817504 11.589718065928658 1.0284214670200158 0.9848636370337231 0.6973988769829924
Ni 4.056047809803916 4.459228312217308 5.907007472429221 1.6392554143275704 -0.1414217296143177 0.8100725879303404
P 4.543313734390286 8.887489630901808 4.32092439225171 -0.0754240825672701 -1.1119676644737881 -1.4727312332186702
P 0.4471326259418194 3.6368773849273373 0.2086942783421 2.2599228027857787 -4.5098951792270645 -1.9551331783033552
P 8.715136085430585 1.7224757120504417 7.18819414838348 -0.19085401610351646 -0.5122097724747373 -0.7078493828923551
P 5.729184529432762 3.771230246632677 7.945829498576993 -0.05765416017835877 0.9747170355180245 0.017363173868795902
P 7.229292469328009 1.1323866145101877 10.679339098633731 -1.7895279094642988 0.6678026513831143 -0.4861079331813628
P 2.1892313959171705 0.3585259476870225 0.7587663675829904 0.15872371122787504 -0.08279800643383806 1.216953519858575
P 1.097180650330246 0.44537701685964437 11.034665186177387 -2.7805351975019144 -0.14095995948655077 3.999093599953764
P 9.16540479939099 1.8911060908249575 3.451641870250583 -2.6993893819595187 0.24753295685279952 -0.061640655629932546
Ni 0.1650563263107503 8.648494215035628 12.80703789674125 1.6224738239938574 0.45174719631330584 0.5298112876065844
Ni 4.879889879423299 9.01084180108262 1.6649663850541074 0.9269271697282552 -0.1155410051928139 -1.0956213619052808
Ni 6.907186969667839 8.047404425970848 5.451674501501003 0.2827490997426163 -1.295512291400085 0.0311586849909915
Ni 3.030479504299998 6.632000872989088 11.64666751118244 0.20404506087249374 1.3780935538374266 -2.6068157841961557
Ni 3.0675611192087593 8.42314415822161 7.63309568778337 -0.38694074136088197 2.2198189927863576 1.0650434891184237
Ni 7.609796354429974 3.7210378331294676 6.920454385098143 0.800148386838093 0.3622944035671115 0.34524001918798614
Ni 8.563198998142562 8.844518472704554 7.682454374537619 -2.6860502416484517 -2.501732998222188 1.3414129105869415
Ni 4.706926747465209 2.00937524753067 7.076752360330671 -0.39333790313647743 0.007056135515833009 -0.5727978184704393
Ni 0.8077555511436622 3.19504909924662 6.9931471047442715 0.6663126971011493 -0.282214567395385 0.1592387031910806
Ni 2.8164021083661863 5.194661584733784 13.253064826578429 0.5381306061055571 -0.9172369390236849 0.021985760242471813
Ni 0.5736546458543377 1.4885914444202961 13.426795099684604 1.2325626871507418 0.35021484669475816 -1.2631315610765341
Ni 8.570016988541822 1.8644062027002122 1.3651492430044994 -0.9170443633969045 -0.059925729821354856 -0.05094769469246064
Ni 5.067848838958298 2.7850599846876123 12.706755292699551 -1.0062503302396153 0.016392839535726605 0.7497604213038442
Ni 8.99797483708292 5.359540662050661 0.20405954539118704 -1.0758290097697019 4.2477645270657485 -2.184643730436805
Ni 2.949338853771267 8.08556454004868 2.793039940713375 0.5142224320293918 -0.4521976535871632 -0.049691710798172486
Ni 6.641360370125897 7.045994501854125 11.710232376556768 -0.4214927683041386 0.4136097660116361 0.9425641049345637
Ni 5.795648213008479 7.11414627108578 2.840448888535016 1.4132279356467146 0.517092040267703 1.225763147730405
Ni 3.9636720114095563 3.0982655216395343 9.023638428179991 1.21150072427412 -0.32341778110657204 1.234650937138338
Ni 7.217128874351615 3.566653021640336 13.548860573465449 -0.13341094349469929 -0.026896824390844 0.579999221314885
Ni 8.117075472292848 8.063872639369881 3.221127209154761 -1.3963067344113436 -0.7707930736044275 1.360837080749824
Ni 5.043362218693561 9.108375638981233 6.418232959425532 -1.3210405175781763 0.8831232851694274 -0.7646599641234959
Ni 1.985470078991866 4.274992519379015 5.080714865132636 -1.5417650959888802 -0.2910146821855181 -0.517585949184986
Ni 0.26213531890762476 5.478597592062478 7.53447397246204 -1.1793429085946527 0.6944035418000944 -0.46249954973380347
Ni 8.609424410354318 0.25017804551140055 5.088030840800396 0.5477493601422437 0.6551836770675232 -0.35838735520322146
P 8.19746586253005 9.252556910505588 1.5675525888021389 -0.5013226932485882 -1.5927816962460632 -1.794931339868057
P 4.568588127961128 4.755590505624431 0.6002269897295235 2.5007852895969385 -3.9563425821394826 -2.4377274419045047
P 3.4892074030473794 7.951774373561986 9.822794120732015 -0.32263642285585725 -0.5230320599012217 0.04439909494066547
P 1.39462134290644 6.887248802420487 13.264457529105279 -0.8935419093995901 -0.40267589270795173 0.06094465800417247
P 2.467465425030253 4.858807565231367 7.5807997319877884 0.13775636494758856 -4.572037714194081 1.5158535183294408
P 7.586904037284731 5.262719571429 10.970275972307743 -0.8533630231878593 -1.1742333552822295 0.40336340569327944
P 6.27002841708786 8.035090778936148 7.665749829146752 1.605081596659339 -0.28344329759616343 0.02660706106456708
P 3.026943902676173 5.826512045751205 4.036301896756268 -0.2691579913217429 0.6992061053950603 -0.8775193087190887
