# total energy = -340868.82413428667 ev
CRYSTAL
PRIMVEC
9.26111026126061 0.00000000000000 0.00000000000000

0.00000000000000 9.26111026126061 0.00000000000000

0.00000000000000 0.00000000000000 13.55457099472721

PRIMCOORD
 96 1
Ni 5.570048433057031 5.716975946612635 0.5140953413481124 0.08492739407201502 0.5494964247403374 0.22466839354980017
Ni 3.887304707053053 7.4331337582711114 6.126421668646095 -1.0294265112457626 -0.03980170537797016 -0.28683432555558347
Ni 0.8919365986630189 4.757330445059204 0.4030231420995923 0.012629515838552442 0.7320709744438811 -0.35361615906682325
Ni 0.5425741813692178 0.3036023456121376 11.869236112757635 1.3183696556142326 1.4649153367186771 -1.535775968284981
Ni 5.545849152066121 8.101369165810006 1.416791497858525 1.979826053064345 2.032597688339422 -1.9817836910113482
Ni 1.5838906355726823 6.402159185844359 11.901374017424553 0.6688809720489577 -0.08569306859344597 -0.5571868514060597
Ni 1.509468353887663 1.1645846094936723 3.234730762998173 -0.8505335241588642 1.0046053384370248 -1.0349214729220628
Ni 5.299855542544284 2.744678189878343 7.18717534096809 1.2699395851373032 0.4909434068967932 0.9607132650397648
Ni 6.1479231882314735 1.7232703443033364 0.9956564025121193 3.3900036319205102 -0.7197006258039863 -0.6427673056810413
Ni 4.74679130163492 5.103973800393981 7.005639058540297 -0.32053608868340283 1.7349163927670057 0.19714190599475725
Ni 0.3832340017929038 8.955252788712002 4.651508369191376 -1.2375549981590106 -1.6748651931113798 -0.708525068803141
Ni 8.23649802495213 5.488939629797026 9.643250479337961 -1.2863581357046425 0.04465594814647793 -1.4942907045570009
Ni 3.07121567493709 3.5532008949489278 6.65110616341365 -1.1694996972519858 -0.40403086407394934 -2.2312166931003383
Ni 2.18555718288859 3.494346539534755 2.7712455367511426 -0.8654893741377482 -0.9170461631691174 0.8759815319183236
Ni 5.329055823051112 1.8364503722367134 4.939014905250432 -1.4108807755707766 -0.9978189116428107 0.32271149906816676
Ni 0.5338872599878653 0.5741499366461058 0.8628993136959694 -1.4155779239361297 -0.8952457794645743 -0.46937776491087546
Ni 5.12546883720221 6.073593517648601 4.348632094620068 -0.13868736140229018 0.3724122087274038 0.643904247498962
Ni 8.429953356226191 2.1898821213588366 10.260430312374448 -0.8963906917022949 0.48644731879865255 -0.3324750062128339
Ni 7.181972449249494 4.029685015493257 11.527105696430462 1.0474466019722672 -1.0173922057890479 -0.9081223783169262
Ni 6.702552556767117 7.506139090093287 12.604096873291825 -2.3983607671814244 1.2206744203535882 0.6281097036688666
Ni 4.546834670990165 4.074647705585439 3.186801739304236 0.6249788713493688 0.5561129016155906 -0.4150498408922723
Ni 5.551053896006761 5.29054812677855 11.599174730009935 -1.3305302022361665 2.879393599832725 -0.08804922753044836
Ni 3.2770901550090126 2.2577012314608025 8.587403343207693 -0.8219122608777457 -1.2501618882897438 0.8227100741886927
Ni 0.96757301189718 2.458333923151227 12.771469213757314 -0.9917243687092984 -0.19696449987662853 0.8333109896329906
P 5.670346256681814 4.21439785872468 5.271196110873993 0.33897501211488074 -1.7039819079716783 -0.2522876979289655
P 6.8276053279956885 3.403615442761717 9.198646804596581 -0.38552483484996186 0.26513575753622726 -0.4641697383473748
P 7.624505339746873 9.305285710385343 0.2306340582308204 0.20509227119008552 0.15062499338014057 -1.9780206244244904
P 8.149443588934313 7.1291655988054945 3.5384340547116504 -0.08218197011639396 -0.4679605728483748 0.7703426163305701
P 4.181372739699197 7.488459630693498 12.722022294099192 1.3008712417191532 0.6099158063686593 -0.5741653882419273
P 7.750725010862494 5.804734227006765 12.74103905781398 1.3060129338210926 -2.3223304184887232 0.7062843523980804
P 6.1952104169875355 0.9289541823020419 2.9042295227675514 -0.8002543162883379 -2.5954527937748524 2.3035626509629163
P 1.8585381200986808 7.217924079102809 4.975625000040011 2.3980306375355154 0.8103104149727594 0.4641447986467103
Ni 6.713073177970972 2.842169897108084 3.526953982489556 1.2141841846435542 0.5732462188617675 -0.8737819531638437
Ni 4.475135155708257 0.7063050532983027 0.13986128646181661 -1.8947521061121368 -1.2590386219540832 0.05281303003597356
Ni 2.638119855748449 5.469917309416112 3.8971696416537105 0.5134235902771803 0.5498949457303368 2.094767219889631
Ni 1.4459186155946564 1.5759816474493613 6.7327993427282005 -0.0905452544794247 -0.16141719889963813 0.060267943652122
Ni 0.14444646212909545 4.532943005668173 11.209982129904917 1.6553494916759557 -1.6185680611815478 2.6951385771029646
Ni 5.230684310350979 8.0526649871911 10.324055991771214 2.6753331123412636 0.6358579801557178 2.344082465453834
Ni 1.6351601417210477 7.423928214717737 2.645459285593568 -0.8787624370975705 0.4031206935548541 0.3081125182080694
Ni 6.347685335561721 0.5802141116146661 6.868982116212753 -0.6829708744831205 -1.021741741006995 -0.06128481495241058
Ni 7.979956010895793 8.905928115708715 2.231637688983681 -0.1697761123872947 0.45714625584169005 1.7628588848135445
Ni 7.803522600196279 2.172480495265488 12.589051273637086 -0.506315004256857 -2.638954059491597 -0.10094356699461325
Ni 9.2027374369784 7.685832411588362 12.76214327577115 -2.201438947617273 -0.5725551063320139 0.4095129702344431
Ni 3.19415691303672 1.7213347722684722 11.858473776577176 -1.7469005617120752 -0.9454748508234556 -1.6241972344428672
Ni 2.722886797543245 -0.024280778760799284 4.731087237043918 0.6550481799309236 0.5190869592105446 2.5443302640674244
Ni 8.203806305894375 2.6271083957032166 7.304870160131115 -1.4089815016655347 -1.287124838667338 -0.12618254406706012
Ni 4.865611345689025 8.476444129503792 4.108797123390981 2.0612711450147145 0.6363058663264138 0.9613961500394024
Ni 1.9331085795471346 6.180651951730087 7.321568867959171 0.36359923842146413 -0.41335882634309457 -0.7752235985719552
Ni 8.759722968749855 1.8340424835809013 4.795160228064053 -0.1213190453271717 1.225594740473341 -0.02726860590796594
Ni 2.9889492329002523 3.312560207131166 0.6106294497816571 0.8263682397665704 0.7487854589850846 -1.3438868260487307
Ni 1.3553820021361267 5.565630883484637 9.59063162943132 2.053950185873269 -1.9013174180344803 -1.6497120908845202
Ni 5.141518341204219 1.1299110128499799 9.562817737123627 0.7618605470014879 0.9238557298917832 0.6393587942201248
Ni 0.6050357392120015 3.8211618578999413 5.898814141233425 0.7889743724991445 0.8646393674326269 0.6009848224276166
Ni 6.99646315053961 4.976670579383245 2.723939785774652 0.409204952075721 1.3527694732503412 -0.6211738957809818
Ni 7.126878104582473 4.8078590623903965 7.291681413074416 -0.2617706977187363 0.10818739304122013 0.31701650556591854
Ni 4.931633800409347 2.916036512180223 12.653557684615265 1.9071165412147608 2.5486263203396176 1.5036019546555977
P 8.572037309139526 0.41142389517531164 6.6743654417177725 0.15903250071754546 0.1825591230845759 -0.0772038001755122
P 8.921273775334408 3.227774743115941 2.936394284654092 -0.253174471409293 -0.35845266122351815 -0.04386944768944058
P 5.742953360764759 3.6857829487820206 1.1298193278588546 -0.35462557416794405 2.0559785291572075 1.0918312987352294
P 4.01483019470894 1.0369757718458525 6.642878593098946 -0.6530026102558044 -0.5227453818987384 0.4324230420633972
P 5.381862673495111 1.077419040153279 11.819178885936367 1.1089108799253353 -1.2169784595592394 -1.9633578802059928
P 2.2711298412720615 3.8294968570931367 11.991051199855162 0.6107447300278579 1.7162512122573346 -0.4898067221891887
P -0.048328177544189097 5.183026637186331 7.604344828920578 0.5226523079642998 0.5763348850894203 -0.10704042392097049
P 1.4513271039600186 7.059373872227806 0.5126348642672603 0.21310999928823943 -1.4213253679428683 1.0201463714954173
Ni 7.1494011246245295 9.093085892036807 4.6355681462899 0.5003068503895642 0.08609313224534205 -0.11204867576883927
Ni 0.09539499187714132 6.314558344323877 5.325468995064974 -0.48407521902205014 -0.7734731915397518 1.0112009893766711
Ni 7.57880176083752 0.004551835670506082 11.40506000768859 -1.1231635331896077 0.4187697129460208 -1.3010795010752174
Ni 7.610085791142646 0.429945189493613 8.803260373979999 0.16584566698463696 -0.7058012421140748 0.5555652566422368
Ni 8.375525811494626 7.397858189463466 7.612694645890116 -0.6351776662592415 -0.17455913559823485 0.6558477930140835
Ni 0.4044363875183496 5.189250103250584 3.177706402962417 -0.5231708994719312 0.23122496372139534 -0.3643939664086176
Ni 8.508533876397594 6.667360337951402 1.4223351984330213 0.012237679716772473 -0.6755313874859399 -0.8633551014035648
Ni 3.4003555319661563 8.992139790696998 2.5897768604279165 -0.8412189316261577 0.1571766784557293 -2.9816430301229553
Ni 4.190263405505272 8.597542406670705 8.390672357250704 0.34580231944935924 0.7920882355377779 -1.835957661681748
Ni 0.39421026961932043 7.43192055283299 10.04697283525876 -1.2779606556695668 1.842564111254672 1.3510231799831958
Ni 2.861395961913721 5.533513353260192 1.6616552519341725 0.7405579288689698 0.7317806968969719 -0.8737385015204179
Ni 3.610647561610473 6.58893725665365 10.034232325936452 0.022736522365567297 -3.5442284268367668 0.044098790091427274
Ni 0.7819794370843439 0.26408426221515596 9.111802595780638 0.33726857094673524 0.3683184982740044 -0.9309254922543709
Ni 2.519522078339495 8.799119731603025 13.370635261315263 -0.630731714672746 -0.19401107367525944 -0.5706730588179526
Ni 3.520712920315896 5.465083009884059 12.69504838448797 0.14061003234629976 -1.2587995093600837 0.6457572415473007
Ni 1.174688480737868 8.47975960696064 6.790108018847547 0.7584561493056293 -0.785740438942879 0.9975201494554693
Ni 5.947160840998044 5.948457396428097 9.160409532742289 -0.713441532268152 0.44092953687251163 -0.1299417539991762
Ni 8.203315467052997 3.402717115070895 0.773621285115612 -0.21807068572762447 1.2201059494446276 1.8790748045861962
Ni 2.8709812109858954 8.592050568313411 10.729526845300542 -0.5573447171401628 1.932404883467904 1.34591645488425
Ni 7.850587562307188 4.38204247583048 5.044794380011273 -0.5197009386454597 -0.010732555926155709 -1.1804618526904445
Ni 0.778761201284749 3.277738432724039 8.422973257457402 1.5482180507030756 0.1679218327873753 1.4692476455454437
Ni 4.2280487351810905 1.9100298928921984 2.409948326723707 -0.20619450311532875 0.01893308945907707 -0.0015511465372037801
Ni 7.118663499822068 6.747237413552857 5.559705625169297 -1.374075690927285 0.14581240248284566 -0.1538005628946448
Ni 4.139882965937514 3.658786812506283 10.597275413102112 -0.6190920735512886 0.5771848917945415 -1.2431088380977044
P 3.242490647247038 4.417382872409628 8.558315122134463 -0.03631477527063423 1.307233436491755 1.7075747675292592
P 1.2015642225808152 1.8588900422868382 10.386393450737124 2.0276981941552754 0.30547713746775135 0.5005647320366411
P 5.705927442126543 7.356683293449081 7.238764355418861 0.8273486014019686 -0.7102831891448284 0.2896429986489722
P 2.3621572935719684 1.416357151789457 1.1794533219433112 1.1137239850432625 -0.3357711604656024 0.3682912445804948
P 7.475475554172543 7.609900568938353 9.826941822112707 -0.8310767009858332 0.39443010775939163 -0.23679782982348246
P 1.9906385962006112 2.570550795622279 4.911499220691652 0.3468549290835898 -0.24050407503047613 -1.4699058479547331
P 4.423411855159372 6.9939256063407935 2.5749757540828444 -2.2357927425067943 -2.6067250242545628 0.7185595702210077
P 2.2911153171153007 7.763320120754434 8.865990504019008 -1.8514225900865662 0.02174021989056901 -1.6891612980190782
