# total energy = -340898.2015029466 ev
CRYSTAL
PRIMVEC
8.99967216952231 0.00000000000000 0.00000000000000

0.00000000000000 8.99967216952231 0.00000000000000

0.00000000000000 0.00000000000000 13.17192992090404

PRIMCOORD
 96 1
Ni 6.19839832296527 2.056803114004682 11.201185676843549 0.4373302495570275 -0.27078292851967556 0.73838688935958
Ni 4.5406226807983225 0.38750699128607524 6.207680585008065 0.09391005718659955 -0.2928597058140569 -0.9741218251361868
Ni 2.7551596875908735 1.6322975697962354 4.908256595641796 -0.26096362843640863 -0.7397817128245775 -0.08089153343974456
Ni 3.5792146846322868 4.207247818619487 4.829211573586268 -0.9107225349439346 0.5957595694729352 -0.10819947722607817
Ni 4.907908308322564 4.412782335328184 2.5095424302517717 0.5312284796690852 0.22704229309861543 0.03197372469311913
Ni 7.1805775628726 6.062566268464685 2.3324594776521423 0.681488119290007 -1.2163889056043566 1.2527044522059394
Ni 5.0223391420186445 4.352043546762329 11.391414450817923 0.08313636360986328 0.9773141068212394 -0.09830690070271457
Ni 5.683257078705449 7.699588666235002 12.324053194441586 -1.1705003706023582 0.9032249410153089 0.23621624628839966
Ni 2.0114087667641765 6.548314582889555 0.4436847459142837 -0.23086655194071207 -0.2615552392738206 -0.8041888754560538
Ni 2.7515508189859084 1.5216465984794203 0.3888380428239164 0.028170548896945036 0.1740873381681389 0.20954979274080685
Ni 0.329488803666058 -0.09760774620665165 4.664167482664597 1.0384438842530244 0.5451821136356998 0.6726553514897254
Ni 8.448586396031011 2.2219021029275754 1.54946638559081 1.0389380502806236 0.7560516536291948 -0.9491828958026621
Ni 6.752913133675767 0.56336328854691 4.84096064581515 0.030159554302515802 0.20261861283861232 -0.31531057861840533
Ni 0.8488346948391946 7.647687555898762 2.5016785165684343 0.13289929396560338 -1.0147131162949878 0.02814406653438379
Ni 7.675316549956722 3.8231778021968434 3.7311201539170793 0.20643258726806385 0.1356822560273792 -0.4149056020049242
Ni 7.598504346606659 3.7134537971301818 12.579443195965554 0.29530379647917526 -0.014636004745619956 -0.07808208901540746
Ni 8.043979127347695 8.70683199358579 6.913129800358777 -0.954633120283956 0.5585958159384444 0.22957251571963688
Ni 6.67437299323804 0.7028816088345112 0.30970932381570443 0.5820108524282751 0.2697166920386903 -0.23373693150997166
Ni 1.777093297939077 6.476362202598548 9.241703219498142 0.7466272749915013 -0.030897460909804855 -0.30695860710928424
Ni 0.28258161150661326 4.883888182869568 1.3116788431801858 -0.8563539874953834 -0.5712788107227516 0.5013234645795367
Ni 6.41639738585321 1.9413823163521278 6.907558103218293 0.7940129633643164 0.17822707136812532 0.9049961739831188
Ni 3.3784949926209875 4.075627610770083 0.4230862958817561 -0.9243632656558209 1.0475008522489702 0.05946370258327179
Ni 5.914890645175737 5.349261239135735 4.651720035862785 0.05015888024257813 1.2187201248406945 0.22163114938537315
Ni 5.494164963346555 3.054803777870935 9.095481043290745 -1.1643250950295818 -0.21882813271893928 -0.401286982780225
P 0.260421718324556 5.688728879483052 12.426965347520472 0.21147889144271964 -1.5430565611067941 -0.0043305090545538326
P 3.9667045765409323 6.030995417925491 12.499569304088288 -0.09732576773636788 -0.13792965730065923 1.1036748283373767
P 2.510539593946111 8.495042704606643 1.3079025806698534 -0.18869300389645566 0.37353835191204704 0.9601972446352949
P 6.149881089425705 7.6219214940134385 5.754460686258469 0.28965971081952047 0.16202166525285644 0.9670507772220185
P 4.682475516088737 1.0583974648835077 12.52801996823012 0.46561675520654655 -0.06614754236135059 -0.21999335667163405
P 3.74488065291207 6.253107331068963 8.215201493324997 1.4344683330827295 -0.5053863217950005 -0.027329798163204543
P 4.67385382999508 0.896308866355529 3.8992997306790738 0.6497643058241648 0.2864502027432873 -0.108197163233233
P 0.1522312574231957 5.709743114377298 3.441561996419023 0.6125213623123065 -0.752601233186749 -0.29487159403776314
Ni 1.4663616113465046 1.1608497347062505 2.8563331039752984 -0.5248883963836702 -0.5236496388805627 -1.2218774395227538
Ni 1.8400820045878277 6.36865412413416 4.671412218891522 0.7519309465926018 0.6654886585379571 -0.0690027524219586
Ni 5.994285754484963 5.695055649132154 9.118045021760489 -0.48335042504088377 0.20487604141422136 0.25667477125306765
Ni 8.535757222234725 2.3973957133934474 10.235380440776302 -0.038712071858217206 0.041039177329497065 -0.14136156580034365
Ni 2.3273962619983934 5.184135251195846 6.961101653755048 0.010967554755097239 0.31201288170374003 -0.12475172515780451
Ni 0.5804194675497264 9.165266302484305 9.147576546549347 -0.14637907361959304 -0.14696811335384366 0.33834406339910117
Ni 1.349716858256855 1.0678741198486648 11.455522716704722 0.7251819606335317 0.28815304436700695 -1.0584452670756157
Ni 4.198905122368109 6.843422838314499 1.5516929045256438 0.1482562360376479 -0.34175051797748884 -0.12864334690272683
Ni 5.538551347285923 7.945639707780486 8.080886783579517 -0.6987047402786096 -0.4225608045573368 -0.5127661591988395
Ni 5.357054955374885 2.721500913070752 4.953633843504871 -0.43537569693381795 0.08832253579649305 -0.7069515536684341
Ni 0.847870829932482 7.223775990064199 6.788944221822494 -0.30491792253017164 0.12839934921272078 0.21736388946858695
Ni 5.166747884251227 4.693518114039589 7.029293070978687 -0.4273677390276769 -0.3881985250273831 -0.022598711236122372
Ni 8.34414519862299 7.185446385603987 9.325331774672145 -1.1880404363686505 0.06249169077631819 -0.21287525756961403
Ni 4.544204550386293 0.3124092255151794 10.337528521674237 0.5865768745324027 -0.2692214975698267 -0.1386631930325741
Ni 7.970487803087987 7.0514772632760385 4.642631266775118 -0.4418636186510068 0.015963722418107992 0.12544977966609364
Ni 7.311954779569051 6.212752800334146 6.992345816188605 -0.6555981388971226 -0.522978323845151 -0.20783229582906784
Ni 2.3716386511804566 5.266770242544443 2.5175908372179063 0.44619232793334773 -0.18791241697668928 0.2461892983407115
Ni 2.31174583181377 5.04095946407269 11.409933976541854 0.048728575553954795 0.6303630184794177 -0.1276688988045995
Ni 1.2366629744275073 3.4036760758047566 3.73454542920648 -0.6944634485037523 0.7781466857560211 1.1228195195866275
Ni 3.623043088887097 2.366517837623786 2.6305529243894723 0.3468387311336736 0.7770997325487455 0.019943018780830168
Ni 1.126299992625303 3.400868178037303 8.073352257903515 -1.2803458680722917 -0.21809562542828892 0.8316595700724968
Ni 3.527457569053352 2.6778615019349057 7.087973634482308 0.9148015901093148 0.248399675728469 0.3910370229174427
Ni 3.9913906777464647 6.84899363548775 5.943148716329675 0.6700389969128008 0.09386917664633512 0.10258393081151365
Ni 0.8192356725078507 7.386670059265855 11.31333149373464 0.05290404708788308 0.6762834351606158 0.3865139382361085
P 0.0654879156552313 5.588319535279578 8.080807586463 1.266590209049096 -0.411154362492608 -0.3539781703919323
P 8.40628793607257 1.786029972564339 7.977829735776092 0.2668522260067017 -0.8531480789635759 -0.19035265098706572
P 1.6972212059962763 3.1364128065737313 10.232337651560995 -0.02237091149603244 0.19160683510914098 1.1796239301701814
P 4.058528233340075 6.155118898722686 3.767632724533545 -1.1686892855355486 -1.019583814123728 -0.6922947229872077
P 6.914025267755769 4.136501394420912 10.387292209831726 0.2979114093053515 -0.49785118976022 0.4836561292067606
P 6.308023331636285 7.624675393746903 10.186103634891952 0.061135948079372136 0.6702099752730264 -0.4831694193783292
P 2.3678497891288597 8.439838714524713 5.686624756091928 -0.583898299258975 0.43309564265038963 -0.24272730793404004
P 6.9710381919763496 3.8372532897234395 1.572016864552058 -1.0765502042064428 1.5266776055281384 -0.22360215706881492
Ni 5.289458416492364 2.904383254520854 0.43972489008838705 0.5609044094669631 -0.5861665264678614 -0.3957192588844604
Ni 1.2692867866294963 0.9325640463433119 6.981873797463575 0.1825138716689373 1.032312831654622 -0.6676784671004243
Ni 6.913080302160954 0.6261180037150395 9.095033759575864 -0.3174759617008403 0.3648444236824749 0.24196111919197685
Ni 2.6725876939485973 1.4694304996115746 9.238541634608056 0.37598938455570086 0.042926881270513174 -0.6895228166690254
Ni 6.2027271653567615 1.990817516469514 2.570989493030122 0.34764991418105934 -0.051341330586453515 0.7853630009988023
Ni 4.183812671868044 6.787669868220342 10.497699290028356 -0.4939909354738654 -0.014513106014510488 -0.9986570912733898
Ni 8.127334092482819 7.270808277669053 0.2753737739362483 0.19627852955319747 0.04789528101938203 0.16169873469579893
Ni 7.572540291930041 3.937158652276344 8.272538405749515 0.633249081777961 -0.2905781088687318 -1.069622623848674
Ni 3.1326779425561244 8.455723136189958 12.295812222665077 0.4714449318525494 -0.731662683261869 0.44062434692726693
Ni 0.09226374077615755 4.828945183285253 10.246101750424916 -0.006413359725511536 -0.17202865586689728 0.18949133142803493
Ni 8.682514878945852 2.4946191735915404 5.699757977925406 -0.06966018350029939 -0.42822237371848826 0.6867992470902753
Ni 3.5543485899801226 2.6206865836123576 11.35004115717517 -0.46600113512915875 -0.5135326050512188 0.03857374650814002
Ni 1.0819226083582663 3.366948413019566 12.635937739059834 -0.1890727558333776 -0.32719087499575905 -0.04288522939930033
Ni 2.920609663734698 8.35500780312721 7.833162702947591 0.4808320294944041 -0.28534488549425047 0.9695959122413752
Ni 5.6119166761329895 7.736631317551798 3.5417742477984344 0.13843822150596158 0.049215799603018466 0.11050447121017097
Ni 3.1172795031967855 8.301459752754289 3.552824945454385 -0.038592515561217414 -0.17269405736503807 0.33061172775184994
Ni 3.2990098865884447 4.27764325559713 9.223934266446664 0.6543503825329504 0.102142729509037 -0.28550995031720505
Ni 7.22793383868139 6.0884223270733235 11.499925300054288 0.733710309819517 -0.9131609691820984 -0.9781975378674572
Ni 0.5734006230983247 9.104428517522804 0.3694635482284841 0.24461141233063033 -0.11723381951420454 0.6488554208566502
Ni 4.674060822458706 0.2340319791466547 1.7198985803373996 -0.470808326709815 0.3611392069167458 -0.7432897259778359
Ni 5.937209832558064 5.516808138932818 0.27911223782278793 -0.25349123131876344 -0.531056215757279 0.614634037779935
Ni 7.830821888174147 8.854642611959713 11.236881077212306 0.3032744733894777 0.24394626794280566 0.5821736032583844
Ni 0.16296066677690918 4.977817762994302 5.690510814604705 -0.6592169665966324 -0.6290705249202392 0.09566560642512556
Ni 7.929683288736588 8.974383252331426 2.400373704967968 -0.737245319555969 -0.7526716814133683 0.19919133232461825
P 8.36507843646625 1.6718241306765487 3.6909726156458866 0.25928135563797927 -0.43788432228828456 0.10811951591776219
P 1.753793146272608 3.086572621201424 1.6832015164381362 0.21460021068052076 0.43467121466762565 -1.1780992659955387
P 4.747687141803389 1.1667175210664429 8.223446993115195 0.04809659839691072 -0.3111204517964577 0.6231040229241591
P 8.522518704234967 1.6482899875294585 12.404178177176904 -1.2557386110465727 0.07367727507949247 0.33887165376779704
P 6.30953527658799 7.691713952944866 1.3225405477171734 -0.5700328541307925 0.6936913462244182 0.13721283373929272
P 1.7750593719921393 3.269643955770489 6.034732981844798 0.20733478736735902 -0.040413370820040075 -1.7056963195596238
P 6.954739785383852 3.9439354055420264 5.915777112900398 0.01055952068340117 0.30458265067793994 0.6420553672156815
P 2.4621033574575306 8.397504255876944 10.22735813285993 -0.6337820714632956 0.5505246088945357 -0.7301714434283232
