# total energy = -340867.46754516644 ev
CRYSTAL
PRIMVEC
9.28221707175457 0.00000000000000 0.00000000000000
0.00000000000000 9.28221707175457 0.00000000000000
0.00000000000000 0.00000000000000 13.58546294539183
PRIMCOORD
 96 1
Ni 8.480409792121373 1.384024962324839 12.380064998850658 3.2664279293486778 -0.9005810756345587 -1.1110415531150928
Ni 1.2598660280432452 1.9211218832530588 10.746196171491645 -0.03918901149463573 3.0524062168794464 1.3873145582150623
Ni 4.083961978798805 6.090359589417669 6.391933249663513 -0.10725691080715076 0.3868145001956629 -0.9574163394560478
Ni 7.883637498249347 3.9469564562213284 7.455280820982568 -1.4578028940436119 -1.8156145792490217 -0.5288622934297537
Ni 6.267250798344428 5.926918312890283 7.729788464745779 -0.35527426349553654 1.2232671207814287 2.0748650816490652
Ni 5.919093403978846 4.6504742453264845 6.145805056085151 0.24882647885324247 -2.609772295721318 -3.086983183523367
Ni 8.287274703485224 3.6378679131110716 11.67113567724803 1.4449214100952534 1.0142297489006662 1.053670728505108
Ni 8.052016914208386 8.293475224425723 2.194921293860941 -1.253971748954137 0.19908540287437326 -0.20468809377313135
Ni 1.4733663007264797 2.759927984794984 3.011136335724745 -0.6689249379130158 -0.10981490134231409 0.7959878277025001
Ni 0.03809329025106407 7.626176645964017 4.114900536204156 1.6356427572756476 0.32000515588059725 0.3841526370927836
Ni 4.15881377649967 6.279456913668912 2.0266114945292273 -0.9643045819354489 -0.47747134055228735 -0.038773007003139674
Ni 7.372772122497546 1.3118185964623603 1.942721602158058 -0.20210799175078095 -0.9585429968613233 0.5143011077861271
Ni 3.6088145739737074 0.4909540921148799 10.699408228598418 0.33533098760439023 0.7412181881607881 0.9374085288755534
Ni 1.1502801744152178 0.6052348910897698 4.520888927000256 -3.002993727884589 0.4657951897659397 -0.3466852362749449
Ni 6.883961294282607 8.711407043805863 13.363761866291844 0.7525585528742716 -0.30860771267693304 1.0332011477968464
Ni 3.155981618760822 0.2947651540933661 4.620959580005373 3.5219032809770057 0.0679354874997088 1.0234582094774696
Ni 4.472441323711579 8.269842700002805 7.4962543831615305 0.09474232327990781 0.06525871199849406 -0.2279339516749494
Ni 2.4281165745255358 8.271708425615142 0.9673620220054262 1.7743242051406671 0.9538062535072863 0.2511337868301804
Ni 1.2440027192299048 7.477373425609035 7.880722882118633 -0.2847062234689871 -0.17850012252385386 1.4066803643361838
Ni 1.8512917649366392 9.327421373470782 9.41498423909967 -1.445522534014362 -0.8943371516073758 -1.0458265498703407
Ni 0.6550414109438498 6.773902047588763 10.408977869833217 0.10907519496281215 0.168769011279019 -0.28238297465244916
Ni 7.397824826117912 6.486608149940019 4.70845004434184 -1.0177729861672344 -1.8554854473020306 -0.12310133403857508
Ni 0.5184266697010965 0.6643700390055277 1.6771388100180338 1.1274696167641292 2.381530582997963 2.0683432213701476
Ni 2.536783488672861 5.442312328965832 0.33547417308849076 0.7704130645571894 2.550753393984949 -0.5338602608649774
P 6.014913729830289 7.729506285349685 5.839507675619815 -1.802608653907657 -0.23684873766607595 1.0459445635054436
P 0.5929331689304249 6.405026744930978 5.948789072531005 -1.2138627967483933 -1.5836902754677562 0.21676533665263958
P 5.800772984175655 8.350050336899281 2.353830992060255 0.27469923285494624 0.16743949383431808 -0.2861830651248297
P 5.498024195260549 3.6990470052051196 8.974053870716126 -1.3534423309476498 1.4712685326302144 -1.957272079023229
P -0.1566708274645118 2.6410970430580694 0.6182699083902813 -0.25870311453700606 -0.40553753052646285 -0.5250658025017989
P 9.336053835259202 3.602549077514371 9.430566296738615 -0.3814938593136978 -0.5032667043488365 -0.3356418339765897
P 0.7932202057471931 9.422842563992225 11.560835092912791 0.4848501495148617 -2.653019793556044 0.8411891068294867
P 8.24970957138014 6.701881326065821 0.2934619308298243 1.4429378040063214 0.41267157046808284 1.2575113866762795
Ni 3.0602448328621703 3.308479161472567 1.4447055993672335 -0.26015064561681 0.5986114370994335 -0.8143807283873911
Ni 5.019665143361481 5.754909550093317 10.694299296374393 -0.5016926749934972 -0.6991343716168604 0.3333468672948259
Ni 8.362442096563301 3.3632535238526273 2.6091021693607592 -0.7641231177834195 0.633914740386418 0.8277378664205873
Ni 6.150146348965197 2.9011661983138786 3.8600916133090966 0.7506037431407461 -0.1641644226274721 -0.10884842366398674
Ni 5.315962791477715 1.027476443812236 6.152503103855605 0.019688993788495125 0.17914829763081405 -0.10765157514240814
Ni 3.09669609893004 1.091885747414208 2.345163257847325 -0.5495450185900859 -2.0767347878679527 -1.3694222513156737
Ni 4.4995361150668405 4.758881257398459 4.059105129956649 2.1372274459363707 2.339302784677004 -0.8827874990965635
Ni 3.1398955367400383 7.285899853811733 10.09261299683485 0.6428971463906864 -0.5023678466836509 -2.278936110663488
Ni 0.1904321070525062 9.123778815216905 6.670109225575953 -0.3481265967071618 1.2744621555980051 -0.5769064413221742
Ni 5.220968582937208 0.5712916800490302 3.8191041278046685 0.9171281813599623 0.1436498476138881 -1.7558390018522858
Ni 6.929676212893318 0.22498237508352806 7.780870361212471 0.7350737658259469 -0.9540844468693375 0.5118199932354863
Ni 2.5987608514269134 7.7383058270436855 12.248014323695394 -1.2569853389694805 1.2815607143159993 0.5630679927771851
Ni 7.390863163385317 6.166362382023656 12.072123737758734 -1.603662347714309 -2.116562718498168 0.45589824236720194
Ni 0.10394133748443928 8.575914522595603 0.13108161170288665 -0.03442912821214716 -1.4759109164982323 -3.0119247118256323
Ni 2.080451137659724 1.2058528074552823 13.164992471950784 -0.1733751425924627 -0.15901887387079067 0.39399610554576664
Ni 8.60122712829132 1.0102857779712138 9.736429269449435 -0.7957669699409456 -0.6946853347065713 -0.003668964211154972
Ni 3.825470800429051 2.6602833855491026 3.745430243438158 -0.9664967044907613 -1.2179863319984636 -0.0313574312653589
Ni 5.090367790073719 8.277955357640524 11.855435951765667 0.8936882051694673 -0.4034518516420277 -1.4645481831872456
Ni 2.5376560170686795 2.3182429721712277 9.045649466701533 0.8916277230960129 -0.6110866867483089 -1.5734146045733612
Ni 7.331568361337558 8.990235559571772 4.690109311817394 0.7092357217169205 1.346099003208701 -0.13240281394515907
Ni 2.360699832623083 3.672054318236603 12.425780845683066 0.31393092466205935 -0.5953422794298585 -0.8818287347277199
Ni 4.3906835565799796 7.337341900297123 4.050573844333277 0.5935052262211198 0.763058423964331 1.490150714246698
Ni 0.44184002564726854 2.921030142644217 5.211695648177391 -1.2432445923446203 -0.181625555526713 0.4330030829365833
Ni 5.250541726225273 2.2671258032800243 1.564189080957616 -0.32808639022683495 1.0487735483138068 1.2917181144649754
P 7.888492097728209 1.6477977221543887 6.450595004513454 -2.2699950994201163 -0.6527550130213725 -1.4733200158426045
P 7.717077396817758 4.135227663161637 4.7246976369380205 0.5203514277452651 1.252479737789643 0.9933199953311925
P 6.521713494546253 0.9332712237147556 11.080806170179596 0.2643736825592221 -1.2306027352108937 1.2221034394906307
P 2.5462235033382603 4.936134472787313 2.85887084843742 -0.6947714666624745 -0.023675232129752775 -0.32385718263683577
P 6.063645368958456 4.602680110112972 2.1675610311001434 -1.0854570197777693 -0.19071286253996186 0.9060762944211751
P 2.5585038763985586 5.720936635958252 11.538758268055185 -0.5109093084957589 -0.9534424424099643 0.7522654471138851
P 6.159103688347803 4.180812630734671 11.784043636332052 0.9758714608374418 1.0184216754948268 0.23131160989793068
P 8.667260819864232 1.3840156801078622 3.6667838754371793 -0.033440024826000475 -0.04776235498594354 -0.0698175350137701
Ni 2.114442616228743 4.551832125514096 9.765489106138684 -0.10683139323395796 0.6863816999368824 0.07781212318347246
Ni 7.400256766965833 4.514972441899248 0.5197187543042662 0.8000907941272801 -0.9295972603612506 -1.1437948362867139
Ni 7.960846979062317 7.2686534946688495 6.781468910868246 0.7836038522158504 0.3798342122230878 1.5531738520464542
Ni 2.5086119601482917 4.363477378620996 4.971804176185736 -1.2624183370595936 -0.40385191529392384 1.6081692344457272
Ni 9.161956573642458 5.545883305992897 8.140898782869675 -0.26707462643015295 1.946798176075099 1.6084510273522041
Ni 8.024541551957077 6.025913156947789 2.562435823509928 -0.4974588394178077 -1.5219141227012243 -1.565992601077677
Ni 0.39464552165045813 5.145142152453779 4.043536067421472 -0.01442157474196871 0.03207631170925443 -0.019845831081333563
Ni 0.7746464895766287 4.5346693063240044 1.329236676619314 -0.929278443569251 -0.6516998322839809 0.16144419548283165
Ni 7.050577089016056 6.543350342319159 9.85970360845314 0.8567514800441179 1.2156962504127065 -1.3498417580805848
Ni 6.931476962986815 2.8138112543452722 10.136888243592459 0.15891422997212631 -1.1896998263489447 -1.2415695186350422
Ni 4.98336239276524 1.4011135237791166 8.713688612738759 -0.182215366591912 0.2799118874041373 0.26373682030617157
Ni 0.9170264157836688 6.974026645608438 1.8803915151588877 -0.8713931412166928 -1.023656698641521 0.677794986709136
Ni 3.6430752368350534 3.833425660378164 7.618659906656208 3.072062300547477 0.7072274330376401 0.3981728626312756
Ni 6.0862290028629955 6.58254914461216 0.8201952565034535 1.419711229378213 0.30621350141314363 0.2779642767594633
Ni 1.534563957254481 4.284671356488017 7.327033998344394 -1.3987595668272104 -0.33049602810959205 -0.9009739401976031
Ni 0.42214223300081444 5.481464720173949 12.53813187174848 0.29946101318065843 0.33894390176662914 0.4654349782130436
Ni 6.731176002844581 1.7780922018576433 13.383908918239976 -3.240917958003031 1.589963510070978 0.024077609774494017
Ni 2.5375817593328653 2.004838198166762 6.428220220490893 -0.47704787986162367 1.3923179249669246 -0.8932660300303842
Ni 4.781929002151838 4.735128064154844 13.370309542147277 0.29031019991932583 -0.7318922827741717 0.3323541643642534
Ni 2.13124342895674 7.762300357928697 5.724343209588735 1.426253144261789 0.400499196771607 -0.6874281389235257
Ni 4.5298147068451415 2.920204025333282 10.892348390678054 -0.5473189574730444 -0.15389389393939948 0.46248155201167446
Ni 8.123796298089932 8.110151439134045 11.404194896764304 0.8817240908290558 2.4835838381169872 -0.9705148245112187
Ni 0.13538020638483986 2.0887680040709315 7.59576810314804 2.8708415964976557 0.7419357830531028 2.375374590698896
Ni 4.719710301756389 0.29802878158240687 0.2236670849379164 -0.760067202546491 -0.11455164469635111 0.9136775038072007
P 4.076331996443881 2.4045026145365727 13.35179244750027 -0.30046014386913417 -0.2966063173406827 -1.4416375971376592
P 4.254095733766459 7.269071194432805 13.588179882583184 -0.9877887811003183 0.27640927356751754 0.24387556260587032
P 2.3749387534654844 8.059572638827495 3.269789952891593 -0.2393607054546523 0.2721543549459055 -0.18829602556835312
P 5.02328520798243 8.420660161441752 9.593279847455019 0.3876488231715001 -0.1318554260821213 0.0860324542107357
P 2.534156621268428 9.45180308095982 7.248550997362207 -0.40167650490915985 -1.685028249687311 0.8575356665083103
P 4.411782035768232 3.003818235860241 5.748620848091539 0.7668582573263955 0.5288147280212699 -0.06614754236135059
P 8.596845921878273 8.154381203028468 9.085984412352493 -0.22164606178370863 -0.6480740626059355 -0.7306514683885351
P 2.855154248759911 6.097135607810727 8.115466436574957 0.27277399080777537 -0.8454851631016793 0.5672843448513778
