# total energy = -340889.91664446925 ev
CRYSTAL
PRIMVEC
9.07100252766667 0.00000000000000 0.00000000000000

0.00000000000000 9.07100252766667 0.00000000000000

0.00000000000000 0.00000000000000 13.27632911022397

PRIMCOORD
 96 1
Ni 6.461565170619736 1.8506568068606606 11.627740423154291 -1.4759811076145355 0.5398252201991607 -0.14347167016481097
Ni 4.578679092785412 0.30910800797468524 6.152303862707124 0.28657721523945484 -0.24640655655784013 -1.5873049894022084
Ni 2.598914710982968 1.607454165691254 4.724952632374132 0.6117713715201593 -0.6520608151678253 0.9154615922908169
Ni 3.2144366392658092 4.358997560435232 4.477946519963729 0.6371113929468447 -0.1527114435955241 0.34936149755552737
Ni 5.172621106729287 4.5838949190758305 2.814847198105618 0.8112051588728868 1.0716591946627287 -1.8008358782779503
Ni 7.497546194926014 5.935964087583709 2.2793995421335054 0.18018393798418 0.1743066532677966 1.4585320589001527
Ni 5.021951759453025 4.460139235458128 11.658873917056855 -0.6718922480714559 0.1295717722542672 -0.20778061665552605
Ni 5.763896246013366 7.679274653886437 12.527862325548423 -1.5739385953976313 1.8916842658200905 -0.35100083293116324
Ni 1.6262764953479814 6.755102803242242 0.13411113977968778 1.1695899429729468 -0.8064709866220112 0.5485014078169199
Ni 2.6940695245246884 1.573374410259772 0.3825722409500606 -0.24749567585696086 0.4541277807303405 0.8781065486811265
Ni 0.8030041239667638 8.716534689509146 4.5580824750897175 0.2688065215195951 0.6530067240208625 0.11053840977189996
Ni 8.851665409941083 2.3362003439862744 1.5573395995926893 -0.6371648718925995 -0.2064636976163154 -0.1922699226144366
Ni 6.946165323511953 0.9414974649306274 4.874337525732613 -1.289042110294709 -0.7869406298985674 0.30586485982447326
Ni 0.6683142542438957 7.135912548456253 2.1199113664754266 -0.2573864526081116 0.7166510403443851 1.6264016982933538
Ni 7.568145805392669 3.899306379705605 3.756484356470806 0.6330655050122452 -0.17123778453448574 0.24399666156476688
Ni 7.473308476929495 3.811535361990668 12.672043184919403 1.8234055360483499 -0.1596955882228411 -0.796333383967377
Ni 8.354964540055095 9.045612508924451 6.523748705204218 -1.406011363293617 -1.0695017820000936 -0.037898317707670215
Ni 6.901699270510855 0.6011362258237549 0.4017692029994737 -0.32298069356915343 0.3307929905247206 0.8491893514261439
Ni 1.7949880660879685 6.355751929441074 9.30261758710864 0.8956443004545737 0.8586996049094243 -1.2604630131054355
Ni 9.421505770922103 4.859009346140354 1.133858045621484 -1.2392588682239947 0.21232684126531173 -0.05065998824871275
Ni 6.4795166840610205 2.130179741015868 6.995337412477344 -0.29474998085823434 -0.3183473085622001 0.09308601862340744
Ni 3.3465467159504247 4.3532102610034284 0.41925355982518075 0.15665834405841408 -0.08329860021934041 -0.13689633094013842
Ni 6.091232432997783 5.637101776643855 4.734630484668475 -0.2673091110384622 0.9454049168174687 0.6197826718604099
Ni 5.13054979832066 2.95589493330145 9.359586202502928 -0.08659604002368958 -0.4256157893335767 0.2075664437621909
P 0.3130411945477729 5.6063510790359965 12.234004486546695 -1.2213195101367547 -0.8410006449677644 0.08779648808969395
P 4.094341998958278 6.294513593290439 12.775466217006716 -0.5330488207072754 -1.1892352280077003 -0.9162943726047574
P 2.487450235406165 8.361867572762936 1.456997079867507 -1.1092950027376314 1.6386591755044684 -0.7407219652506597
P 6.431966490296892 8.071867631015671 6.10915582633211 -0.7629596936029376 0.3020280025768863 -0.6609210937719328
P 4.578152974655248 1.0701787027669336 12.669720101244662 0.9008410141641647 -0.03508733062143635 0.31249213533300374
P 4.102315409930935 5.883433913587512 8.448975500213821 -1.1489540118901505 1.4387759593191478 0.9427826487032731
P 4.6449518351815815 1.1276888569951995 3.921097648396861 0.34190041329179177 -0.4732501033820882 0.05598937088142615
P 0.21234399863484227 5.62984497484849 3.6863854653280312 -0.15246204658887935 0.10195709586079216 0.031975010244699766
Ni 1.6159446237918307 1.091386706013887 2.678778536041631 -0.3140399394360978 0.00016557904358681163 -0.8963485256104499
Ni 2.038190707257375 6.571641782853176 4.6623146405772165 -0.4096140145886817 -0.691299448953474 0.6722555449481454
Ni 6.251390048621484 5.740275356169454 9.345207756845637 -0.9894106329744574 0.7718996764050449 -0.3439210432662464
Ni 8.289725891914767 2.4845837986969954 10.31242786284016 1.467788287391098 -0.5974986636512291 -0.22389731971173052
Ni 2.583820563248609 5.310155642755938 6.843389960984874 -1.0209138457890612 -1.1944360554823494 0.919140840914617
Ni 0.18380934687524353 9.168787648398524 9.315057559586345 1.1129444265647608 1.5182500435860755 -0.020913096003583338
Ni 1.3065599502486973 0.9280270265979815 11.67835026597539 0.35247793169732194 1.4214567513144098 -2.3728878197213006
Ni 4.199275352919253 6.969368947252632 1.613100864588272 0.8594966468894231 -0.7643162076308321 -0.46719515543725987
Ni 5.377807177493226 7.998809778940837 8.325811245942441 1.3269311720309986 -0.42899190489466116 -0.36525965684302253
Ni 5.324079631200794 3.3120406234134654 4.761196728941081 -0.004625671697469453 -1.6749137869611284 1.0867304871735541
Ni 0.6886405560727125 7.083681717534116 6.7344844151411625 0.6746050190169285 1.0685766990826628 -0.2795732731177959
Ni 5.1612823539240305 4.485102633634183 7.343164086431199 -0.11917345973907863 -0.32176147645007164 -0.5910269398839564
Ni 8.437147820387603 7.156240664485519 9.476152209741873 -1.7291920886887187 -1.1674055337271183 -0.5999527816186764
Ni 4.688646852991921 0.4129419564636623 10.616880632463117 -0.07891872598408989 -0.16386900287424036 -0.3459303603867913
Ni 8.033996196646111 7.170944759123377 4.828388363864589 0.49403001624191695 0.02196596274812991 -1.039916355033493
Ni 7.184161209393186 6.316565199746105 6.959756406174447 0.2074132060137783 -1.3874256298716299 1.011060607144065
Ni 2.3193282798120514 5.327762458111942 2.4891918678370524 0.3144364035435681 0.08270647516129627 0.1554488971313452
Ni 2.4876679394600254 5.553666698001648 11.406690076565459 -0.09737024782105812 -0.8591608608165591 0.9525628680184886
Ni 0.9153457654605816 3.4850609202194502 3.8149261026295522 0.5036670251110487 -0.22400427760324004 -0.04940786100916652
Ni 3.9016648402890985 2.730852438624944 2.6594872355688777 -1.6860705749088962 -0.6040583191466178 -0.9968930573944315
Ni 1.439540843148757 2.9468057890527555 8.041352779466163 -1.4199799096585675 0.9575086420595382 -0.8572376756519172
Ni 3.7541431307915767 2.569062042597286 6.774897544339549 -0.06526308287386826 0.275534584272048 0.4683673213684902
Ni 4.1440238782497945 6.865451545543008 6.333778333604709 1.7815518332373577 0.13204954437079836 -1.331380980272236
Ni 0.7065086162933493 7.532805180649243 11.350942418073242 0.009951197675440927 -0.12027157789926383 0.4956084164726304
P 0.05170199149130084 5.619068624182373 8.081075605393764 -0.04790633676297556 -0.3635159346790384 -0.19155541304591525
P 8.410216014724554 1.5327544622102178 7.986242812431714 -0.0006407189077924449 1.1559646388800286 0.36278162761617516
P 1.3703200250232213 2.8512609224145344 10.242010579518613 1.1138232296252881 0.18811630545737923 1.246501922939653
P 4.157358251548777 6.28701187443448 3.8055666425139805 0.22138406637157357 -0.7809461028780292 0.20451891518511872
P 6.750249817041592 3.9793398325062346 10.44722295618906 0.2006020966292158 -0.05643699994180603 0.9301274218331078
P 6.394584890048519 7.757121995146212 10.248170697142653 0.1042669749408914 0.5801509164014008 0.7652469469752176
P 2.6066704179017637 8.398550705838506 5.847001140173884 -1.445092645565795 0.4185892215040985 0.24455767627455946
P 7.219383911107437 3.8152544729107922 1.509691439004324 -1.7218341056617505 0.7439849522726477 0.9840905063131246
Ni 5.417420244293674 2.9326640965540385 0.36662451190452205 -0.5431283164304647 -0.4701452392045194 0.9647336990530676
Ni 1.269423267060918 0.7722606831607008 7.086532733539469 2.174805661300461 -0.18188575116663513 -0.2465435963563367
Ni 6.736153479554096 0.8975167105495948 9.306931755775986 0.016953340024886934 -0.601423452626932 -0.3108628272596969
Ni 2.8619012080469877 1.388416674500412 9.227035275109243 0.16220935578363033 -0.19990892721693315 -0.2762015284320856
Ni 6.314016248115482 1.963862914868351 2.840643314287691 0.9005749049869716 0.2883394493462002 -1.7178093007730737
Ni 4.046936941230057 7.110178115089441 10.447129524865945 0.5445349669700041 -0.2654347768338848 -0.7678429898371679
Ni 7.972512943434883 7.49016239909923 0.008653736140972508 1.9510731493013689 -0.3321695591572731 1.3608993014463273
Ni 7.504567150663029 3.9308008994974886 8.3650161176419 1.0972007905772587 -0.28463294702889047 -1.0828617482467675
Ni 3.055177052864285 8.30852100856476 12.467986453934868 0.9907668898920355 0.7998290558254613 -0.2785707999952105
Ni 0.1137757669486268 4.862928019109851 10.071104733335753 -0.1903336248236722 -1.4441477651540224 1.370046515163234
Ni -0.40118321625449804 2.4161340157622173 5.896203163446682 0.8695743428403991 0.2763115716473887 0.08735914344195922
Ni 3.3403512214176323 2.4933917418761196 11.473934323301984 0.1801993646031477 0.7981588672118899 -0.35814207196163483
Ni 1.1462753405935775 3.5750361914797297 12.538749342441918 -0.07536700407708956 -1.0212465465381315 -0.8169816563453479
Ni 3.1255680302793234 8.206517588328666 8.054934791126412 -1.7622410487238878 0.35732857492140396 0.45399125515247624
Ni 5.843902485807263 8.04307626989256 3.675698010483908 -0.5873888289107367 0.020765000461493273 0.44444732021778294
Ni 3.2223828372317334 8.191450653601038 3.4344664981021675 0.24903293843709368 1.969731130722188 1.2562602878779978
Ni 3.026521756774838 4.110515595959697 9.458998944498079 0.5323870187535604 0.45769827169041816 -0.3013641437406423
Ni 7.239585033105284 6.109238372452531 11.702061865841744 0.6009352001366037 -1.662070612449873 -2.442368540220942
Ni 0.6097291862496912 0.1262429524330635 0.3627838495543253 -0.24868635373095233 -1.1454735095407176 2.005066829909005
Ni 4.6680556778975735 0.36114290524834836 1.5446075408427216 -0.10936110163434713 -0.09565917866722234 0.2677135455657325
Ni 6.049324402629551 5.539198449422139 0.4324210266828702 -0.8819940566609907 -0.11008178185045557 0.6106449712251999
Ni 7.942705630060423 9.014353835190917 11.343906041632412 -0.6323702787174335 -0.29882183693476283 -0.050072234066042796
Ni 0.14889233793662143 4.7462749302493625 5.961469931693968 -0.47967708995435454 0.7403859220674798 0.0696100469886543
Ni 8.179903267744164 8.792948812414338 2.6931959870085715 -0.16668204684300325 1.0817620874246854 0.21682318647376853
P 8.613959796131665 1.7074528944313807 3.783063300146554 0.2470431617005745 -0.9469997721084141 -0.7470520212337456
P 1.7377409709247844 3.3244588254857836 1.6983873347885212 2.264400378941158 -1.1182324144365774 -0.6255789668272129
P 4.905389380614979 1.1319794410567088 8.078380610627011 -1.1699280430386563 -0.002191608334680097 2.0200494193607663
P 8.513806860353387 1.6623155872642117 12.59593021928872 -0.343372369851628 0.792776519854054 0.12980008621498934
P 6.583606434813285 7.7800081338083436 1.6111886973151934 -1.2654931193301755 0.42288887732071684 -0.6224327078887474
P 1.9521250379643487 3.3956661931028003 5.876714115125005 -0.9356285541569951 -0.439584849919159 0.6535055180341519
P 6.883212567937163 4.053758334917701 6.130398299387592 1.088342311745364 0.8570173321109951 -1.0186918984370779
P 2.1155119303869867 8.507729288849768 10.129108350086103 1.9073785366268956 -0.021644060632336915 -0.5278479932326263
