# total energy = -340861.2518891626 ev
CRYSTAL
PRIMVEC
9.33977259351511 0.00000000000000 0.00000000000000
0.00000000000000 9.33977259351511 0.00000000000000
0.00000000000000 0.00000000000000 13.66970126929165
PRIMCOORD
 96 1
Ni 1.4232598977372273 7.143104635493317 8.53228557167304 0.43006174092007227 0.017062611909241583 -0.9210730249403234
Ni 5.358694418334465 7.196602851838798 11.820696151070413 -0.050640190754370845 -0.14041694249888723 -0.14503464377655667
Ni 5.155432951447819 1.620160979614922 7.339604107157524 -1.2493172809012614 -2.0702918604560865 -0.2252736312339669
Ni 5.0549370003519085 8.401097260494286 7.447157190283924 0.7171112678102554 0.4501826800396634 0.021040879830699244
Ni 3.5263431494121087 8.38250177363258 10.6628996704711 -0.2850337820117349 0.35337704647282364 -0.07099381471005838
Ni 2.978210586408687 3.2482047271410837 3.2732922898026757 -1.206576033278993 0.9963430984282325 -0.17527467360802074
Ni 4.640241765722769 0.181733291489241 12.782646944073985 1.265870300163936 0.41771401798799673 -1.1610099146134198
Ni 3.6933382800436036 4.49705371495591 12.338586531020994 -1.215421913705397 -0.05218645219556819 0.3495504736378819
Ni 2.6645810289922665 1.5550440863955268 6.8929061423768845 -0.23674897886341809 -0.15522366849441654 -2.786339462888517
Ni 7.414705217079663 1.6759567799724469 13.009317616520741 -0.7010567854505539 0.6187858551647795 0.4342148438564974
Ni 4.654036609567441 8.277121121567973 3.9426429569407158 0.9077588243299206 -2.7812247673697716 1.945199464129411
Ni 8.901223393327356 3.0359583991992087 6.341934288561832 -1.837100259926623 -0.9785937448646116 2.4809535995829917
Ni 6.803379753972624 7.704817227576056 9.263450588507471 -1.1324701553025143 1.333990135760309 0.008157596110127887
Ni 9.35901233784093 0.24123044365153473 12.364736959782467 -2.9474905526109625 0.6534849492088617 -0.8652538610881743
Ni 4.366866627379154 4.9506864607485115 2.0198761532809817 2.631712290327519 1.3975107820217738 -0.196889423664319
Ni 3.2240240563801814 6.490544077210771 3.0453635500127394 1.1343419184039303 0.9754230604461137 -0.8210882223145536
Ni 5.232756927202749 6.0298784827959375 6.3163993508019605 0.43352116022358245 -0.25210309272198517 1.0624021948408349
Ni 4.31385407919882 6.563058070176259 8.831255422319929 -0.7252632074934284 0.2041327354902936 0.19494926921881264
Ni 1.2836676593469407 6.62596143733527 1.8031019036763467 -2.199154008237838 -0.22658386540495817 0.28354485617103425
Ni 5.920911358127165 3.3347283787165964 6.089003912016445 2.110500828574804 2.5412655090991714 0.13786178017720127
Ni 3.9095726908031323 2.820601927045909 5.163865831953814 -1.7066957073584157 -2.225592919155657 3.1215681205870887
Ni 1.1918203374996184 2.8084228638275937 5.004887961956215 2.6491446268713537 0.2335919212916751 -1.9683149671009519
Ni 1.9411409379154019 1.4389787346976752 2.1062279530442116 0.42647942288545265 1.0684244897755146 0.44951239344551613
Ni 2.7419330240644166 9.018951224513597 8.217267190099745 1.6889599806415496 -0.01728295545016378 2.1170201177505605
P 3.562319952722652 2.43248768468619 11.069436613903001 0.09608803867452484 0.8300145782699061 1.2396738442742261
P 5.5499542776785225 5.4640283715370375 4.24951332106642 0.6271170007382942 1.3953011759649647 -0.6210934202520336
P 6.140265252870526 5.520067005977137 10.480012917089635 0.8233158260934917 0.8287915044960822 1.107420668533054
P 8.821797968780922 -0.13107436595539151 9.571059728630544 0.7688788873008501 0.14212878298367135 -0.6453911164571337
P 1.339612896062973 8.799774785445964 6.743168109221219 -1.1955598846741475 -0.42475755509833946 -0.5756504574278861
P 8.88257186783121 1.399564895141472 4.9815123795767695 -0.5587295133028313 -1.083292922246915 -1.4707013472728347
P 1.6262038123620457 4.491496550373934 0.1020005884306275 -0.46064295614103895 0.060223720677747894 0.3474843351374725
P 7.625597278022569 3.304271380898403 8.148235064287467 -1.291019288625738 0.0621186237076156 -1.6794227305750757
Ni 4.065322735456981 3.6787775748615843 7.470300212330445 -1.116971802556599 2.1301911079148796 0.41191643746961315
Ni 7.850713812340853 9.1076977419219 0.7734424306105242 1.8054029288233424 -0.01172243064325078 1.5159131679227829
Ni 2.5482541636670275 6.426585315769805 13.549092951174664 1.4720655746102131 -0.07559120427275369 -0.6165266268169576
Ni 6.796823233743131 3.551560534910153 11.585386189147474 -1.1977903166665629 0.7661784576505514 1.3534420738373336
Ni 8.422270524540236 7.654868124745114 11.080522923749735 -0.28099509316598703 1.9292267428502388 -0.5184174439473459
Ni 7.198498825637355 8.598680145757669 3.9022755266217906 -0.5802054237884202 0.16713507522002186 -0.998079621503365
Ni 3.444872314708611 5.368071549830775 4.93638913714836 -1.1241770620557863 -1.395081603754991 0.8282466877362058
Ni 7.22255807935697 0.9189943777735152 10.513791137975645 -0.9405506740489609 -0.2591785115115278 1.381275551109834
Ni 0.631852414902448 3.6613402197783067 2.300569937282475 -0.6277433214683833 -1.310204603304937 -1.592276988695503
Ni 8.194426776679201 5.904977706401364 9.523913491498847 0.25298780931978365 -1.8188857938011256 0.4094584628474238
Ni 8.27082611496587 3.2572923256927866 10.073681448650678 2.3266159332379543 0.0016930714317067617 -0.39926892390893176
Ni 8.72330072898004 3.8672822013456707 0.18785831423354382 -0.11440637736773845 -0.3822507920843804 -0.8117070382099698
Ni 9.084759260891087 8.119484442887975 5.100507617878597 -0.9482400722734184 0.9620013877235691 3.57831379855625
Ni 5.649936541292067 2.6998853686895288 9.235604991054185 1.4278780814597214 -0.7201940205006371 0.7411274282191946
Ni 8.521141355237384 5.445479583537365 3.678502985552828 0.1929093559706484 0.47116853826271116 -1.2163799067432923
Ni 6.6821868672235025 1.2597391624410184 5.52383093425703 0.7246561700370487 -1.2492218929739776 -0.5683760352536599
Ni 6.421551178442602 6.632116347351275 2.15698307823385 -1.6997997515695304 -1.2621699684942131 2.3640663647749287
Ni 8.004119574120624 5.066247464736402 6.782727649226965 -0.8629650650539976 -1.4698958206524042 -0.14725067759126897
Ni 1.7101310072085005 0.909040982319713 10.520611973764243 -0.6337003103827666 -0.31474262193007735 0.8159809829949752
Ni 1.1312612532146848 3.988148196060558 11.63381757896233 0.5654097535364844 1.1807567582230438 -0.09378073069758688
Ni 5.488750749097528 8.71682826670221 1.7339063318469532 0.7317323601575397 0.4671478471390923 -0.7098990663325322
Ni 0.4055226441485356 6.858465731627241 12.820702780722257 1.197078635311519 1.1817736295233325 0.5960233646572832
Ni 1.9662369063721594 0.2581914703420714 4.80379238829068 1.5029373244884052 0.333185144905981 0.2796195529746991
Ni 7.313882373949518 0.9980574191505696 8.15006752763366 0.5342675236057252 -0.32474601299969236 -0.7060074445876099
P 1.1801176026740443 4.859717077507417 3.8121513927835013 2.4530620153790466 1.2508607141289811 2.0181406323738273
P 6.287011756924331 4.514603147308068 13.804347997072075 1.0236782959080757 -0.02129156238892462 -1.481606938441745
P 7.019567465870119 8.89977572860432 12.54970181252442 -1.2993188096303685 0.5034723926017394 -2.0693966023353263
P 9.157366651580642 2.401479640296002 11.89273568359764 -0.6969291364354255 -0.45971247390696957 0.4544486544048689
P 5.199002989724996 9.32452055834305 9.442878824166744 -0.2245184982354972 0.35679687078765004 0.1626083909942619
P 5.1616812591878904 2.235689340304969 1.6382726662659615 -0.3387533830223779 0.019386889167044032 -0.061129520321468914
P 1.8936108361377915 9.054190185804012 12.529648387190031 4.135669057219374 -1.9346949650536613 0.06385514678274809
P 9.098115135432645 1.5966807917845203 1.5455371320627638 -0.06139614371929426 0.36768009335905716 -0.2944980127484283
Ni 3.39126202109425 8.730641790091694 0.7998384953862921 -1.1797481144528714 -0.06659542853204659 -0.7838113402409662
Ni 4.104241567075629 0.7678497748934023 3.120054643926225 -0.669753347351582 3.318712854795323 -0.9193493573809972
Ni 8.387722706407915 7.052163271569443 7.512279687366764 0.7312291952688762 2.429193693401881 -0.44470648741644053
Ni 2.9707948071177803 2.0937434792681984 8.998422404763707 0.8833505706888851 0.8947315588323171 1.4530360687825878
Ni 6.9670405858549325 4.3302920786345815 2.1148672425203934 0.25114792789756746 -1.0811414231215508 0.18448513646269515
Ni 3.4074758659922524 7.517573470366872 6.099885680847472 -1.7170526251127074 1.5773746176623735 -0.7146496936436402
Ni 4.437662102221812 4.373778058960099 10.046533532196174 -1.2162950603389697 -0.05330642473262433 -0.00494166027599149
Ni 0.627569195276743 1.3297500964015154 8.264797291877354 -0.19514107351464458 -0.26018458417853896 0.007380865845103418
Ni 5.08810253216804 2.7958235108509784 12.937757214317976 -0.4415278325781428 -1.361298850877591 0.9499241448440608
Ni 0.9969646657789877 4.831324169391101 9.118032200089896 0.6314194847683899 -4.095420751222288 -3.1673736089569773
Ni 0.9233840708046563 5.119334731095989 6.101156823872021 0.9214244947424712 0.24241980399595026 -0.14070799137674478
Ni 1.0193334206929938 9.049473600738636 0.9821190975385647 -0.9555196366539673 -1.146493723275116 -1.5448799874687782
Ni 7.357555149723169 6.546087703713316 5.185655520978605 -1.625505925951962 0.9580514019368854 0.1313157515285674
Ni 7.709832685358444 3.1676211708162216 4.137203491853295 0.5486001381783132 -0.5491284998779575 0.3063340861514079
Ni 1.4659706769529892 7.107716237844395 4.3297821270611765 0.7009146034457348 -0.8888766427134369 -0.063589037605555
Ni 5.336960767944113 3.469800167262049 3.7697067970813296 1.6579547905092866 -0.980116352156725 -2.296077655439781
Ni 0.2741101784320221 0.008904539012531729 3.312851829808423 -1.4983975276365227 0.5368579100407205 -1.884597277066322
Ni 1.8564665612764124 1.9012134108768315 12.988827089837718 0.32362244091821035 0.3598906792216253 -0.07022196954104035
Ni 6.996535587115238 7.128441192814824 13.667760363465016 -0.4226680195591624 -1.8161159443654722 -0.2653458166645043
Ni 2.735021592483471 5.929606686237787 10.710224297255763 0.9105397295091673 0.8314348556562002 0.39672173200704575
Ni 8.053844522413806 5.663395153330097 12.083960985783795 -1.6574400556563973 -2.4400015826506625 -0.28332862639517015
Ni 3.262326463019989 3.434421109385533 1.0707488677917845 -1.1975419481011826 -2.2603992282015652 -2.5546946380208837
Ni 7.029514323483236 1.2446087311421916 2.2686923600812245 -0.36518586618229365 1.6166001388218998 1.410745278434177
Ni 6.311425921995401 5.35949763876144 8.349658463964477 -1.0633265064273172 -1.3755584461203987 -0.7739151641731769
P 1.6424830356668942 3.3539309507847372 7.5388952367940885 -0.11631207903088354 -0.3297334389119547 -0.4211898923517391
P 4.627791849104661 6.910544302566906 0.39099743010166194 0.9614126050996347 0.09151867413628754 0.22405132879109155
P 2.8429239830978816 5.8363583985294625 7.300030557493167 0.6114358425576115 -0.8554854688475009 0.01948150576337935
P 0.7622281658818197 6.26029066806881 10.353732656310592 -1.3802908185990614 3.3411233612800397 4.729784149110351
P 4.376262438420277 0.5147391407405665 5.5810650595651845 -0.4746418415232922 -0.21539493866767417 -0.5830220673016088
P 7.015532684190432 8.557884019885275 6.580553331848458 0.7995197521151586 -0.5906073358480345 -0.562405933713154
P 8.3340376946143 7.382184129559592 2.0981621255938 1.6251472570609622 0.2600161769214748 0.2567213082202869
P 2.425622951967278 8.479187097586564 2.637281808224772 -0.6912007185920805 0.6565455904120563 1.7472420042118941
