# total energy = -340860.41327172756 ev
CRYSTAL
PRIMVEC
9.31450591156374 0.00000000000000 0.00000000000000

0.00000000000000 9.31450591156374 0.00000000000000

0.00000000000000 0.00000000000000 13.63272092626286

PRIMCOORD
 96 1
Ni 9.268417607904018 6.424671048984564 13.571959593675556 0.37746596910122737 -0.3788391952996701 0.6108198062401674
Ni 6.211387495576514 2.972826980053559 4.1212803938721585 0.8657433991300831 0.14322510137164365 0.7984679138118764
Ni 7.272421478274467 1.674478019028667 7.972210983209104 0.1470773852381983 0.26891116541825943 -0.7585885611184355
Ni 7.762010531215068 3.6745445876851774 5.964765463071685 -0.8951673608181552 -0.5833748226553372 -0.33200963654064114
Ni 0.6512898047756555 6.705214648648161 3.7576141446053892 1.0079421161197417 -0.595798907351303 -1.5646360870497826
Ni 1.7416635492379544 4.647658950301962 12.00467383864266 -0.7324916069210675 1.2310326236594604 -0.15487939778112034
Ni 5.182432670793547 5.886134268156843 0.09891632560800592 1.5845006871841938 0.6318935961913311 -0.42036636800917926
Ni 4.405379340392941 3.7804970909612963 8.901062814347373 -0.4924978958681066 -0.5395174591507547 2.687469233483165
Ni 3.49440204585132 8.304394202930968 10.970468426950088 -1.28055849830373 1.1625302079126882 3.179193998630673
Ni 6.186620224700805 0.057643750485677936 3.651783661355022 0.6781022335369096 0.1671823835181895 -0.08733214685876572
Ni 7.478579434758892 5.4273110278158905 9.676136812269196 0.8019638427802769 -1.5893667570272434 0.7495092245249866
Ni 0.8383166978333707 8.40050127359497 1.524833032027923 -0.4084727018953869 -0.2758546866156282 0.4984186322279158
Ni 7.7094022025554185 4.280453188837837 11.996180872270163 -0.9513338807073939 0.6084127394605715 1.4038287538200018
Ni 0.3692195576143045 1.8460884735657401 2.8216870148747213 1.087601576924598 -0.7218387551929116 0.13442190125771689
Ni 5.69627669679182 1.8926330589609723 11.95852698264434 1.4238327077457542 0.491822724177953 0.7060233854272099
Ni 0.846870208493455 5.134528167554068 7.333886039032133 -0.6172879304630143 2.2282385843086208 1.3064214821134212
Ni 3.1382246592336944 8.204561329953963 0.8733737032470257 0.9158074056660099 -1.7462508439432185 1.6911868130895387
Ni 7.638472241021559 6.6067882660443145 7.765088975376189 2.370999344449336 -0.029135226803059498 1.515601293109319
Ni 8.980301315039236 8.609220719169585 12.39462469177711 0.876310118902336 1.4234215883502648 0.20874298056879534
Ni 0.14077664604521067 0.5524768701818354 7.741735646478265 0.07026953494952415 0.5469325206679032 -0.5477480745906632
Ni 6.519977072151266 5.952779557030743 6.059362652348338 -0.8352858539711744 -0.4549914142822164 -1.8589597790038759
Ni 2.437978743515713 2.120782563597917 4.11210560567638 -0.11348026600904326 -0.7298428564443108 0.24832665639868845
Ni 8.302521987268683 6.69021829433831 11.444723940471512 0.5248171768261026 -0.04724993412589927 -1.1928694823261778
Ni 2.070465603360766 8.264285941031455 5.6757791953668155 -0.72226324432484 0.6811055391396077 -0.4340405230621621
P 3.8625765159168264 1.1471093306341815 11.292609677987823 -0.6718662799295267 -0.22061762051919426 -0.5114991195609577
P 0.42340390065235606 2.3842340451505963 9.225602550624105 0.04873166087774833 -0.896856832705436 0.3020148899507637
P 0.6458138068261143 1.5170256132810183 0.7213563116234749 -0.631997468759047 -0.17611825255523864 -0.36085638556900435
P 7.209660338311874 7.939312148785258 9.569501555719219 -0.2870940069748733 0.1170391870048952 0.5283956382059803
P 4.2707940463413685 3.168999786339127 3.6544550616134472 -2.684266153164835 0.9992098784530663 0.016502111420081258
P 5.603774339865654 4.049229897292663 11.295990843586877 0.8643408623556018 1.2069799535856311 -1.0848373839158996
P 6.055965652089454 6.90494559614265 4.015190967361036 -0.04301789832242269 -0.2290752643682442 0.40983795767402964
P 3.976995904949252 3.6474580048696215 0.2835484592290362 -0.152211364030654 0.6768609049306408 0.9642179357589135
Ni 3.6600791602049307 5.442111777504309 10.631354283475455 -0.419652115550974 0.9358630387653044 4.062342994831713e-05
Ni 3.060802487169422 5.728933354065322 13.644172162655666 -2.8176251603756763 0.0794332037266632 0.42183215392142837
Ni 2.1377722221452258 4.07961381515523 9.074511952325915 -1.2965877838524509 -0.4519883657898344 0.28164532515547624
Ni 7.516126207568212 7.008820964629266 2.0387329450608904 1.4890276563858484 1.9258979355873218 0.23741438036155885
Ni 8.548294536846148 8.569969391802063 3.473617657648214 0.2561402389058363 0.20574327451052307 2.0045502952839027
Ni 5.473054565713826 3.3517969623210013 7.135501969073796 0.5078340120045448 -0.5137220953542055 -3.7243470588006504
Ni 2.6557705177225004 9.33695374145177 7.937556364445253 -1.0072111514909878 -0.6041673339206564 -1.4628229729660227
Ni 7.0168128105906655 5.079283833757967 2.8973347735874246 -0.25405661690393017 -1.8637284040371127 0.494550150411445
Ni 5.557211125458858 1.0957212022320413 9.64144214113048 -0.4777960708815578 -0.42656118396598147 -0.371846823142237
Ni 4.644398873278082 4.934378067299367 2.2717567305738258 -0.2568902296979834 -1.202059119245246 0.24069973598105
Ni 5.865772758516263 6.645918504836664 10.849532609672215 -0.2661474866301932 -0.08349066162548846 2.1308675651566142
Ni 9.414543574620128 2.2594569256880135 12.175137677517906 -2.5160859245097504 -1.5998645712347739 -1.3133845436948155
Ni 1.6746736236501 7.248604286988574 11.858095186945521 -0.8048946432738268 -0.9219757392602509 0.09537738576074542
Ni 4.4757970041087605 8.506081196639787 4.976488016491543 -0.5867488813338928 -0.3007753611167078 -3.166948862714733
Ni 3.027456556468015 3.2892873140145373 6.285202159551218 1.5628676822954504 2.2457380266449642 0.3793459597327596
Ni 4.301336310802238 5.840567705868774 5.118882592191176 1.712948887356979 -0.2598179448677396 -0.9222472477540826
Ni 4.0089912323121935 0.745117615874673 13.482106282193937 2.1725996547880775 1.1741479946572746 -0.23294554595692785
Ni 3.0389133985805095 1.6840719599846583 9.310507065183472 1.3279462435590745 2.0416073480372003 -0.02958748384912969
Ni 0.7308524502687499 8.615070228801004 9.644195509039792 0.9053005925974151 -0.5306088438072152 1.232333344748755
Ni 7.011615316364021 7.455740266580163 13.367577913443856 -0.18594089507261524 0.46163745884382434 0.5001885796441451
Ni 2.470598142766084 1.1017756309906765 1.826348241460854 1.0448747274800327 -0.9746612425794245 0.7056480043656621
Ni 4.682644234021092 8.185531794640283 9.279670462339876 3.239458085628053 0.8486057110085321 -2.397692537469806
Ni 7.695076492661908 0.12072065219429741 1.5791049314203303 -0.758937716927738 0.8820346800909391 -1.998603076561532
Ni 9.059847194421922 6.801070227656032 5.838798881220674 -0.3709016856201483 0.7700014309410674 0.47305907041720463
P 3.9612823336941476 5.255113759414519 7.256342778392688 -0.7131607678029396 -0.22329645290293798 -1.4737619884760296
P 7.093704055825334 4.294210713878614 7.916930322840451 1.1953313136031092 0.3789173568357732 0.49528702857746953
P 0.7468538397525339 7.5191534219475304 7.747884151745304 -0.430730999072955 -0.3027754222658721 -0.9084152269669968
P 0.07321108399999678 4.272843237613523 10.843411116471946 0.07326718412526737 0.29361381037126205 -2.329088820258479
P 2.643018959306236 8.628212996460135 3.4816467616327427 -0.3137481192272919 0.12683688982160737 -0.27962238118817645
P 0.21046684685941644 4.622789219862645 5.253491172507204 1.0564935426658837 1.083568801616121 -1.5271064655354412
P 7.490455429631599 0.7780816518389967 12.824940887170671 0.4762953179663152 1.0739659884190345 0.7585600218733453
P 4.347825009162775 7.668865473389909 12.84747640246089 0.813084892394103 -0.35296438441543726 -0.4492992489934456
Ni 5.184873071308567 7.4327334372973475 2.1193704845212875 0.10055533041725907 0.8768397661535607 -0.23798516526336433
Ni 2.396063467494392 4.577045681964709 4.02447473527447 0.05704635139103078 -1.7518221673834085 -1.8400786258286568
Ni 0.6109878011558656 3.073293239423776 6.7536631190253384 -0.3584166657792602 -2.9989820356220354 0.37338845659774406
Ni 2.236943765211673 3.4948305131173156 1.712351730990955 0.9167440585476663 0.7235894193354312 0.7103050435216993
Ni 7.756589488849644 2.6789543226151826 1.6753796631884146 -0.3680783572387403 0.3613757484075841 0.14336882603835954
Ni 0.25471354367810173 3.718360022886132 0.1427000914893002 -1.2397820877173165 2.2793554575890935 1.9107947613972962
Ni 5.525215798095916 1.1197712561624973 5.981315476946059 0.885455789957346 -0.19382029782069202 -0.5305571646336734
Ni 2.163750378772663 2.6415472673925984 13.127287881969982 0.1633072168334994 -2.0383926977546443 1.1353449057471479
Ni 4.1004037920618055 7.939517067912473 6.92689429756857 0.5806566523932258 -2.518950647652055 2.0628767989389374
Ni 5.144690293362793 5.973616106466231 8.844759421243799 0.6674812634879537 0.23196492721121342 -1.6271241782816752
Ni 7.0861872496588445 2.8417905127051255 10.042707324438952 0.5153740291353318 1.4317866724855084 0.23934810704916198
Ni 0.22160699577530543 0.6242693549511551 5.214447558618634 0.17741820231358477 1.28480493228491 0.0007361068350761516
Ni 6.471802448244095 8.489110167104043 7.495828968017532 -0.7919630228138232 1.7548671248573198 -0.052098006246819956
Ni 5.158354673345745 2.3801263481005073 1.764224213693786 -0.4263218142616658 1.7172320881133651 0.5349208409190078
Ni 0.21945441348896605 4.3303603108205575 2.643466055583797 -0.8901264559601378 0.4356189232928756 1.2058576670557297
Ni 6.145133415945479 3.650727396399285 13.700475555759242 0.14033646696993896 -0.03141759507933299 -0.549059594313235
Ni 3.054841203468612 6.54949474097606 2.752377777347021 -1.1285548794085078 0.7991430855020301 0.1394859460441856
Ni 3.6390842641711396 3.3862885772336577 11.769413640291342 1.6686935170830293 -0.576120455085769 -2.043334872251268
Ni 1.9249357650147374 0.10089379518563406 13.095455558458232 -2.6120451509158955 0.21675170980588476 -1.3969587661730456
Ni 1.6678274618999507 1.2244197286290635 10.891998372985285 -1.4456271779130263 -0.8417028132411116 0.8139184440389917
Ni 8.23408831328454 0.6328582607332129 10.21704227191741 -0.4575805151656313 0.2923948503624964 0.0638147804631159
Ni 6.300070905131848 8.812509807872994 11.70752154371826 -1.2889984015409672 0.3321621029581054 -1.717073965268946
Ni 0.8896582537065983 6.1537120757711765 9.607537340082123 0.1276609283847995 -0.30650532162194954 0.5021235918833288
Ni 2.209288997543383 5.903142555715717 5.660250982776783 -1.2914769449884467 1.4537858024644188 2.2644446019155327
P 2.1232695366418484 1.4948384605070653 6.240718874285658 -2.0311684120920632 -2.7234281680762775 -0.10239598317042366
P 2.7434665896648878 7.424797478370644 9.149941751603308 -1.0924118538290477 -1.47479068685086 0.16918758687367635
P 1.3313595695181286 5.748512445220169 1.460650498482919 0.22748889371773082 0.2342580941207643 0.6910991600172098
P 4.444602724243115 1.5260699983958412 7.72753009370935 0.5534132432962404 -0.5512398897940054 0.19851590352414844
P 7.21985972214373 5.484194714629715 0.5497765949554841 1.5113445747154939 -1.50423470314359 0.4528005772784847
P 5.220398596363083 0.39919829447533195 1.6833547430394047 0.6033926605381608 -3.124575025734212 0.0006872558750117197
P 7.8509081744034 1.7405644375556175 3.7798627731175065 0.017982295510033545 -1.0187055252838326 0.19984439252758487
P 7.791677232132381 8.74659105045013 5.79383776180847 0.025634412738652624 -0.05646862451068985 -0.2306539217092737
