# total energy = -340874.8789220314 ev
CRYSTAL
PRIMVEC
9.16846942662021 0.00000000000000 0.00000000000000
0.00000000000000 9.16846942662021 0.00000000000000
0.00000000000000 0.00000000000000 13.41898176895053
PRIMCOORD
 96 1
Ni 6.27953961897801 1.4879692159846447 9.217041994042148 0.390927751033088 0.6379621709829142 0.4834018471041094
Ni 6.774270221192115 7.2489310441577635 1.9278650371438546 0.5704018074344369 -0.6624686407647107 -0.31572735444084976
Ni 7.815734983362325 4.563697267570285 12.710888918559071 1.5176476341153862 -2.049041435717742 -1.7219055823296348
Ni 9.091243260779375 8.485289957759871 10.606751807932858 -0.6953527930872412 0.39238968029059523 -0.2736530509786191
Ni 2.4199349495736273 0.49025822290053805 2.1199307158036427 1.4735316176327784 -1.9349734155260288 1.6002072992861733
Ni 9.142064085984577 6.583364353895931 8.896006208596498 0.10504061988212232 -0.1623970463144042 0.540109841319115
Ni 6.558160231852073 2.645699337062881 0.4369124012563101 0.5806563952829097 -0.45865960716242304 0.30269983183293026
Ni 4.499554656504869 5.963172418088464 1.6076204905968527 -0.25320609597817684 0.815840086541737 -0.9770778224407172
Ni 4.388331955699471 6.352034705555233 8.673412277783404 -0.6238956655875191 0.4435438345669071 -0.2170093343426456
Ni 6.449137963673276 7.651014264322692 5.092141248164699 0.10907262385965087 0.5905098910382217 -1.0072818568279234
Ni 4.424492398529946 7.221178087654759 11.100221745621305 0.5141674104217403 0.30542828650768694 -0.16139920117750914
Ni 3.3140073996386867 4.476725168003885 3.194133331223036 -0.6229543847201722 0.2316833914150526 1.5004667514607255
Ni 5.112439322298165 8.594990692665204 9.03438316486108 -0.06133726545690081 -0.20143436272252405 -1.2444414408661988
Ni 5.390931576602343 1.6191058320607816 12.10468623317522 -1.0540242551897847 0.1499786180453933 -1.18669960607004
Ni 0.8255931530313837 7.246565579084168 6.751075827613885 -0.36748108997437356 0.4454050561453619 -0.7517409420689828
Ni 7.437003854447199 7.0798277968034835 7.2097239189863735 0.5980321675571958 -0.1951935240191348 -0.8476361480064112
Ni 4.504074711858679 1.4804877450542018 1.20887275955508 -0.3245421245190024 0.6055387603468861 0.2118265045901255
Ni 7.5943256187798855 4.954943357049205 3.5508638012598643 0.9442564050353222 2.348994815153787 -0.14111242590401504
Ni 0.8524127593619378 5.58564235864869 12.61348035041409 -0.559622714541062 -0.45210920763841494 0.667006123623748
Ni 6.696805824266485 4.8019674471540545 1.4106166743842008 0.4992904933099078 0.2336142898891783 0.45086736481151385
Ni 3.1977420407306614 8.905856811988247 7.457544893016517 -0.9578770811425503 -0.06360806376894852 1.25761628768526
Ni 9.334418571426607 6.303716872462788 1.8453653168910202 -2.211380375100701 0.22473935599705167 1.0722178953796762
Ni 3.3551921636332342 2.798730257773697 5.703966038909516 0.4270813181355096 1.0269271418626766 0.20923380416228482
Ni 0.6564669845039101 -0.16081311743356097 8.316883514070682 0.7123351865778507 1.1751450684632214 0.5309454012110275
P 3.792427295008112 5.127567296606046 5.34987975541232 1.0605682269558896 -0.6642041353985787 -0.7866436674834387
P 2.3401050875744023 7.215493636702706 8.4194044206848 -1.1765303788465222 -0.6622449547896788 0.7621870771029712
P 4.761598676925205 7.765070022134839 6.379718898538655 0.14731135562587536 -0.38513839804482053 0.9765551171680278
P 6.569584144571842 6.993396636924455 9.167525842015133 0.016880320695106414 -1.627433739102294 1.2158662003316674
P 2.5926138999461337 7.287282751145561 2.5517271112031055 1.2475131378129871 0.0983099860265081 2.0320140479218103
P 5.126980514572287 3.7118822924052415 2.3212418788828657 -0.8699985748620114 -0.3471860871707634 -1.2306469581852675
P 1.8686532288558797 1.6338578991282853 4.263613268117587 0.7651307331123274 0.07244237423112686 -0.960333513102843
P 3.6636011331899065 5.005553307461026 10.473447765719518 0.4662754718364679 -0.09748491902205146 0.5619791305883804
Ni 1.1963202082672493 1.1799911644840153 0.2644837500950796 -0.3454354230282438 0.4382751299688 -1.772797226973179
Ni 0.9761027446908859 8.86166479007068 4.728205278122681 0.2296033689575723 -0.9015002450147184 -0.9469108119390338
Ni 4.52948970869592 1.8265882918106924 7.459424429218406 -0.33468615493153975 0.6577768917159962 1.0300584884028066
Ni -0.17112031059533073 3.5727049287727337 0.8705259872665743 1.4153650365943753 -0.9482436718178444 1.5255023542731148
Ni 0.3837747038646814 4.21126130854304 7.808075644127898 -2.804615121269254 -0.7665183574884734 -1.9679401002600365
Ni 2.669986612178988 8.820901775662898 10.154344693597565 -0.7086865340816698 -0.5094790038071355 -0.3578291687069063
Ni 5.900826827001438 5.305114704164907 10.299296359181044 -0.7378261317601035 -0.8294707899512941 1.368947111451468
Ni 8.471573927720726 8.648442868553051 13.07560329164275 0.6756236900894299 -0.5458336311767696 -0.07283806700764874
Ni 7.800625345992998 3.4061413474083224 10.101675504986018 -1.2258909315575208 -0.01188775257652146 -0.22154090366441204
Ni 2.4146905851468956 2.6913949879419596 1.9158011652685154 -1.207066085541534 1.9111187203956186 -1.3828884041229088
Ni 3.2315736923646505 5.775567199732182 12.572954799360593 1.0631053915554465 -1.0222197090846783 0.9843072503096209
Ni 4.702553734778081 3.0463981183669064 9.688437925098079 -0.5723504465203756 1.193877868986034 0.5263228148373517
Ni 4.35035615595205 3.6797743129954235 -0.023710578398552548 -0.7077761064522585 0.20704348137918535 0.6098782682625045
Ni 0.7807355002442686 6.173157869951133 4.641760365539736 -0.7786830178754655 -0.30253528123060797 -0.9493474464049843
Ni 7.968490849994815 0.9140927195794167 4.644268858734062 0.29019964248339053 -0.0254390088983949 2.0795863983841345
Ni 0.4898960683640767 3.082494381912439 11.395493215550243 0.8893394412824682 -0.15986708080369885 0.8975312330646413
Ni 6.017568946311894 5.810242350539701 12.876975739521054 -2.1957632373887344 1.7664748842995772 -0.6489736916020694
Ni 5.148948166961185 5.918063549243146 3.8344738951147446 0.33160237379989344 1.359811210588471 -0.13811349117669117
Ni 4.85792261515466 8.575452684634843 2.9828111165397067 -1.2079867975835905 -0.23174124123618153 0.14527992701814335
Ni 0.2460872164897682 8.988263013854452 1.8756918627202195 -1.4979290726405363 -1.5679304415303383 2.314858278481394
Ni 2.9792299124399135 7.286530936664807 5.045120753475022 0.26510798962208537 -0.2395872196431616 -1.0117900291109219
Ni 0.06601756303266604 2.1251594938326033 2.9817915827560486 1.9725868550034285 -0.015738750891495474 0.09718255729028423
Ni 3.596277063285196 9.330567814330054 12.655374753930714 -0.871085380168287 -0.8174639952984052 0.026720703824295915
Ni 1.8071419684731067 7.72690168453259 0.6711759597658093 0.3933877825378064 0.5231117640992217 -2.162679053240256
P 5.834630478817861 1.2794323822678213 4.397641619403848 -0.2994188470888134 -0.7017471266493592 -0.065576500349229
P 1.3273284657735012 8.445177904670793 12.037081608110618 2.3525357384275094 0.4436909016677327 1.4715387555724657
P 8.773354093989763 9.142412487817124 6.416111303641851 -0.7227404410715746 -0.23839834154138295 1.1001213066581634
P 0.6497254090441615 4.321420466912248 2.9660108134356085 0.31454927497234864 0.11689032013185674 -0.1090170880313671
P 1.8109377147539933 3.2055352396165397 13.145180971295872 0.8310471332994784 1.2027391760314061 0.8173590942894247
P 4.377128086242361 0.7830101974720174 10.358259701951601 0.43995071789901 2.5415712132650485 1.5239069847615367
P 8.127765498283612 7.316392641101636 3.714508142006318 0.7063488870874287 0.30983721420865995 -0.7944731908301866
P 8.142801787898717 6.571940441176161 -0.015241663326922299 -0.8591690883466752 0.14959012435772304 1.3913871856225393
Ni 3.9489055601672693 0.3641046698767247 5.468020066287594 0.7213942114563253 1.3507059058530932 -2.1388819508206582
Ni 2.386708416911954 5.540111740216608 6.765112754077743 -0.9562099778527724 -0.2817214298090503 0.20471740434917002
Ni 7.527441635400496 8.81563907429761 8.956700558366645 0.9995628909171107 0.47194552563805164 -0.8968763730894619
Ni 8.104642618765746 2.1635112008204014 7.553236206865825 0.6415912830950692 -0.8547853574566827 0.4163464482165088
Ni 1.829678065957211 1.7775736550531571 9.631433884212125 0.21013780403379292 0.015904329935082288 -0.42352162580870933
Ni 6.149769104824221 5.148223857888262 5.938489981946496 1.2367651552678636 2.6528953521630374 2.120768529049399
Ni 1.453358244462068 1.4816154667753347 6.400948489150715 -0.5211381853126186 -0.13295842933831292 0.9159804409087644
Ni 5.647318651478459 3.7291648569933358 4.501316836300005 -1.3220566175475166 -3.4983033821698784 -0.9321907321200398
Ni 3.0376697356147226 2.6225947944835712 11.468465062529894 0.40817445392867774 -0.10599372782401101 0.33994431800668545
Ni 2.0476675914991413 6.676928582872857 10.856144257597165 -1.6038947754400894 -0.23679423027905672 -1.811694932479641
Ni 8.141738245462527 3.3851730581706714 5.024898777636559 -0.31251450393050695 -2.0364481724337637 1.011960493250515
Ni 3.9926941694366276 2.028157088876613 3.542101495171354 0.17902514178938844 -0.5911958613616529 -0.26325808089754016
Ni 2.001476843279077 4.8582526800486505 9.009584289159287 2.0555468409364277 1.0299692711231099 2.395977611661228
Ni 7.057484237174206 2.7157556108122876 2.8126049023313433 -0.8424610315633749 -0.12362738174537417 0.18855879231143655
Ni 1.3599682164014144 3.764399284426783 5.078212509638316 -0.7599759283842653 0.49535824813503726 -0.7641298026516389
Ni 2.1290377563369876 5.443787801987153 1.2660134106332666 0.8668212055752942 -2.022380381486788 0.3604892320375727
Ni 6.6352120476602146 8.380200962901123 11.375217145743044 -0.9491199037752105 0.5492783951922604 -0.18048629971594723
Ni 7.856039574306232 6.357719156507285 11.21652377840644 -0.05257880253798042 1.1707153148266418 -0.816449952211594
Ni 7.0069109606394955 0.31646071927617625 2.766685540801893 -0.11274981560092195 -0.8052741381004326 -1.4650629180401349
Ni 6.157369765855272 9.253094248935149 0.42706271471148777 -0.07690349532627402 -0.9797252873658934 -0.12782239366332826
Ni 6.807790144870668 4.690112121968508 8.291132034410957 0.5144792852352043 -0.3751877145900119 -1.3336597490040838
Ni 6.264264949161689 0.4671087548217688 6.894874099762255 0.9156004318615264 -0.6909983727732874 -1.4364318845670034
Ni 7.681261044469176 1.3363594080118422 11.986841147010681 1.2465620867536273 1.0491622991117933 -0.9407856728779023
Ni 4.345909448352461 4.394676536439504 7.529431193233714 0.2670422305303207 -1.812862470425181 -0.43269069390248704
P 0.2219466368821007 5.136304847827508 10.524278676240929 0.9996109705462268 -1.668050741292708 -0.6760628345093777
P 2.198864818354456 2.942785247061836 7.894453626885117 1.3595787828626908 0.25963668209486895 -1.438785986621477
P 6.064612362174767 3.687686701981909 11.94465151878332 -0.5459588439007242 -0.27413153327693435 -1.0875573539502237
P 8.160661966051295 1.3016200779193805 1.096799224800729 -0.6594231690701676 0.8000699681916738 -0.5905350878492024
P 8.886062086818118 1.4476462881021832 9.867835529757139 -1.2305731675245386 0.3109394461339032 0.09621967915638267
P 4.5323502711105 7.408856653765262 -0.10059919545355483 0.46173284677110804 1.2410583833265787 0.21737520232249657
P 6.3683820862770215 3.006515277009765 6.669985301089003 -0.9624227915317038 0.44771287834293216 0.6083080955619072
P 8.458178794106294 5.131491401456818 6.105703607782683 0.3631927470116648 1.8240043459746136 1.0205739459511394
