# total energy = -340895.58963921905 ev
CRYSTAL
PRIMVEC
9.04144024259690 0.00000000000000 0.00000000000000

0.00000000000000 9.04144024259690 0.00000000000000

0.00000000000000 0.00000000000000 13.23306171783277

PRIMCOORD
 96 1
Ni 6.451908499890428 2.000735114271375 11.444613526733312 0.42109373309350706 -0.30207273977189264 0.3850319543739434
Ni 4.659171719459183 0.3467799215505861 6.158349208310854 -0.6548820866667044 0.03979862005417662 -0.7016712791061013
Ni 2.734610739619587 1.6256690467777832 4.6527043772207195 -0.06090763411864994 -0.30067123143867575 0.6923343179758915
Ni 3.5654196463022916 4.121621928538468 4.684013980796245 -0.702000894531378 0.3414365862814958 0.23383566187136504
Ni 5.068495804206425 4.708827309524384 2.862165570923641 0.35171945626474266 -1.2184313899556822 -1.4782871300398928
Ni 7.269751981199225 5.991473153191512 2.4817153257381652 0.8021530759729476 -0.4879035916292049 0.16687950756579
Ni 5.291258810037902 4.247867559288728 11.5823435949382 -0.9667026498539802 0.4015124685274698 0.2897697540348235
Ni 5.614219057148069 8.291036910442678 12.419612610707137 -0.5142975082417013 -0.6289118878551879 -0.4408356916071246
Ni 1.7057762077351206 6.596716207553262 0.3323895651871891 0.8445143145479779 -0.0673724159073872 0.10102095719976795
Ni 2.569043885054038 1.4685107316806687 0.614296248522765 0.4340338381939428 0.29021069822698403 -1.5264495486777323
Ni 0.33016175430006856 9.22254033761995 4.912496601754314 0.6985443034413453 -0.14188504240398145 -0.5604557519653186
Ni 8.788062965989715 2.400457189432084 1.380962465365782 -0.3491262416162697 0.14223214133075504 0.27682862049312323
Ni 6.877299224030582 0.6572620769184041 4.761625704233919 -0.36363626230698665 -0.1919045688552179 0.5363665722265989
Ni 0.825915679198494 7.542324281580811 2.5815852668784083 -0.308123831061979 -1.2055061972535819 0.35328680075186253
Ni 7.60342633505143 4.01215721096392 3.969204040584686 -0.12595988653329274 -0.4615351289380051 -1.0443527935382917
Ni 7.563065345602948 3.9588398375818197 12.713836448147925 0.9348662220696738 -0.42701009857794203 -0.27631722807434345
Ni 7.940165737161483 8.775187955018694 7.12204739606791 -0.8839979744648968 -0.25899981984181847 -0.9853603741644835
Ni 6.945679636933555 0.7396883673097772 0.6061074160533451 0.5547489313885284 -0.08358887776624958 -1.2976496494580618
Ni 1.9589274943767105 6.475841192334454 9.024710007528423 -0.36173904528427375 -0.2023224217544322 -0.21176916898962886
Ni 9.374436534469076 4.826637276485345 1.3161832581297732 -1.1516379864802166 0.3911766338191005 0.3702869348542849
Ni 6.500189791031758 1.8328446095516464 7.09821415946706 0.29127179250164675 0.16284261849225504 0.8022422932526442
Ni 3.4073843114971787 4.384275768923416 0.23472573547737352 0.3981067852800305 0.6427847891825382 0.21322801292334245
Ni 5.825282439246047 5.684100349138956 4.865664653491253 0.9026968364259809 -0.7330297388127247 0.8831615946065307
Ni 5.335001298154333 3.026839131188672 9.369113838571156 1.102943606598307 -1.0720895973319278 -0.12638823231996296
P 0.1366649865388867 5.678548904801732 12.424891907691675 -0.16743023786293748 -1.5685531627160019 -0.42753846027758624
P 4.245977898268402 6.126968177357048 12.264467824362303 -0.71999193179216 -0.009852210203731419 -0.0954321502580808
P 2.417925252069734 8.423005772895646 1.385012126471063 0.6447108025606573 0.007306303853426126 -0.27982704099981487
P 6.2683943863519325 7.77734748044368 5.724701840899116 0.750377743172869 -0.38224616409869006 1.0510392044195318
P 4.521814158594186 1.2161279674636127 12.487524677003158 0.36568388886463477 -0.5170804703034773 0.6725301387657708
P 4.00465281552435 6.168115772110641 8.157335708030407 -0.35193774292313584 -0.2187330019019717 0.22485094187425145
P 4.758401526626989 1.1080104244920734 3.918878479794095 -0.3329640300341104 -1.1783964855209834 -0.7511423892530353
P 0.38006598397320884 5.469664509813317 3.4419985614982025 -0.41543447792520066 0.8706498352927651 0.49756091221331084
Ni 1.4267302361068699 0.8768867988256935 2.648253230990713 -0.39000652477039927 0.9523108999086827 0.5190226816315126
Ni 2.1155161987356412 6.263240765387407 4.73918304114946 -0.863871636028667 0.9315530985360407 -0.0819449144049234
Ni 5.753629024958586 5.699461756189353 9.442424548863524 0.5273242595186726 0.07198574630968246 -1.1452575368751694
Ni 8.632477861502823 2.5433481117537275 10.201327785074715 -0.14067970924197062 -0.1136350464193527 0.20895278258675629
Ni 2.4795878748382485 5.0465522286259 6.845727418686685 -0.35969296138852247 0.5475948368422505 0.7248040084688228
Ni 0.588861772846796 -0.1274354842922445 8.98245664462753 0.4970436062572601 -0.010404483162775629 0.487291926187135
Ni 1.358720522255731 0.9993232707823498 11.472415955620875 -0.31691751809420904 0.4515988436608997 -0.16016301477756287
Ni 4.143221929388025 6.893718479594749 1.103059331790015 -0.47547462183723266 0.5541431794837295 0.8281618413318834
Ni 5.672735258696137 7.973356864461075 8.015808234904291 -0.43392919429527843 -0.07023893882190484 0.3127484743181839
Ni 5.320381289207606 2.646854520178061 5.2320482258756655 0.2876434517204401 1.1178290083505715 0.18807696757901157
Ni 0.7310646415624737 7.4877772723194544 6.680393833280584 0.2830416912823706 -1.6382102608925073 0.66250720731213
Ni 4.967774159390991 4.397467230304541 7.118540221379948 1.0593250985774079 0.544506941945546 -0.07401331826267253
Ni 8.162738872746898 7.122277048651243 9.248176437414354 -0.37910838980065675 -0.5504991549732391 -0.45151065482246755
Ni 4.582048233797095 0.6247852234016145 10.36985028647062 0.1362180739261912 -0.3863838404161475 -0.6050813610944934
Ni 8.264238081427154 7.154609239123414 4.641245255798899 -0.5133719111036386 -0.6637881309070827 -0.01038237167558857
Ni 7.203966461659092 6.105711751238458 6.990536934637577 0.5185799376671392 0.1384888722382389 0.06433697151517308
Ni 2.5984466488726903 5.212164290392891 2.4642472631005155 -0.861088159746259 0.08593115274618104 0.23828315611975737
Ni 2.3365161237108327 5.345218125680496 11.225328762980874 0.2687774680538726 -0.10089368759328429 1.259428144083018
Ni 0.9468286684665145 3.196474633884108 3.6923415767861414 0.3868877766357595 0.2964767337413539 -0.42463491347754606
Ni 3.9006129621229872 2.4600221980536348 2.450934646419524 -1.1915147680704965 1.0709390286672524 0.5295801454323847
Ni 1.0406064871402734 3.3746181318911526 8.110172843052782 -0.45882724308853884 -0.10850929515701313 0.11268091003619948
Ni 3.3673307310185105 2.686220951194793 7.217047617468694 0.48066902155397867 0.08520918697849195 -0.27806866354781146
Ni 4.146739049660305 6.8738273109597445 6.097464149407163 -0.24808034471583731 0.7324188447016031 -0.08959677452322633
Ni 0.8146690316234564 7.292708198092079 11.1790257389747 -0.472493941942354 0.4456799070733034 0.01756243436379556
P 0.31841330678901164 5.5267702466763575 7.811926468827578 -0.2858259388957271 0.8547910138836374 0.5312570189141754
P 8.610886902093554 1.559992024521113 8.044444284586467 0.05629764615046434 1.238202144824706 0.007019882961258878
P 1.6267992268138631 3.3134979955399566 10.40714170694111 0.58418420593051 0.045276869559928476 -0.3669509285025164
P 3.9873203744910306 6.357344075911558 3.706011330358534 0.3748701833495931 -0.5588485553791989 0.12623756567471164
P 7.022721749633044 4.269847300630407 10.401742158800735 1.0099336926284737 -1.1425406521646388 0.1484935488594346
P 6.320509248175645 7.8673369356365 10.205244537007754 -0.6666870497214324 -0.45078920327541067 0.33133035108542935
P 2.336986278605842 8.403214060103815 5.657252696345873 0.8346140247151305 0.7376260999341555 0.20886845040306606
P 6.8413142916818 3.8411293264640345 1.7011497027394242 0.7641159186945679 0.23801190473624173 0.1249108764434881
Ni 5.315281916884813 2.7808938724571273 0.5485107289826311 -0.18852022576401728 0.12227009638653136 -0.6829384785832883
Ni 1.4875972121299845 1.063571745473415 6.897098169974642 0.044446146128517 0.12066521379325672 0.20305750014824386
Ni 7.1708386244415205 0.6061933097360871 9.378217664797786 -0.8165204004382132 0.820705127943522 -0.2277704295138916
Ni 2.4872459747627254 1.577749413247999 9.270540439968302 0.25575380210069504 0.1487735419936986 0.2689985829257432
Ni 6.329641102867169 1.8082880577277043 2.618796218530329 1.027223847167489 1.0584483523994093 0.38522735821420107
Ni 4.084741893601111 7.150034270337363 10.244189636907036 0.07406165500210471 0.16507022227119314 0.535597041050426
Ni 8.207060013041803 7.165938163805078 0.3641394869047721 -0.3164973998376549 0.3024342368763695 0.9777684207498388
Ni 7.547468861105045 3.8421238848957846 8.253261772916746 0.3507930877957314 0.19119185905890942 -0.25892294385729603
Ni 3.056052024761263 8.286678936223554 12.375559097044775 0.4689465909107279 0.2911674057132985 -0.004866584063681941
Ni 0.14313413706540754 5.066850262073893 10.148778934117148 -0.5539768291091943 -0.6231127646749075 -0.04091062217143277
Ni 8.563663459465996 2.3287404850626032 5.899682643093195 0.41229233275179317 0.8871833141714139 -0.4602086968170977
Ni 3.3059755172198093 2.814021709674699 11.69189963105966 0.22123185706442544 -0.22999160553492648 -0.6206542758320859
Ni 0.99859091411897 3.3392118517208447 12.620331680970883 -0.08659681135463795 0.3406760539663875 -0.6529887262987335
Ni 3.106177769721475 8.473493175467404 8.133529595750423 0.4858788478896922 0.050974177055021885 -0.6901473376269017
Ni 5.798049621096668 7.616427926186492 3.5297204234666313 -1.2372608639573595 1.154062536761309 -0.33711456186737426
Ni 3.2090151115644496 8.457625447760842 3.5748986923009 0.5561820642906292 -0.2945679467544152 0.11872763045091167
Ni 3.4406568117593688 4.171105731238186 9.418909570960832 -0.8997812054410826 0.8897289634114033 -0.7791152203168776
Ni 7.0764640707087105 6.319804015833131 11.635870729734998 0.15331770972095532 -1.2035727276762949 -0.9813916193247226
Ni 0.5108685006289423 0.058144598352205465 0.3906137282139346 -0.2500446675310597 -0.16466475930265834 0.027764571707777987
Ni 4.654497294829956 0.35338198124935 1.4483320452444852 -0.2816625515466568 -0.7802002258509402 0.05966553418143273
Ni 5.861755609370415 5.372098327658619 0.4349240187804942 0.08432061372595157 0.8078030751698733 0.33158283341586764
Ni 7.928448030547408 8.63954826780854 11.481215989453807 0.3775659850142014 1.281836336574889 0.705127613085818
Ni 0.22621683602173578 4.8560762060651514 5.629066910390071 -0.39426401449517257 0.05441174198166113 0.4991264569282178
Ni 7.702113655801919 8.652839185032837 2.6100893115323704 1.079605960313631 -0.13019063678518866 -0.08872902720629236
P 8.469126159807992 1.5152097707714867 3.408175437522435 -0.17561123101183304 0.4668035764257961 0.7441201922989313
P 1.9243891924741114 3.385892807931085 1.4559015390541334 0.25943562182765645 -1.3896419207966584 0.7593807180024277
P 4.695626806702972 1.3145259621248657 8.17693393400006 -0.28545210049607617 -1.1646570244477037 0.6315981764380993
P 8.47364687995231 1.6452075992415314 12.460065822846564 -0.5149811645722874 0.10919629392170872 -0.25782662546932367
P 6.268213557546159 7.621445925546686 1.2801865719086167 -0.19279777009344862 0.16654886369924865 -0.21870137733308787
P 1.7453867576396458 3.203138175376835 5.888328402378723 -0.14586793831112943 -0.6223098091576379 -1.0575903752744882
P 7.016347534229554 4.106567930457884 6.039132393240982 -0.9829813324093458 -0.6233598476887071 0.3866342658640567
P 2.3423930598984475 8.478493091947021 10.26296690009848 0.39310881784480683 0.8186305048026804 -0.7652284350324563
