# total energy = -340890.6532777193 ev
CRYSTAL
PRIMVEC
9.09412278524133 0.00000000000000 0.00000000000000

0.00000000000000 9.09412278524133 0.00000000000000

0.00000000000000 0.00000000000000 13.31016794421719

PRIMCOORD
 96 1
Ni 6.31674112980288 2.008637030477892 11.579259747007496 0.24538402883059673 0.21743099526109647 -0.1812781994896233
Ni 4.94572940608604 0.5303819574654702 5.853598386055058 -0.97875855257725 -0.9868960940827197 0.35006726537330035
Ni 2.882500358086874 1.5414355798468875 4.927477502177128 -0.741050295124356 -0.6572027643800811 -0.12011628326832217
Ni 3.5281739632830953 4.069074182861693 4.739138224671617 -0.5652318331977233 0.5674095575753324 0.29955537266667764
Ni 5.067572459684245 4.546088191697837 2.6728144467769845 0.004074170069373629 -0.05573637433035562 -0.3559054693216322
Ni 7.205637041946707 6.037915333167489 2.7520633587019616 0.6852324168237877 0.17066365719857063 -0.705725651681133
Ni 5.393187516713932 4.359149409061272 11.590227258773389 -0.2879445279006267 0.5371618144343846 0.016992677903254608
Ni 5.412694409531378 7.932457502439 12.912632716415317 0.6988196685899191 1.8672605855600874 -1.9447976007053018
Ni 1.7754546347985678 6.270115563614047 0.26727626102785884 0.6364030540259104 1.6477048306465045 -0.39178752793022203
Ni 2.6429338883945674 1.752592010769169 0.2513915572123651 0.26397027647321636 -0.015853164982172697 0.4694798377063786
Ni 0.35323572596448793 9.092567430664277 4.639418442941478 1.739548235112062 0.23806409813041582 0.42424410579703065
Ni 8.906174295379248 2.3784040523694445 1.3644648649106497 -0.46781222019596846 0.32195739451096167 0.15826708330643063
Ni 6.995117199601217 0.6662763397780049 4.434295962314943 -0.04252373229482354 -0.7062411578649708 1.0750407095404517
Ni 0.5991635343634629 7.094525052928728 2.381148658547676 0.7967308765161116 1.6801819773386033 -0.25838661173785177
Ni 7.778730455265984 3.7506616708722946 3.7722083753722373 -1.254793216414168 0.1538417005452254 -0.3794899415097916
Ni 7.746200778991856 3.9530968382925105 12.731015814280742 -1.1038599477649893 -0.4139733199986419 -0.06105110167504969
Ni 8.112548410813778 8.65713175001525 6.818639386105868 -0.17545130839520107 0.7019975520972684 0.8257264924175134
Ni 7.104710470157418 1.0093475649956116 0.3716467770175978 -1.32514194134106 -0.8981675810970596 -0.41032955259846754
Ni 1.8565560194820128 6.596112573789808 9.148065222789102 -1.1446114186507383 -1.3360125655069766 0.9119846894858099
Ni 0.25505103211667307 4.972493408678928 1.5139649639337587 -1.5778253320465472 -1.2743009474297926 0.3304605468859664
Ni 6.48108101796329 1.624273941932725 7.199403020955397 0.785474329765686 1.0715434950204707 -1.4050037479647093
Ni 3.2146359009674272 4.388941754455191 0.36573650678819986 1.5172658252959355 -0.15253223770518246 -0.8376494691073444
Ni 6.005494786363668 5.374198988880445 4.79496158638286 -0.14086251467673805 0.884737937954715 0.47960535617615463
Ni 5.669094100018601 2.823270338077536 9.201917888149044 -0.6890934424410907 -0.4659180884970492 0.8379310049035052
P -0.12988589555986021 5.791455518600766 12.683604515905696 0.8151672288444283 -0.08670068392235392 0.042938194124422825
P 4.24746449032418 6.088660536860427 12.517253917254871 -0.3966512837804266 -0.32936834226305206 0.8078951206630474
P 2.374011591189572 8.346622030500612 1.5269686497331374 -0.7797513112389797 -0.88499993336685 -0.7851853377703575
P 6.226818446269587 7.802038691299139 6.085222049133491 0.505403291075865 -0.2819795685664434 -0.8965063913445528
P 4.620741843510621 1.166303025665221 12.882378389597095 0.8857887478167326 0.21097932609848177 -0.8059228274280248
P 4.008580079821295 6.202482574391039 8.369859332378066 -1.463271887577983 -0.24533286387768719 0.5197325632143437
P 4.777751868915384 0.9300286283271876 3.7068416414826135 0.6029522305666326 0.8578107745465678 0.3654362916302029
P 0.08918878784547533 5.67042184190734 3.7929447935551472 0.12457971835631448 -0.9861479030627855 0.8265410178990088
Ni 1.7359770489148683 1.0570280493974171 2.6071157774151756 -1.1468395366503088 0.15144208996479724 -0.024392055691119283
Ni 2.121431432163109 6.3515352425858875 5.024774609666443 0.08846163247751862 -0.32192217039765203 -1.7147226914279503
Ni 5.808079574577592 5.195044775125806 9.053749168663684 0.3981240116712111 1.0925499220688086 0.5339728751834417
Ni 8.596292070318878 2.290673052364826 9.970033849617908 -0.19882829255824466 0.7606762968853996 1.2330841068718505
Ni 2.3443101870209095 5.101657230910255 7.127222061057329 -0.7481465398495051 -0.4989125411451988 -0.06755419290089011
Ni 0.23158637717607825 9.071123489748874 9.413602687590062 1.9583727682865755 0.6385028739777326 -0.5811353918018572
Ni 1.4565601343153118 1.57866691746676 11.397403669450497 -0.9621358564189041 -0.2914096036310917 0.5558051405671847
Ni 4.278475448136531 6.991743280144213 1.4422759960643265 -1.1362442776329658 -0.9780065049025738 1.065719432139526
Ni 5.688901098879391 7.6753939410074095 8.252703389529563 -0.17615039134475471 0.5656020720529484 0.080422564223126
Ni 5.644094357195682 2.756792302415282 4.7568272023961935 -0.5111404506699585 0.32126782464310477 0.2994867242122713
Ni 1.019360193896315 7.228999842715014 6.873570614397347 -1.4888808463953391 0.3411846181716898 0.9870701577667388
Ni 4.677652862275927 4.868238388045265 6.84548614521374 0.6793278784138946 -0.2537750811077694 -0.5666312846484113
Ni 7.954119702295018 7.254472479909265 9.300173516152558 0.5969103952479268 -1.120337376594722 -0.7494295203269867
Ni 4.5250443921735615 0.31068159843037224 10.727023152176683 0.720035897656218 0.9024176146226652 -0.2101717425955219
Ni 8.053136508353926 7.3294989907455985 4.803213593162604 -0.7494809423902125 -1.2977553217979907 -0.00727287951232941
Ni 7.258328387860126 5.9079785105214855 7.162707327152282 -1.1128217849439674 1.761094079603638 0.2133113166657681
Ni 2.5874506468657836 5.235040725993467 2.4820270314875783 -0.45901364806773204 0.42515350498517746 1.0115645433636773
Ni 2.561777938975969 5.400417344121797 11.202994974571391 -0.2882209214904649 0.036400650116221185 1.1200725529691098
Ni 0.9711977210006519 3.509167247204558 3.7548913472589587 1.7516661014215187 -0.08161221365585299 0.46322022994991185
Ni 3.4969993112652835 2.6631410286464865 2.710828788346313 0.9606551581083198 0.05301023364844419 -0.19751420173251147
Ni 0.9476803201494085 3.347682913517192 8.217244496389934 0.8236534119385684 -0.033018621017865714 -0.6533651358015458
Ni 3.6555007727642477 2.6742631404953157 7.078307504228797 0.5547887834875285 -0.4902918893557234 0.5194397145642731
Ni 4.001741299682031 7.297260326392289 6.452209907181216 0.4618097227556305 -0.4765030631017471 -1.4613515306268186
Ni 0.6678150653093392 7.426742442912011 11.29930718859118 0.2384376794197507 -0.16676535058542893 0.33281799137454937
P 9.22198588832632 5.637310141791572 8.079164796434492 0.2087614925115566 -0.6301606726606244 0.1681239214958524
P 8.61705395204486 1.5269395485410553 7.840594133158742 0.3731431733561574 -0.7201464550921532 0.6066124530270391
P 1.8487168858649317 3.599253624943312 10.222621283942392 -0.8563143925066995 -1.2718928522089321 1.150112550974626
P 4.068528535510157 6.138205316379984 3.873045824760774 -0.12081382355597903 -0.04260780736819759 -0.005391603329216521
P 7.198079826127919 4.116199925789436 10.35407227798891 -0.23518677658262077 -0.36064529799946277 0.9786816765927273
P 6.2841932652837 7.902064944958392 10.415525810955762 -0.37849672435858683 0.6735812057381045 0.9527544152040043
P 2.2652186034156263 8.48519826954595 5.797975095039379 0.7372946847366657 1.828789683178399 -0.9675693687296498
P 6.989915361516566 4.084106767396537 1.6743525464445355 0.17421383644367416 -0.3147786173743353 -0.5895161596663847
Ni 5.243034459693483 3.064428279211825 0.6915098015498321 0.012646485119416932 -0.41559105810772295 -1.1148352158295702
Ni 1.7786648600501105 0.8983392489744255 7.392041090178766 -1.1486228538029766 0.5577203553120266 -1.073703735896583
Ni 6.9026481617607525 0.608869691335053 9.280953997606922 -0.6191578937922175 -0.17454036654515748 0.3307629086177336
Ni 2.8111569668734155 1.6994914293420962 9.520430435486224 0.6340389246691079 -0.5210219714497285 -1.9650568651749705
Ni 6.428662495725638 1.904391103966754 2.447101053927949 0.10400549374938863 0.596894711518643 0.6902203569566823
Ni 4.2097966348230775 7.033858161560342 10.47841621528166 0.4650853081831087 -0.5005117673115187 -0.30838145559873986
Ni 8.136029435174917 7.727757898509906 0.09862848702706492 -0.9593562367912382 -1.3023557966844796 0.5694386721902194
Ni 7.68331492172722 3.672115734618548 8.198105006122521 0.3052691352220033 0.2625597692789349 -0.6093493923422281
Ni 3.002451834199751 8.264811304260169 12.401030121965244 0.13646592827093917 -0.3750897555595669 1.766790101547151
Ni 0.2044149578940423 5.067617930296873 10.281066481177769 -0.6595992896367157 -0.44450054205322154 0.25775309191891094
Ni 8.605149745658828 2.3577513001137707 5.697310433978829 0.4162078657561154 -0.3183185122067937 0.7691357405066624
Ni 3.5555927426978284 2.8525897891001226 11.476372482401686 0.7496578342877089 0.14213803895505198 0.8667823819175589
Ni 1.0334651779335458 3.671433675429127 12.789527398610556 0.3685344709395524 0.14277361565652186 -0.9556463920398186
Ni 3.057362146009422 8.250551720140002 8.475714918576239 1.5995380411332902 2.5762643937718597 -0.0760365193402884
Ni 5.728369590640566 7.685588452358624 3.6024902231501783 -0.5905404871658411 0.6351087606945192 0.7055940111992751
Ni 3.2449829878354084 8.40165966002564 3.636311264822945 -0.5620750327362966 -0.8461878455956588 1.1226361999312278
Ni 3.6209067306768032 4.130896027790832 9.264462715818969 0.3396869505802408 0.4952332925213987 -0.8457103917386081
Ni 7.192496034897191 6.240659700753576 11.520669043811708 -0.07953836184595979 -0.42719958888092874 -0.6776975418993232
Ni 0.8062039654306505 0.052880503661952835 13.475347007696111 0.3839991422340548 0.5573264623077175 -0.024167341274822896
Ni 4.284841333904462 0.3208579215365367 1.707268722926003 0.9441628168802513 0.82674747748286 -1.331990845942093
Ni 6.174454488767091 5.821829887836324 0.4110734358151541 0.2881882684803166 -0.9857187859451669 0.34479573256171586
Ni 7.946189627452681 9.107309003278301 11.43256882243255 -0.07200708646592116 -0.14754455468260397 -0.01401534044248554
Ni -0.31460389347567047 4.833671628325398 5.852507091351984 1.4710384188972794 -0.24848632190500436 -0.5158075171283246
Ni 8.329279538844261 -0.0253744206709742 2.2376925133550913 -0.4559753754620405 -0.2522136501579205 0.1303374467756981
P 8.69359918134297 1.68471348023797 3.5064171845528116 -0.04690360653007406 0.27567856604908003 0.14615153098981926
P 1.7571481661545028 3.3086691278822986 1.599176891998782 0.5028399012240631 -0.08166183594686581 0.25224656027838493
P 4.713219975473612 1.0315554122031663 8.353207994033664 -0.6423754695592614 -0.5283059067056514 -0.08305357408806986
P 8.635296761831246 1.8482894621062278 12.400231658007495 -0.1373257051680732 0.422801202702917 0.22960285473694006
P 6.397569690810557 8.072434236353285 1.517492574061445 0.7662108535503837 -0.5910539364671498 0.23999602504580603
P 1.7852671930037078 3.136126341203783 6.0380772085484455 -0.06312263949209775 0.45085373796475897 -0.32412432025529336
P 6.589164664180238 3.960326665700375 6.3591588454991115 0.29680223540157274 -0.9371452479118376 -0.5591840843417466
P 2.3297959674700266 8.831829843732336 10.534105893391777 -1.0768795625214034 -0.397166018633316 -1.6224995350254703
