# total energy = -340857.76079269656 ev
CRYSTAL
PRIMVEC
9.33131402450590 0.00000000000000 0.00000000000000

0.00000000000000 9.33131402450590 0.00000000000000

0.00000000000000 0.00000000000000 13.65732129854372

PRIMCOORD
 96 1
Ni 5.027012155221128 5.9024200503994 9.255293688978556 0.1416652130836915 -0.79003726654602 0.9554263056092126
Ni 3.3287223315855257 2.9576066409728763 13.373494644158923 1.042999621944507 1.0977317233800643 2.4708357944226997
Ni 6.594383642900999 7.927380515883779 9.207110515810985 0.42749963661985085 -0.59211785895529 -0.3845077064393571
Ni 7.38584703699176 6.814070769301984 3.3733036175343574 -0.563095760691327 0.7156128288878578 1.1663678364912236
Ni 5.376983088223251 3.862660120850462 1.0466095138368499 1.1003635045759566 -3.4783320812542744 -3.2785550516295148
Ni 4.560707730104956 3.2404760947264113 10.506303770559036 0.4614950197286891 1.341012075604097 0.10689592792330622
Ni 3.118683783900023 4.558188275314646 3.933213253161774 0.04418543626796261 0.9863309656078691 0.5229078756185317
Ni 6.4576145730433225 3.0614175096476823 9.136953031214892 -0.639539028551731 1.6405736189183617 0.6026861213894394
Ni 1.5255765321028396 1.0684634513142788 6.03421459674332 0.2508352817531551 0.4586691202441197 0.5461887005233431
Ni 3.400489467853205 0.8508637398636352 1.4375831738541605 -1.2196300382494738 -3.2784149265072253 0.09457263047126294
Ni 3.306345840521958 8.34505946354697 12.57999049168801 4.469439899425496 -0.6270735490948685 -0.45745813065515406
Ni 7.164881520567542 2.275114332220037 13.13643074475603 0.11932206950180096 0.6625362607778525 -0.32000489877028115
Ni 0.6736387579934094 0.25047486393857277 0.242783061776897 -0.26795162971846753 -0.456546160363846 -0.8860384019336933
Ni 7.391529807241014 6.438009482249097 6.810318647927229 0.35296052776069536 1.5317707037803299 1.7295672126399504
Ni 3.010197926892086 1.6553004598616852 10.575628901942924 -0.409032945274231 -1.0065969149457568 0.12494558633616545
Ni -0.047718473728469636 1.3649846175056786 10.445693153355412 -0.6658133888672275 1.9382996516857844 2.2294508594491664
Ni 6.5651766299614795 6.47294592200806 0.5522607575103163 -1.2655735948591236 1.5028532494150313 -0.09479580222566254
Ni 6.145248835615085 1.0049918532265456 4.807964223831758 -0.4555598851911767 1.006615683998834 0.29336364203366894
Ni 1.7044111656446523 7.359766014255033 9.246880576241729 1.1614963673315353 -2.3746528820415236 1.2145788489788114
Ni 6.364954624644147 2.0234114673540393 7.084762858235687 1.6549082903734789 1.9111598580461988 -2.1214010204270757
Ni 1.1324669343021887 1.7366881809027335 8.515585495069184 -0.2971135959944044 -2.5602464210770486 -2.9619866893446085
Ni 0.032733316514548604 8.849640938847777 9.229945174393828 -0.5422672539817499 3.6388298536634367 -0.14872546236458256
Ni 7.852244775248314 6.997962975052493 11.166649138573648 1.2179719338207604 -0.903488993309973 0.7032141981131889
Ni 3.2398788906279674 2.484471693980752 2.775850373005708 0.7387404160442568 1.5628075184814763 2.265247300322486
P 9.104329824205994 2.357547160433362 0.5259184579805205 0.31700390716042826 0.6426325798753901 -0.5949026207892787
P 6.7970971090665255 4.434744321903499 10.92857465786042 -0.11666714837745713 -0.22288944727250645 -1.80393071515319
P 8.438279290788437 7.8787270444886826 5.280412386110672 -1.4255504617678094 -0.986398842731327 -0.7717333260305097
P 1.430425122855469 3.084904427081794 9.901762459886983 0.26669718848607615 2.938553140912017 2.3790764650305154
P 3.1170414726293023 6.332546970989531 10.542140682122687 0.6849292837610721 -0.9484874123975341 0.39605247385416303
P 9.304766449746205 5.496423907912018 3.5018191401252583 -1.0646310841713535 -0.8795967600734077 -1.7616736062561917
P 4.64412034629229 9.136102948506014 10.799171727304488 0.2688306898893112 0.8996973874780247 -1.946626940604557
P 8.990665087906864 6.100122600926424 13.072528039959732 -0.5250208081964765 -0.5485394601437069 -0.7672652629568271
Ni 8.335140276724381 0.17617147651531453 2.334035981582751 3.330341183062871 1.3777397700424336 0.6132114464007955
Ni 7.7867669446423715 2.76192898559214 4.564822839595795 0.43255082589051314 -0.9447395153193278 -0.31003801736555636
Ni 3.738758933051444 6.012212291372684 13.381689404147256 -0.15597443061751204 0.600677832710159 1.7091428833473277
Ni 1.6091571119428612 6.446174382032508 4.410399856709278 3.056726955741987 0.6963490955622395 -2.272185679313532
Ni 0.032037200487300015 5.782242056901619 5.631378037189265 -1.869161402127226 -0.38601180178870936 -0.6463012869762288
Ni 7.101848494239604 0.17912017175138092 10.972524213848867 -1.568785333331466 1.3298797131363613 -1.0696372791366933
Ni 4.5924808544049744 0.5988557410285885 6.863664837152128 -0.901657339417873 -1.614840990038948 -2.3492784078324767
Ni 2.589029067778613 7.801501089508665 5.860261173574883 0.5564438025924482 0.8234053004835045 1.46212980355374
Ni 0.3189657758474457 5.67525854145383 7.763217507404205 1.5864709235366872 -1.5776800647179343 2.463988689593879
Ni 7.473720021289346 9.068021681283417 6.790721022184234 -0.7968100664934794 0.9711167197612759 0.6351905217750481
Ni 1.0623421093052297 3.5876009769468875 4.591987227892355 -0.8978940157206987 -0.42431481113396596 -0.161568893986154
Ni 2.8592079344402173 4.477882986702027 11.92024699342886 0.3512995951185046 0.7100073097756223 -2.567423141331146
Ni 5.540635673824936 5.6891901933128395 12.043285034679347 -0.5190378511401642 -2.8575109408270207 -0.21470948256487538
Ni 7.01128809149902 4.711296476053183 5.4640890385068985 -2.130180052171286 0.2350523078872855 -1.3439230786033047
Ni 4.750702615236436 6.467580416436104 4.390473768712138 -0.03353926940802611 -1.9789878734337658 0.2927751165200506
Ni 7.990693481632863 4.815135338670103 0.9147197880897416 0.4378537261606653 -1.6477729648802781 -2.4796153403875425
Ni 4.948713099126719 1.2961755077881036 0.029129563033001616 2.9261817638308574 0.9618777176615113 -1.4051359026671995
Ni 8.52977282493284 4.0659801224284715 9.236009595387243 1.2835769734150797 -0.028205258789622392 0.7372702592566335
Ni 5.235893619965896 3.47444013160582 4.0831702691496155 0.4949687260061023 -0.7121343834209541 0.09023775054133491
Ni 4.3172630781627515 4.459444310162574 6.340575633587986 -0.28464271722090334 -0.9407635613907152 -0.1650098013469029
Ni 7.207161704474559 4.530082357431633 2.9321993391097068 -0.7765343469635788 -0.014706452972239189 1.4798218215168644
Ni 0.2138503894701011 7.843865255242025 7.092738332344124 1.3170110847038092 1.097475127284568 -0.39747172279919285
Ni 0.9596416670009672 5.507994737319366 11.236479094047002 -1.1065457221272685 0.5998481377200121 -1.054038653367488
Ni 1.301895603293511 1.5931445770533361 2.0673638227366973 -1.377682177331621 -0.805191348578639 0.8402403697629722
P 1.0093402455683398 8.358748501240987 2.083451941269932 1.6787742983577991 0.043973834477788784 0.4175461249515648
P 8.842885067484131 6.988836949923148 9.213188000644054 -2.172443074605555 -3.6075894075919157 0.10774027820147251
P 8.70187958105312 1.6284169441176748 6.468667514521553 -0.08366112576508172 0.09623227756187297 -0.29541872479048475
P 0.13475257289402345 1.5532905347962487 3.9718906167186465 0.49108584601192845 1.108168345332356 -0.32507742819718205
P 7.837538624324136 1.415187087031113 8.836983011354981 -0.379484799303469 -0.8551846497776304 0.23782318576420333
P 8.824959613216778 8.990030558552268 11.907080509320982 1.7093040915155397 -0.27233613193940837 0.6320355210858342
P 3.0778779476110407 4.186680669512393 1.769210609720019 -0.28975124209206227 2.3070927756033623 -2.2310698831098286
P 2.6627464486802737 1.0339749146291477 13.047795392101524 0.21329460449521975 -1.4878233516651023 0.0009433377498757949
Ni 8.79518339012093 6.960283128966301 1.446761454342119 0.7752115143870971 0.7648746512374633 0.021823780743310803
Ni 5.772444177161525 7.737199004471534 11.886431244485882 -0.5192011161909058 2.5046555711856224 0.9635209096918891
Ni 3.5480082114828693 8.094933590753426 2.8582999975843015 -3.935692252878983 -1.7312106617806442 -1.6883984517111243
Ni 5.617469713615351 0.9104255173693689 8.845423184902518 -0.7493338752893869 -1.6838635399552482 2.9111793768847543
Ni 4.913795321995831 5.338491417815738 2.2900052431621725 -1.1697231261167016 4.4235770754551105 2.410711061216661
Ni 5.39785723772667 8.541007727034813 3.632014299243032 2.21495009472983 0.8831240565003758 0.06592976992358968
Ni 4.204475485383211 8.168464345374323 8.557063185968914 -0.07487669470423233 0.25811124658927803 1.3156378585053663
Ni 3.2757391304767123 0.690266226478051 4.086802949704681 0.09264661709314367 -0.5768408781915614 1.8589597790038759
Ni 1.5526839993837664 7.270045429777886 12.996238948909147 -2.3365054244375245 -2.0379813212488385 1.3151382931611286
Ni 7.204063708213881 2.3655534278781243 1.8724737302607841 -0.38179082172882634 -0.48781308879792756 0.6672339233638379
Ni 1.2840447995384632 2.478919562128032 12.424952575206376 -1.7070119530472536 -0.01564104897136661 -1.501793183581633
Ni 2.976390576131742 4.4728347458073685 8.694346411230095 -0.21573792382938975 0.5918170398854194 1.3464862113447906
Ni 1.948443690371262 6.011633749902317 1.8974527248096011 -0.3285574163259825 0.7518494426223891 0.2830272931046674
Ni 0.7195012333596842 8.890138841773501 4.4174879228526835 1.3403119642132788 -0.9145357380424379 -1.4832712135180455
Ni 5.05836537038943 6.598414770565494 6.98369819528232 0.011119249841613109 -0.7314852771437402 0.6953399375714346
Ni 7.319967959882176 0.0796866224918871 13.471567687831648 -0.4138301095525583 -1.7006495011643354 0.9730805283558661
Ni 4.874351857556424 8.445016499524007 0.4566446488238439 1.864222312954396 -1.970262063524994 1.9918737282574985
Ni 8.478347953268402 3.881341411554908 11.971939673806194 1.534482446284538 0.3672026395020063 0.4677222315853235
Ni 8.66513286637075 3.812317681614455 6.681148067090848 -0.24063340151948878 -1.4322250455745076 1.033735937254394
Ni 1.153182451466959 4.487960805863267 13.695834623162575 0.06217235976368648 0.30361720144087706 0.3275958237436616
Ni 3.392837790341894 2.1740282072443806 7.884044027227641 0.8255367450042105 0.5073115638421715 0.686620812530882
Ni 1.6700812612981701 3.446726128912411 6.945553649757027 0.08408304379384873 1.204730495429822 -0.7006970881182901
Ni 1.6975526498265863 9.132445073403046 11.541023324048432 -3.550990171040633 1.1795768789823298 -2.3841759910406104
Ni 0.09727894884807697 3.661122400253746 2.283831645794509 0.538800121368756 -0.4415365743288912 1.0875843505334173
P 4.734363484355575 8.115957041281456 5.669468461093135 0.5293523456922948 2.0137232200324227 -0.42789095852099857
P 2.4573269014436727 5.6374293943430285 6.8359265730422205 -0.39515438751992593 -0.11376257313615248 -0.5697369201569285
P 2.2800412660321987 8.81220370692658 7.923145032441847 -0.7125822695916502 2.742874192616031 -1.6913217960055067
P 5.361577088746207 3.2014058828485314 12.535153527734531 -0.6918630347664277 0.4304764598599876 -0.14039997321802272
P 6.296201502810801 4.5695724784412315 7.51692120589193 -0.13708247880901553 0.3261603768487157 0.16323574016561562
P 6.698931685384821 8.520646799803496 2.0042804073129528 -2.198988429194251 -2.671847467785508 -2.7083956992231872
P 3.749312649228631 2.4341945739430124 5.531434065051882 -0.4204411871111727 -0.44819161775156363 0.17133677200619524
P 5.234083345042488 1.4496849550302824 2.554001181142075 0.5211096460675284 0.0787945417013998 0.6043406262737269
