# total energy = -340887.05672421533 ev
CRYSTAL
PRIMVEC
9.12116433250669 0.00000000000000 0.00000000000000
0.00000000000000 9.12116433250669 0.00000000000000
0.00000000000000 0.00000000000000 13.34974598204563
PRIMCOORD
 96 1
Ni 6.6904106742475 2.2614924147138264 11.840437256862161 0.24772039027325726 0.4893912319183249 -0.21476090462810113
Ni 4.924735642726429 0.6122262456257955 6.403472519587381 -1.551562027474644 0.48213326480433094 -0.3694901499846024
Ni 2.655508480483261 1.8018769335776208 4.944946319112648 1.372841818520184 1.1280524858507928 0.593699601620113
Ni 3.529516708969737 4.696296076839223 4.751375141026346 -0.8096128746851023 0.9022720901837364 1.6217505726745878
Ni 3.6500346560277386 3.2468244564026714 2.9611340770515326 -0.3505429194581382 -1.8186510520825003 -0.4923834817774295
Ni 5.232675278738325 4.911756225586981 2.734388311419279 0.4639558225643558 0.19626695958897167 -0.1281620363909341
Ni 5.351368992888463 2.937106193305609 1.1090004389787265 -0.911258867063379 0.7787583511980911 -0.9858337142564763
Ni 5.842260947229988 7.900588542995058 12.694821299842296 0.2984199735106538 1.0860686852198391 -0.19348065509308612
Ni 2.2806559814109324 5.452084891731606 11.835417880016175 -0.6077841047376371 0.9976175942652817 -1.2074946884385205
Ni 1.2678965979523598 8.015579064342234 11.862131034602474 -0.3604560648067921 -0.5354594870312972 -0.28981243434730086
Ni 0.9314715650841755 0.12485688502935463 4.990709025839312 -0.953225698413468 0.7116047361697293 -1.1568329004175948
Ni 8.860855624529858 2.6691081368113836 1.5485174340525463 -0.30091574334931404 0.7408487206365112 -0.0012909508972816478
Ni 1.6703588620852026 1.620867423294866 2.7367114720274426 0.09567100574176426 0.14288802974719908 0.12944733086126092
Ni 2.374850247608464 7.056917307766352 0.5573296047294596 -1.2551202607362835 -0.39292755507193616 -0.6696065373610726
Ni 7.91312102307208 4.141419153254386 3.8005393436251995 0.27909376237821615 0.07562514283448267 0.025596360411865596
Ni 8.095617283174743 4.338910607859687 12.752959602615903 0.07257272916140405 -0.9544693410125821 0.8599615023409835
Ni 8.37388577094024 0.4003789901520626 6.971984672042044 1.2188864752152297 0.26319920263514673 0.14708227033420476
Ni 6.791838023924708 0.9742771902671922 0.5535662122405371 0.9197291093179193 -0.8578817369938193 0.6598926525074184
Ni 1.7945435172880095 6.686360877192042 9.310620247963602 0.7344106783206513 0.3660641550221889 0.1979759718602784
Ni 0.1540783598639659 5.335188046995714 1.568021220186969 0.23914730389226554 -0.5707468494786815 0.21976941358628604
Ni 6.141891202346566 2.669801345316372 7.201440335658929 0.861348098275865 -1.5469348131152778 0.20692803884724362
Ni 3.458535806524768 4.598617525787673 0.24840305871440935 1.2136172563964907 -0.31533860364286337 1.3987703654604877
Ni 5.967494536354817 5.762003820448534 4.887822289835811 0.40857348913930924 0.6669225627710063 0.14704807466215966
Ni 5.331749367964392 3.0846866355517646 9.88584740175211 0.3816427261867363 1.157701161955161 -0.578537549167694
P 0.3371948591553028 6.288787557252273 12.841227848212242 0.24612707764420838 -1.4072778887108668 -0.8015208417055872
P 4.2654396274954856 6.44038131189573 12.787641918660205 -1.5151657482337972 1.8953763699596968 0.4380954098578262
P 2.556917812977779 8.94958631316834 1.7648769296238798 0.6227216998840759 1.157271273506594 -0.9357483675643111
P 6.689954616020533 8.352268610982058 6.204268110281596 -0.2840603623548721 -1.555037130507438 0.17366439169810738
P 4.923732314627104 1.4642205434966284 12.86962294553959 -1.0763512008217593 -0.5952497197160523 -0.039634326562170454
P 4.237948437573983 6.287884561962881 8.351093804989393 -0.6840579368997122 0.8466017932046259 -0.09898541482697791
P 5.064271217848907 1.2667382100558666 4.132320791626418 -1.4287064908982878 0.17637227754757367 0.4004624299964007
P 0.12214881127763129 6.0752154895641555 3.702512364088247 -0.7741550480981249 -1.3891510972031689 0.6964146586928522
Ni 1.1704278336852136 7.688421134645996 2.810054756088094 -0.6627198375435683 1.2100773615640321 -1.8231085736332213
Ni 1.7667239654430913 6.873527173538836 4.795922908636372 1.7729615204651852 -0.5710024171329134 1.5466897869840073
Ni 6.32931289130046 5.871795278008298 9.223539577990284 -0.9731805442688402 1.4997548129953655 1.3080687879088568
Ni 8.910392669142892 2.6468251318418314 10.75524944214623 0.027220783389166024 0.5648780494027303 -0.254446139032865
Ni 2.5502684840286163 5.819284733755447 6.897506715112701 -0.1334291983271444 -1.9201947145549576 0.9674932640760757
Ni 0.42896471981828344 0.7249857301266533 9.487411219646921 -0.35358222050509425 -0.320800398088383 -0.15595026224779593
Ni 1.7713027900418288 1.2926879231702246 11.79775841586624 -0.4784151925227954 -0.4659193740486298 -1.7449997451449366
Ni 4.183139359857225 7.543677374571566 1.943789484179045 2.511667226616765 -1.2618627216664398 -1.3177091392120985
Ni 5.553238606472636 8.030373593225006 7.984710307191821 2.8273547289586145 -0.5581762119025225 2.145540850898073
Ni 6.96393615645255 1.104344996597859 5.344223472588361 0.4508449962140107 1.6523801246349863 -2.3414743384070253
Ni 0.9824406325298813 7.541433568094895 7.060760966503221 -0.9236081326573513 0.8521708026519711 0.07789311293305295
Ni 5.18502631518493 4.797395064593018 7.110528776579098 0.20365091075786862 1.067347454661252 -0.44184973469393585
Ni 7.950034375962698 8.102731791515412 8.653118365797543 0.392531348074782 -1.5771532456801869 0.7572837262640829
Ni 4.8653568615754725 0.8768512954733809 10.72959160629713 -0.19393599746294987 -1.848184799875559 0.5183863335990944
Ni 8.350818345820306 7.734638075366716 5.008744304482904 -0.5159478993609308 -1.119143099176305 -0.5144273489513463
Ni 7.21223249754185 6.328200109226664 6.9960417435144935 0.9910260570906931 -0.4661289189562747 -0.13901440572440577
Ni 2.8905517694969327 5.684802283787751 2.5484132391613197 -1.9922215985152207 -0.6320627747793438 -0.23531918839542698
Ni 3.587144226529144 4.722108972485492 9.628184536797384 -0.1168574100113923 -0.1474730780147202 0.1623955036525074
Ni 1.2608550589280068 3.977092252914044 4.099346869700331 0.6032977868315094 -0.5333591528588427 -1.5313806674307626
Ni 0.6785708601354287 0.4699835088680479 0.63376040298667 0.9236407856674996 -1.4740214127850035 1.003526760660865
Ni 0.9521127604366509 4.161376261266414 8.384014824161152 0.7460559758690636 -0.9001445023177723 -0.4289883053502354
Ni 5.231069953779405 3.2115802766227493 4.959778244770033 0.7365038134042542 -0.3265190457397151 0.25008297696816284
Ni 4.17971892315498 7.309993139074254 6.293403778625622 0.12349419860161957 -0.06791414734347014 -2.0575636142561406
Ni 8.446517604166825 7.625439493502008 0.8365293633944203 0.3046849805837592 -0.49001678131746573 -1.3396877003657186
P -0.08645495808592035 6.106601416743947 8.502827113450302 -1.0143739877880145 0.14788394029989368 -1.2627178705778834
P 8.43149504617057 2.181627498007563 8.241639830517585 1.3793143136184052 -0.21659615806462695 -0.6641704539471658
P 1.8823529683080185 3.6570761950520914 10.484089990022678 -0.8443893589343393 -0.3688070078746487 0.7588847522026156
P 4.196985287627909 6.5855264032098875 3.9310467900866612 0.5207898008342643 0.5306741498275118 1.1272042789178844
P 6.978986077942424 4.292903453923371 10.774032656282046 2.057778558480424 -0.43830958275116133 -0.8663283250992757
P 6.451153407216664 8.09112054905686 10.223529331093813 -0.24188578586935117 -0.14088076950918318 1.2551223176188124
P 2.696909446327223 8.978536889416132 6.054417410181603 0.4344295309704647 -0.5087804350782141 1.0434490507770997
P 7.041757932302007 4.100930303864357 1.8197443827936897 0.7869313739271866 0.36555533370657045 -1.2389943017086986
Ni 2.8522519995963385 1.7336597439880654 0.4447826433623678 1.1142078666582167 0.38679316003942416 1.2896126380861983
Ni 1.4329258279622303 1.3843829902839828 7.112598368813069 0.896758873674991 0.6769395806873761 1.186431440010318
Ni 6.960971777977273 1.1776609171648926 9.446346824774462 0.0726856005901845 -0.39830887398850756 0.42856767287304903
Ni 2.9749407838146973 1.9364414740261708 9.5127625843675 -1.039520405146655 -0.606616309681781 0.3779709337621039
Ni 6.613592226497367 2.0958155820216646 2.955179780840266 1.413837029985623 0.10946343154016633 -0.279361414217306
Ni 3.897428001827645 7.129439687018465 10.513646211595882 0.7255596556879246 0.44501604823705937 0.09515524244761032
Ni 7.477302660218954 6.335871008604229 11.750606555780239 -0.30696503486718746 1.5973238070907911 -0.5319352759281226
Ni 7.476363180271403 4.054521818688309 8.451204058507125 1.2659250646612714 0.8260720486823901 0.3281529817987123
Ni 3.4927310523826693 8.735339279304311 12.448197780329506 0.6093666187334087 0.33553950407077054 0.387316636643062
Ni 0.051076697187269794 5.183375384403314 10.503046506284742 0.16034067800600774 -0.40739103879543387 0.1242786421761279
Ni 8.941641778854594 2.6027516647878493 5.816164383366547 -0.26016530090482937 0.17217777985025187 -0.36595642579973103
Ni 3.705482215262249 3.1647978237005896 11.785650069940296 -0.3263822630515347 -1.1307526583907752 -0.6669066219314063
Ni 1.2321325117936963 3.381781206926412 12.815355664996465 0.13273525758391333 0.46839817460642563 0.5437818908540635
Ni 3.5128797048500218 8.722478437303874 8.33539445658432 -2.410111479959449 0.8433238937843025 0.06058521778222469
Ni 6.063576883611986 8.392000403715326 3.8677422597179825 -0.7403175307233895 -0.554158091882065 0.5161949823747304
Ni 3.5542989130230627 8.692816410222013 3.893307059688781 -1.226204863253514 0.461474965124031 1.5224712807562746
Ni 3.7111829430993226 3.1522014954717923 7.599663082513897 -1.2925596365296643 -0.4188031372871175 -0.6323450819064529
Ni 5.334120870744613 4.934367592479949 11.839142051497577 -0.9492034646279525 -0.9135237518381558 -0.9968166956305413
Ni 8.133533964164686 9.017657564125264 2.702589195485856 0.5570274430100601 0.18892774561508105 0.4893187268091767
Ni 4.7106436686595705 0.68651904291499 2.0733756930220357 0.17816279378909317 1.0379273496279222 -1.228950030098819
Ni 6.213483222815669 5.697097613586751 0.4894708769062996 0.27304987017698135 0.557707242685904 1.4589017835347455
Ni 8.073398126356967 8.870305150992591 11.54032175579209 -0.19685034289626743 0.7464071885608952 0.2953485336741817
Ni 0.1943793132644861 5.06276622569992 5.896876656258513 -0.7801804283565983 1.0703001095316726 1.023866757769798
Ni 7.220614847753483 6.5351958172819336 2.79121863919795 0.7011316045525474 -1.5154012612833707 0.48621823350698207
P 8.788059610341566 1.637294640630177 3.660340659840713 -0.050536575296971024 1.6087788430052679 1.183054553118285
P 2.0646668051198955 3.8415608690243257 1.6302038473173115 -1.735774884112559 -1.4185889428483118 0.2954254096587041
P 4.953777430619616 1.4096759795515101 8.574755704890904 -0.8887306040538758 -0.4459614428694642 -1.1897381357860477
P 8.706935972928877 1.6702676504398095 12.794663391122572 -1.0978420237056836 1.6817148690433619 -1.5849601433191156
P 6.521167466220463 8.086268089521942 1.5661386118260536 -2.267000535568167 0.6763333145619449 -0.7468453045395783
P 2.0049049350582875 3.6969904110761447 6.206604040520116 -0.0011788507994495827 -0.4524159402455563 0.053708288156733314
P 7.101282652085592 4.139220952600411 5.873154331524656 0.39081179428051405 0.7078619812978454 0.8260098279858872
P 2.1950903368675956 8.85333978494946 10.0632923609329 0.9147877061522438 -0.1957421974337532 0.9345682312132808
