# total energy = -340855.1359321318 ev
CRYSTAL
PRIMVEC
9.43270924113153 0.00000000000000 0.00000000000000

0.00000000000000 9.43270924113153 0.00000000000000

0.00000000000000 0.00000000000000 13.80572344725743

PRIMCOORD
 96 1
Ni 3.040775286397056 8.010954633969485 3.7029024189132533 -0.19624433388115234 -0.29504231528767255 -2.2754633216235396
Ni 8.547251312914485 1.1016744002114724 3.776293612485174 -1.2289029789109676 3.327677520187779 -1.5662965054713411
Ni 1.1131540072517692 7.722087348840444 12.885075044602257 -0.9051846358448411 0.1355884107619923 -0.6391009125730477
Ni 4.299381668801967 6.9726114430173 5.470808123393785 1.0977543490878836 -1.3276024870664103 -1.1654669219435088
Ni 3.756472660740084 0.3687161113877225 7.74728871788692 0.6015738621618671 1.792057874975004 -0.9967483042864511
Ni 1.797185776965154 0.10083283104244756 8.926325482224104 0.2748018198710816 -1.721072802015694 0.43401584047181385
Ni 7.21593760835131 3.9251955293758978 8.950388323275705 0.6091511602884928 0.14364676229009454 0.10975268064581098
Ni 3.4984786326717576 5.872936777146453 9.369861842620564 -0.5629042135058112 0.6013177802870031 0.8174555106579728
Ni 1.6438382242501977 2.9247623965132368 3.169973217136197 -1.100240348734531 -0.8376515259898735 0.7313716343840113
Ni 9.375999706467006 5.871691659538138 4.50400637174844 -0.5053179304509103 0.5515576781447404 0.7574647319266374
Ni 3.1115111723421536 0.6588973729019021 11.518335857540693 -1.6042742702666952 3.331805426313223 -0.10577466983466943
Ni 1.335879135793662 5.815152000869661 11.238756017844583 -0.0333117267782523 -0.48954369833578915 -0.40742986245316926
Ni 5.391066830019459 2.799684673132519 0.7026311856230453 -0.09910419979302931 2.3590357443295566 1.573762217720767
Ni 6.831092507581333 1.0428331605094427 12.928258930379727 -0.6265313034381533 -0.6445161700513481 -0.37108629082712863
Ni 6.873086928734497 8.69249616846624 0.8830940040718035 0.6224386214260182 0.16082353117969722 -0.10169355778676036
Ni 6.871728618616336 5.8042383563785975 5.685749380341879 -0.2155659170278997 0.38343067132509445 1.17053945137041
Ni 5.160946457500908 7.082794918644008 2.7317795432045067 -0.599674074035993 1.1903909388786984 -0.36216070620272467
Ni 8.613082190099554 9.34403225514444 8.829367608102078 -0.25546866676010843 -0.029724523647626226 -0.16820825367954256
Ni 6.454368969392865 3.5751759908021206 4.917819322330045 0.33712716027286455 1.414508859241667 -0.2908449893768733
Ni 0.9336250270092471 3.163183553087219 7.454924727474527 -0.44477770697400826 0.4779976453694026 0.7049769464405665
Ni 3.826133217841637 3.029474900830683 2.390944633533883 0.7453980305700905 1.1823346442331248 1.6573688360988295
Ni 8.576794557984499 4.104275512662694 6.273348677833112 -1.1858673399767319 -1.3917800501855837 -0.06526616819766178
Ni 3.5012329837446967 7.5713526565611176 7.469849159897827 -1.080837775838203 -1.1324619277723982 1.8537484100062656
Ni 6.977120277992864 4.969764308369658 2.877581871867258 -0.48054895103634654 -0.8947860662193364 -0.20963283937291638
P 2.9043688793225044 2.527635908424882 7.437101623528233 1.6572947883277844 -0.7965447286472346 -0.6906445889782945
P 3.9718968723968575 8.272061456058598 9.838938206322124 0.5685927792501563 -1.0912522863033076 -0.9264592289529012
P 3.045944411013393 0.7582728503800722 2.5860602223823093 0.6215392495402005 0.7872023682003861 0.5987651890684785
P 1.2446554055662926 7.070343742560859 2.8509646531767827 -0.9508505133130721 -1.7185680333159692 0.2198486035636536
P 5.431561450417152 8.59732956581254 6.987973553145341 -1.0886624140889445 0.5655812461173421 -0.2855863120810953
P 6.797106456499831 6.896885653929788 3.965873144331177 1.4654763514284697 0.3347761435421847 0.4089005334614248
P 9.07577543951667 9.384243894267517 5.297255707671175 2.957008519403727 -2.3151254160998516 3.783057942378298
P 1.9198958903482424 3.9608417372684865 1.1572396600243529 0.983281380148268 0.5133166323856708 0.4708630912071503
Ni 1.3025250762254705 0.4283478121168491 4.012343385977867 1.3068966219776266 0.32851113646907937 1.8757886776357566
Ni 2.9863296891607436 9.085094956160724 5.593830459449868 1.0320739761709388 0.23333969607155297 0.8938702392732865
Ni 0.36450252020867524 2.2360142722229015 5.328498726930723 0.14192103784823945 1.24494409153423 -0.5357433368203032
Ni 1.2540409511744235 9.077086586089061 2.017568763824133 -0.3215313627171366 -0.897846450312215 -2.779434508238568
Ni 1.5363147726048882 6.092303861229558 0.735599447386842 0.43620539192396485 0.7056765436107525 -0.22580687802961757
Ni 7.574606941219214 0.8497267387107966 6.44734160107321 -0.5191378670531381 1.1038728032807956 1.4456197217138587
Ni 5.778770041663067 5.609349152549865 10.230040966344797 0.7738377739680221 0.048434441352303674 -0.34368347333414356
Ni 1.3169759866492459 0.8186629409251723 6.738946258398713 0.39308567791635524 0.8979760339115438 0.6890196517803617
Ni 8.927276299306817 6.132251384496326 6.975107337859421 0.7838913015492822 0.7531100545023675 0.08396323038653282
Ni 0.44688497214609385 4.898717143022481 2.4199228593255793 -1.5893469595329015 -0.49599048240239746 0.4804435358067338
Ni 2.6868034426877947 1.880778445487018 0.7763440345771142 1.2724397258513376 -0.3927676324553042 -1.6372530391855609
Ni 4.591456075043334 5.436211776030026 1.1385081861865376 -0.4996136809772815 -0.7588397578972932 -0.17150826458705304
Ni 4.479037047347151 0.8764995971023117 9.798874660732762 0.5439659818404116 0.45804948438224985 -0.05786241953442293
Ni 0.9494304744675225 8.070710846459443 6.973216079674064 -0.2940688956308097 -1.3568696114616439 -0.10737338178035702
Ni 1.850159871573458 3.20567790782554 11.297126565359834 -0.5444598907576946 -1.2621036340326524 -0.7028023073867509
Ni 2.264878362233836 8.09118925803256 10.982590992081198 -1.1813781938571266 -0.9996263971651947 -1.0530865738668638
Ni 3.1928116925396197 6.6881775311905916 12.745374735491163 0.5643206342373636 0.5852766676637405 0.3977316613287989
Ni 2.9359401568606085 1.9831516379342975 4.912821873020309 0.43657254545539653 0.49707728770867293 0.25331151120778955
Ni 4.947965317514994 2.1931331764092707 6.284889597482908 0.742003917286877 -0.5297878905678166 0.8102602784611141
Ni 4.9493519257606176 3.2231189870511017 8.695134497216586 -2.7021571745126427 0.9504039126939565 -0.529608941787791
Ni 8.430436642752584 7.497343620539616 11.3919724559023 1.0360913248604477 -1.3896177524269422 -1.766842809161957
Ni 8.135032490179888 7.010266817959669 2.3247317316280793 1.6141817591883942 0.36022775084606995 -0.17104983689339573
Ni 5.904102448190939 1.6821161579967245 4.096406746686511 0.7762461262991986 0.0618784826723515 -1.0306477852473734
Ni 4.984300113175818 0.7538234414721774 1.13315701028353 -0.993003235421722 -2.4682603203860394 0.5440721684009726
P 4.976819974816776 9.398807997201137 3.93980868239712 -1.9723965933694931 -2.7186515726232403 -0.11032269421666806
P 7.504974682245122 0.5816500878278669 10.68539556804018 -1.3486225409615031 0.1908082504672456 0.2146770866650432
P 4.641741847542777 5.118320044834434 3.696482517063109 -0.5781570258998237 -0.9917289966949887 -0.029327545319523685
P 8.012690252453803 1.2272048936315771 1.870896739377392 -1.234762523015538 -0.49983556718010047 -3.493697765077067
P 3.5268899526433057 4.264018442183994 10.817143160063619 1.7509500491911008 1.3166215625748743 -0.20684010711912762
P 8.56114569349818 2.1792953920804994 8.53870150533739 1.4049777798227805 0.1961227207016235 -0.6503286629680671
P 8.588462819207875 3.5905230085955164 4.107892956623215 0.035275792483158604 0.9062783831296521 -0.9603921342549201
P 2.027919275578708 6.133524800232102 6.279961006949995 -0.0772351676340799 -0.46937185137360454 0.04125412155378056
Ni 5.184066027637117 5.594011567465623 7.822129718855795 0.5768431921844065 1.3354934597787127 -0.6475868385568718
Ni 0.525498113505614 2.3119758790392604 1.162628566763976 -1.798234693209677 -2.4183842614912026 0.11540627938716252
Ni 2.783394384423733 4.4596905608725015 13.003721546881845 1.3995121287225187 -0.3524452786871737 0.4847498764915716
Ni 4.634506959621735 8.671980026056508 12.338106198520535 1.784166388042069 -0.18828522693507574 -0.44450388448733125
Ni 8.467884498093568 5.757244599373867 13.041259012959792 -0.25914714405296013 -1.5098623337430126 0.36999305776294983
Ni 6.515408030327754 3.3655340298566876 12.775802768679814 0.9422612289821644 1.154040425274122 -1.931086421766797
Ni 6.518294439328847 7.480836379520291 12.390498294974044 -0.487707930678631 -0.8071808682048421 1.0108276651976527
Ni 3.6927169795688717 4.22477837210377 6.1644621997150635 -0.45579976911612474 1.0202348174441656 -0.045610855860579516
Ni 7.200703783067762 8.922625973693945 4.589602547694593 -2.4955307260662183 -1.5974053110610038 -0.6927446660404327
Ni 5.139298389992708 5.422968252377949 12.388704193692972 -0.16566568976334697 -0.5686699123449949 0.9609228099474095
Ni 5.8417239425561975 2.506799053903916 10.705979625955818 -0.08035263021713904 0.03265352436896312 1.4617842472888631
Ni 6.2057133233869 8.275617587409618 9.513606897416851 -0.1414764941116531 0.2551261958190252 0.5447517109665005
Ni 7.939954632168078 6.411072834376464 9.201969995661209 -0.6406975676362062 -1.048736267317968 -0.04663158381561001
Ni 2.7990809797466696 9.064399592277066 13.523451558739847 0.5740746283003338 -0.8264957664833701 2.8028456880736567
Ni 7.224436479298975 7.71791809139442 7.258455544862516 0.8591161236215527 -0.10457962108530376 -0.2509008448837679
Ni 7.889140627956017 3.276753371300179 1.0664545507726397 -0.48837796016246204 0.4291104327503965 -0.05564998526413642
Ni 2.263586081079752 4.991082231057472 4.119406521416465 1.0329154982356274 1.2812169578233354 0.9454370556069847
Ni 1.2069622997873073 5.67187858153107 8.521127424912757 0.4950384029017732 0.7781592841615115 -0.24586611067333786
Ni 8.218917572685525 2.797798131301739 11.319464163907185 0.5838551047258654 -1.0966418327499954 0.11188772471094278
Ni 0.18666576798836293 3.8602041633055246 9.668700444596194 -0.273712957682277 0.6513874432498846 0.14578463456870375
Ni 6.454359536683711 1.5415027626395337 8.650500804042162 1.4024830384253846 -1.6315662732134288 -0.4792212333638585
Ni 0.7101207566912421 1.513846059400298 10.20481790206727 -1.323093029231831 0.12804093743203754 0.48791593292437907
Ni 9.060371825468351 9.440349648314914 12.041641809438941 0.5889232632773922 2.1816149709128103 0.914368102116322
Ni 0.5976413596564739 3.702932603582546 13.141171211588818 -1.504780805455047 0.35707326437748826 -0.12005277702023841
P 4.286534318934354 7.61735597910469 0.6864342807348831 0.6951095667281835 0.3495250197165851 -0.6568690351897462
P 0.29012466525925634 7.5054651831211245 9.512488178111196 1.7887776615618356 0.30050230996097926 0.0650774492256234
P 4.442504164794095 1.9293474649204503 12.87492733609449 0.9508597692844527 -1.1546070964108697 -0.9948374604169835
P 1.314683838324848 0.9654755127383067 13.04114865026269 -1.6387825884562102 1.3063204377591824 -0.7210627962588356
P 7.8527209379128085 4.901499792222881 11.118176753459363 -0.34522742078249574 0.49512916284336667 -1.2198709506156862
P 9.019820608815733 7.453792802376059 0.33930775405860764 -2.107520405790241 1.2669586481321082 1.5870597061606215
P 6.233803931247215 3.987611765847255 6.978309742617171 -0.14662924195718616 -0.7256589002699503 0.1601594152331371
P 6.569834762145758 4.927817050762264 0.4083608446906498 0.11256623883520614 0.5332426818856365 0.5530957120558215
