# total energy = -340898.3404736609 ev
CRYSTAL
PRIMVEC
9.00237801168461 0.00000000000000 0.00000000000000

0.00000000000000 9.00237801168461 0.00000000000000

0.00000000000000 0.00000000000000 13.17589019441874

PRIMCOORD
 96 1
Ni 6.343795739363199 2.011059229448578 11.289735529410281 -0.39035490924875355 -0.2323642195321611 0.1481122542606159
Ni 4.440990105540782 0.2538391526412701 5.964383316033385 0.8940766988571377 -0.37461744390883867 0.21706846971535518
Ni 2.800540774199294 1.545285193348628 4.808159294770673 -0.6470155394344341 0.4763729652817861 -0.2662135639814383
Ni 3.4583445357297316 4.240777218494977 4.868979360637645 0.005262019729887712 0.08070795667402875 -0.20854629117695694
Ni 5.088450134732387 4.493338933695968 2.569034720936766 1.3137303570700085 1.8509137687709478 0.07555340905628277
Ni 7.233149665808437 6.0791348281105195 2.673045495804622 0.42147039970663536 -0.37469072034893536 -0.9970624930927602
Ni 5.069536138523609 4.540340349310454 11.326469732899058 -0.2454123109653709 0.05582353472752321 0.2585025684904258
Ni 5.644734079391623 7.789154536749218 12.583304330853492 -0.29175978788165885 0.2947543517336085 -0.6831901895827782
Ni 1.8118636111184288 6.502642699431689 0.4388614270251551 0.15367329328816115 0.053994194828268297 -0.6831063716197203
Ni 2.5898491191444375 1.532888918822456 0.3061474700953909 0.8960934721768502 0.23516697908827885 0.6938001038881405
Ni 0.5536588512301639 0.07625194225968408 4.568976913775054 0.5183809342824556 -0.32207952191112277 0.2871600843261184
Ni 8.505014634096131 2.365365820971138 1.4002019690267355 0.3931584401358197 0.0035697196291293357 0.006162934277602289
Ni 6.865807630920664 0.6495359775617838 4.821374785696178 -0.8924520187695212 0.15170074294282263 -0.7703446732130991
Ni 0.8014006932421118 7.46716648229925 2.439463494171916 -0.42346223332568367 -0.6526825079122244 0.781999483843208
Ni 7.553706342154076 3.933300997404624 3.8045246806184676 0.4377758217348783 -0.6919147139399697 -0.029237042488246424
Ni 7.5367908738645495 3.8371465978301527 12.28409319301839 1.4480149614189126 -0.04323052855386103 0.8344458745683824
Ni 8.068453314653718 8.67019026590892 6.726410308552825 -1.3079497458324894 1.007773451752361 0.6866591219679852
Ni 6.676433607004498 0.9150647180550763 0.38295846002978473 0.5998244835709283 -0.6506071134404343 -0.008999889505765146
Ni 1.8793094272041826 6.51470588597132 9.135344938401461 0.3578417671123967 -0.09561598413411274 0.1867309950740784
Ni 0.14908028016039696 4.82617485365359 1.2779352717829722 -0.16316452060804804 -0.0460883097176303 0.7611092706577602
Ni 6.497142246464739 1.736018576345007 7.048956510439702 0.32627427671876064 -0.01914803368336057 -0.19320297595166727
Ni 3.3400532886172374 4.348157583453716 0.5181183630661291 1.1414253076132728 0.42894151127269997 -1.02852611091868
Ni 5.989417128816522 5.547490392077379 4.903262216593033 -0.3632128016163229 -0.33686156531630373 -0.14630888250328997
Ni 5.4075754329736965 2.798434217743866 9.058925551910704 -0.1823683472300085 -0.7202680682716821 0.19188811379498566
P 0.15130566800561832 5.631797662184572 12.376232531998328 0.4394616940777335 -0.9038461195390757 -0.5536379577125369
P 4.02135325676591 6.10223493009611 12.540522329814475 -0.45618054949431114 0.37697231729426045 -0.05902301550142738
P 2.383001479501836 8.54819003905439 1.421572714195712 0.0596544784378392 -0.18849245784987537 -0.22304602745502877
P 6.1868482810558 7.734438083176179 5.8274985573694345 0.7554402452974409 -0.7414778695800779 0.8673482817233578
P 4.682181817309271 1.0469315512136619 12.564765733807924 0.17121387327508578 0.5243191541437615 0.19566892099365657
P 4.077312038504972 6.032619540908825 8.180633747569868 -0.8748286492608031 0.1868875752566007 -0.20508944297660808
P 4.688600512833716 1.037758128016734 3.715245397133784 0.4024509211813391 -0.5373595322674873 0.3542167687652996
P 0.19015813104124255 5.525794661062074 3.669445798984255 0.07460184377629088 0.35972612861930303 -0.4590352453342868
Ni 1.535067494302001 1.265059170508619 2.5929495381326824 -0.39815486490914653 -0.06559064141661608 -0.37007404751253037
Ni 1.8579467841754196 6.501760466386253 4.665450897769045 0.3011854520709329 0.26739755698721046 0.7109889569626013
Ni 6.002497584071809 5.61256858274528 9.146795062998294 -0.3428275530917515 0.43631337825673894 -0.28142780982803145
Ni 8.67145059883097 2.246534431177764 10.159190791434357 -0.22630207249848122 0.9622140179550074 -0.16263538757745538
Ni 2.397000177314616 5.175395101597871 6.9382263606217105 -0.1390401167560186 -0.40364288460691133 0.5586174132049992
Ni 0.5303949059647067 9.077457847291662 9.27450909917872 -0.2291660243098376 -0.569352026013684 -0.472398039794438
Ni 1.5217979891084077 1.0930147242706525 11.396512735042037 -0.13003997013993734 0.33345253963475474 -0.432028634838456
Ni 4.073540042116834 6.749415885569261 1.6362875319853154 0.4667123022635704 1.0178637461088278 -0.22354559279926664
Ni 5.731453986806741 7.852756337422717 8.020283390372931 -0.9314818789784731 -0.17271514041096062 -0.41648091691184397
Ni 5.175161039769491 2.59787023795549 5.178203843538443 0.02702692221080507 0.5331028138736624 -0.4807114447561398
Ni 0.76165249359403 7.305600804070336 6.831211492210366 1.01101047063242 -0.7111810183687494 0.20296931130981175
Ni 5.1128015672620135 4.2732397936158035 7.171373547396309 0.4933970106436083 0.994608632235629 -0.7114386429055102
Ni 8.148187376729469 7.134915716912581 9.246444185718053 -0.021372809248821255 -0.17494634373432452 -0.9904177340827329
Ni 4.4510277570271155 0.5364697106489921 10.465965727277368 0.001570686921229553 -1.113992922433933 -0.5390209791303104
Ni 8.016743655337573 7.266278416902346 4.660207012575511 0.4772638525271716 -0.5647811188135499 0.11029184097873262
Ni 7.319365440054734 5.966190993538726 6.975606034614138 -0.5705414183360948 0.993400985080773 0.12313064461461373
Ni 2.3044467289460044 5.327535290045448 2.5860978282257325 -0.5205481171371035 -0.85482006734936 0.07158413999588961
Ni 2.2750179552161156 5.340750780970954 11.324849304856421 -0.03860717084923674 -0.5082155637136795 0.3632338846622454
Ni 1.0767114176861223 3.3530797296044352 3.7621909980045785 -0.0763728196337846 0.47239084070558646 0.07365902024704735
Ni 3.8262447180544124 2.7615334702618175 2.638235100497575 -2.347866357976298 -1.3446864391318907 0.019826547807623916
Ni 1.086920114354735 3.2934569800134113 8.170698723192901 -0.43774548271757513 0.29557504786269095 -0.4537647409639669
Ni 3.5609806474747505 2.5673071645957553 7.169910660968929 -0.5337520174218873 -0.08192871645500728 -0.6074354631489668
Ni 4.080228808981718 6.732545429169809 5.972341418198335 0.24646337793770456 0.4537904519955798 0.02716036246487581
Ni 0.6376006247899615 7.424117110633196 11.196054983314236 0.7815940208746733 -0.3169861665486154 0.5280706507663938
P 0.2872766853010827 5.537461742969059 8.00509097723541 -0.24264477552256278 -0.4911367538545219 0.32934983032029086
P 8.558659804685426 1.4753907304428895 7.945497035254033 -1.036811233745608 0.6561236723832894 0.4285838708229652
P 1.7536722396317344 3.3210402662502974 10.34647356293772 0.2000948179754941 -0.39458231706653984 0.15514190741388764
P 4.02034499042827 6.0452948891534515 3.747974442643844 0.03205805687680931 0.37493446092862526 0.5412930629939388
P 6.819472391279264 3.9055646707414886 10.191550739445816 1.3301257677088962 0.18060174224788897 0.9505926316659952
P 6.295317933754312 7.718593897870396 10.268129468027432 -0.8768271677480705 0.1434755268195529 -0.19511973335840588
P 2.3743772013638016 8.413505461577218 5.78082932950369 -0.06143419604608129 -0.2958280444137614 -0.589222796795682
P 7.040147683552366 4.040069200658367 1.409438408869766 -0.3339611038400571 -0.2921451962455356 0.9996950456196008
Ni 5.4266424696087245 3.0523372872690397 0.2488743411661909 -0.7474729108212482 -0.18831685150395955 0.1913353266153092
Ni 1.4180995967576602 1.021013704909486 6.916301068967032 -0.009568874635357714 0.3709320246374515 -0.005596263140854878
Ni 6.762784416921015 0.6661786737974663 9.28042546200995 0.5377552250440093 -0.2096647210521163 -0.45677781675867785
Ni 2.564966546311946 1.5332760210770857 9.151524912407192 0.5215505902596889 0.0978412739202057 0.39292755507193616
Ni 6.126784414942059 2.251728803292217 2.6164943575921966 1.8280795444852516 -0.6125177627678807 -0.20362545683657188
Ni 4.092949169116418 6.844832090146531 10.35454959625466 0.38463986114184723 0.6500579258051837 -0.014169092411530436
Ni 8.115463732646218 7.138003532571606 0.327232839881303 -0.625425214858168 0.46910034287977276 0.42345837667094166
Ni 7.574681882928209 3.810895663539435 8.152173629714355 0.8716813618810728 -0.32353630896230734 -0.3453870862888116
Ni 3.144377600090816 8.265686414576674 12.533288919079702 0.4399897986670616 0.004163387349070249 -0.9517822810987222
Ni 0.07186238273974098 4.864272917411586 10.181247517808048 -0.1492779924339429 -0.5884164988443028 -0.17632728324225116
Ni 8.598270267949886 2.2614603739260533 5.635328394841918 0.46469012962721906 0.43828027217512266 0.9202862673729699
Ni 3.556632498893675 2.677127173996464 11.481417763049402 -0.026379775545109407 0.25100394612053545 -0.05676147316076031
Ni 1.1053209750166786 3.309895322268162 12.626732702633962 -0.4223540878631694 0.4667341566404414 -0.49918224986681775
Ni 3.010161146270407 8.324706004840715 7.9430195808244015 0.8836025387986912 -0.16122436616254168 0.21534994436235166
Ni 5.673496677148427 7.747986662088226 3.712781446271175 -1.5023819662055673 0.3136725287943501 -0.8255858530745911
Ni 3.033693362400701 8.49128600762379 3.5234047216416036 0.7254542404583119 -0.8892062581387139 0.26689490631917906
Ni 3.5657879173345735 4.0589561897331015 9.284035415593824 -1.2098747586349228 1.3807299630190093 -0.012381404383488354
Ni 7.174877272919611 6.020070225956403 11.278100856064148 0.16309278682984815 0.3664714177629366 0.8357537947465283
Ni 0.6162937965048891 8.98906349756582 0.16167100605168572 -0.44741411615559074 -0.14121372736856969 0.7069664660667695
Ni 4.55518527065661 0.42287950533574786 1.5320399945756742 -0.29774223071733885 -0.9192727385067909 0.45241182648049827
Ni 5.960339447829205 5.557906143440328 0.39779167828452267 -0.15243864955011166 0.6307977920239911 -0.3084889277108816
Ni 7.80774444734947 8.903279837464224 11.367894175333468 0.01334119719359638 -0.5561681803335583 0.22404875768793028
Ni 0.09296035585487353 4.836932695381095 5.893417570143903 0.2912635649715306 -0.9838449659612216 -0.8551432550167338
Ni 7.996299254866303 8.933833908445944 2.3313944472950565 -0.5367039009613596 0.03139779758499109 0.1879964920500633
P 8.37583050958591 1.6710484142132815 3.561759353173018 0.3346576156864494 0.4011406870103479 -0.7572626432181604
P 1.9498160518149175 3.264784406036753 1.5828854256024147 -1.761761795094624 -0.6275090939703902 0.8352984523766647
P 4.684180345228523 0.9719417423516318 8.129695592049577 -0.02680760711114738 -0.8277052134104391 0.4393863607551078
P 8.488369237147044 1.648686507224892 12.346652518317791 -0.1663593733962619 0.8492415448203181 0.7778319827290798
P 6.254564168481994 7.726642023815492 1.5400773176671534 0.3640525239087989 0.2815746198185408 -0.5794783158144083
P 1.8011597836590105 3.1226368571854377 5.94550172838546 -0.3582631709205314 0.6865033131164112 0.11348797931852712
P 6.927374894162853 3.727434616965619 5.96954798030039 -0.2841796615415557 0.9080136206532038 -0.10928216876729566
P 2.400646140410549 8.473767380007283 10.237258513339595 0.4558861581823439 -0.48405336464517923 -0.12652810033193693
