# total energy = -381175.36430372996 ev
CRYSTAL
PRIMVEC
9.15839399380961 0.00000000000000 0.00000000000000
0.00000000000000 9.15839399380961 0.00000000000000
0.00000000000000 0.00000000000000 13.40423535458792
PRIMCOORD
 96 1
Ni 7.540948141212329 7.363394361707933 12.723367196050347 0.17464449622318956 0.9876304011455831 -0.7410292120784334
Ni 8.454589501059573 8.730266311131365 10.875860911291557 -1.7380405402182841 -0.44700891029737205 0.22169054186839884
Ni 6.633845874497913 1.5727892743513123 10.371138168732159 0.2374416340550685 -0.2774302586328642 -1.0620895486964224
Ni 4.068341668718351 7.406832623233149 3.360843846124452 -0.19938107973792113 0.6316056326372671 0.825249552781095
Ni 8.828966320504598 6.236435694788096 3.0639131516922204 -0.21684349818874266 0.7772213457282744 0.3861046186128318
Ni 8.029044735769856 8.370304803438541 1.645181797696466 -0.1771261249944627 -0.8421519849633883 0.09576099435240926
Ni 6.719458539211747 0.4214518791257664 3.1711735116974626 0.5998874755983797 0.6368522257481871 0.48597860669235016
Ni 2.1158728649445533 3.1976165419529456 10.703268233677994 0.1215689565544487 -0.353373704038714 0.15523780956180364
Ni 1.0418680306493817 3.83417985748565 3.7293400609468033 -0.30989017893378246 -0.16088960853094228 -0.5459495879293437
Ni 4.244375154861333 8.495280244461751 7.267602142348248 -0.19653358298679702 0.5601719021763127 -0.9498349275643643
Ni 9.168193224762234 4.541217012874253 10.82623890231076 0.14799912572151933 -0.5020333461623676 -0.8949696429850521
Ni 8.981224616489566 7.075042334695198 7.1809170297270555 -1.1809097388611403 -0.6651713844078544 -1.2799720296726407
Ni 5.719719119782266 7.060617864549253 10.905230048348075 1.9021702529530788 0.3497564190011009 0.47455725222928585
Ni 5.03990986899296 8.784364942973964 9.316546381654993 1.1893946364037 1.767690501874233 1.1637000598510732
Ni 3.609506142171169 0.7535269937091386 11.28498559243863 0.3391416195997321 0.9116172788440622 -0.17647203635023154
Ni 2.4130627419197244 2.6959929998363337 1.8447312914545217 -0.5330282518819852 -0.4543882334805787 1.6252493298564654
Ni 1.2616328469173697 6.104994427782004 5.569272354079754 -1.0546986555489901 1.092274556920235 -0.020564197304596844
Ni 2.099845675893504 4.972659783734756 1.5333376616226237 -0.3676371559362636 0.6455189002842496 0.06784318489621864
Ni 5.404935968425914 2.3153793142520147 12.293319248556973 -0.003078896035639859 -1.0804767929543586 -0.9961487230292391
Ni 3.4651423815930604 6.68380491236847 11.540563391601031 -0.3665058705452978 0.04050310232036896 -0.26080653403325404
Ni 8.260101851523526 2.1598697884881193 12.254942831253764 0.4081464289042196 0.6482522400550126 -0.19301399986931275
Ni 2.820986757647031 2.733276820765946 5.187385651765094 -0.45268487763622683 1.149771622695439 -2.0714948796252517
Ni 1.1813045753935105 7.211548193441421 11.522173336964173 -0.49742310108386595 0.9435966599641363 0.42697924534000653
Ni 0.02816938747612423 0.14141017859584373 13.269656224453799 1.928325571192208 -0.019287387474702267 -0.5125242183913625
P 0.6857457216138153 -0.22749999562371143 9.329602587775666 0.7649268446316374 2.2302458445466367 -1.212908403254924
Ni 0.08134393739000839 2.192427878246108 9.175533677347616 1.4406204687270545 -0.5764274448032266 2.8848579653814057
P -0.009442303949503895 2.107309766794421 5.0955123090882335 -0.2999266399631673 0.2018195139760847 0.5423145622799176
Ni 0.6150868822042979 6.839039686320062 9.193656306887169 -0.39018958731548287 -0.08815232876721593 2.295697646392543
P 3.590319307278627 5.462240038078724 13.238250260628737 -0.6585279109494078 -0.8345011532863499 -0.2039314181127649
P 3.183567565950483 4.767859782843576 6.121915476062414 -0.06358132429607115 -0.5269519637809182 0.07084083407196187
P 6.397119713017043 -0.015931941756117337 11.72216426530066 -1.0927679516168856 -0.42847331338702976 0.6017193866007959
Ni 7.272772055616429 2.7994645323499077 4.061965594994157 1.9138949975891746 1.0516842942026983 -0.9308380747468872
Ni 4.416415581332168 5.825580993062882 1.795993067469968 1.3379208382732828 -1.3209808679848345 -0.12613317888636344
Ni 4.526682642003387 4.601250283862612 10.995387108037411 0.12124782576960409 -1.2062168501673611 -0.6271866776339651
Ni 6.228000814150371 3.799112367841954 6.176604824301466 0.6860685395718378 0.44864130369447247 0.38582976768489036
Ni 6.971039615344503 3.778625041037841 11.056979137640907 -0.6710792652518571 0.8503653740121161 0.7466658415389206
Ni 1.0665041098192805 1.0617600618601697 11.133021280892828 0.8927952610415527 -0.3626289040883948 0.17779332626481636
Ni 0.8702800288294738 3.8997539566888 6.1459351953333785 2.0578610908919006 -0.5356705746008387 0.866708848367146
Ni 7.817348464389854 0.39364516404188316 8.365341869868962 0.7103006726463251 1.3674463585362258 -0.365586444054822
Ni 7.769404273142857 7.276710164926116 5.139921360350256 -1.17673838109227 0.08985439905998718 -0.8577261852525615
Ni 9.199881267114595 8.662027119348869 3.553476005088075 -3.156398598002712 -0.2836530996141244 -0.9252461824814066
Ni 1.6430158375761386 -0.1642063364626819 2.018758173528312 0.7752277123370133 2.1136013218769985 -2.405479380504077
Ni 2.148916349570945 2.1997545932408733 13.037481784663425 0.7025806782942481 -0.3412422108825026 -2.0448325398427167
Ni 2.310690216655365 6.08858258619373 7.729686151156234 0.9007980767413711 0.41599472130404486 -0.9509962948623171
Ni 6.613862259349691 3.517931363130345 0.4536179896315352 1.0311576350042564 -0.9735926921055943 1.4626465952891585
Ni 0.16173814934882033 -0.15791268828217844 5.705780960344099 -0.48463109152552014 1.4146970639930734 1.844845451089681
Ni 5.29250752683124 2.188370709817757 4.726802703691661 -1.9670651538542512 -0.9572900982908288 -0.06002291752085147
Ni 3.574832463458442 6.872165596490145 5.68792667174123 -0.070375207289453 1.4787620127937824 1.197888532807324
Ni 4.609886649162692 4.608870067457168 7.87363412065839 0.38252101502663155 -0.9476577174073872 -0.04758083510275676
Ni 6.595343987200421 5.1908768314601 9.191136832768343 0.5118228214489636 -0.21327506411119396 -0.4546193756547784
Ni 8.593934461866267 4.4025589315983185 1.8175336095545784 0.568880228583588 -1.5103181903335086 0.1124058019979419
Ni 8.508724766477146 2.622460256470119 7.273084356843081 -1.4936461289944662 0.7221627141912337 -1.6954157635692222
Ni 4.566017943131533 8.293319345631044 12.804489500311762 2.129344443643868 0.5223800281395197 -0.33330547253392917
Ni 5.247484863188406 8.544598194770266 1.7557941298118134 0.6158360285078363 -0.8896595436260485 -0.8389553324029615
Ni 3.0319228823463265 7.385841584773146 0.8693183974864108 -0.791292736219676 0.048596677961780826 -0.07708347254756401
Ni 2.6521792441676366 1.2635652679972391 8.952473671010733 0.8673688505486481 0.8063815122319984 0.8366289982626303
P 2.412659772595012 8.964180845732994 12.906495689826384 -0.9632951668343281 0.6801714573611125 -0.3107820946204325
Ni 1.3961238590400318 5.072706076988278 12.51588286995296 1.7333205090347954 -0.8376507546589251 0.6707555633638512
P 7.941380590857488 4.828067063313062 7.226759369609928 -0.19542775151712793 0.5194731389053698 0.6347151248005263
Ni 8.161218674275423 4.98705677869947 13.06963873677545 0.514508595811243 0.6743021430645291 -1.2670782044291082
P 4.604217603435492 2.391155864085376 9.535491521682943 -0.8834778402953688 0.36444821668532074 0.39849553607801697
P 8.08067060130172 6.345741124116251 10.843919181432504 -0.6617970686189828 -0.009726740369460668 -0.2594083681341468
P 1.5918295749439588 7.023746171338097 2.5065250659110747 0.2316607657072333 -1.8722986622046272 1.4866936089360332
Ni 6.987304922632882 0.7619856861705953 0.2865368333727822 -2.165666932223986 0.22894336677607022 0.014345470088394648
Ni 4.085211429993799 2.4233750932748563 6.979411303065397 0.8280661962942837 -1.3183933097633165 0.6898341772618571
Ni 5.097158988283308 5.454720996815345 4.769320546645659 1.1365322411870296 0.07344664712592512 0.027940178053693813
Ni 1.7524311676292161 8.52993560638699 7.41920378150181 0.5156918174860666 -1.0555969989935432 0.017770179499227462
Ni 7.166443104254896 1.2306408424895119 5.959629654767736 0.16699674986994464 -0.07001473862624072 -0.06167896506703571
Ni 1.3960963838588014 1.3787595445024379 3.7127587890742744 0.5065158074137533 0.7486908423887494 0.27514043415742295
Ni 6.491863296293103 4.927609644910693 2.856683428940902 0.2081822229693189 -1.361788646029816 1.2092037007098273
Ni 2.7424810064781195 5.531926256072686 3.9835239525814496 -0.4840366524746309 -0.18380045169084475 -1.7708303330547954
Ni 8.39078297184891 4.909210431880088 5.078033514628847 -2.1608067759182075 0.23252594192100598 -0.8071471867534293
Ni 4.375505036480146 3.5220343235274134 0.45625560702965073 -1.724559475012714 0.6201498253918417 1.1228012647541823
Ni 6.703010064048499 6.4432505423028354 1.2373356283159789 1.3192476873438117 0.7278484517221012 1.1530130124508724
Ni 4.222367534695807 3.9860443425396492 3.2922676254521965 -0.0033768868920328937 -2.673886609702724 -1.289349614232799
Ni 7.240159015495979 7.45786319317169 8.857478231906727 -0.8082705017245951 -1.313513613073512 0.8192228869710407
Ni 5.619453025078902 8.787249837003152 5.033384513450747 -1.5390962909074657 -1.0292007683882018 0.3546955081739311
Ni 1.628087655774304 1.6288935944237282 6.9846920328978745 -0.9120723641036099 0.8270542100900015 -1.0946767386038245
Ni 0.5074501122161995 6.958510932703454 0.5745417572626406 -0.13568071336548243 -0.5815706795670629 0.08513873875187272
Ni 5.7572502173429525 5.659182137138017 12.873829531022224 -1.2050817081216534 -1.138244081671814 -1.2880193254571495
Ni 4.489664414492335 6.535512200874419 9.104987486181143 -0.9558163419587796 0.2574579292759953 -0.3019500981510993
Ni 6.139228503595046 2.199946919509486 8.048466025542231 0.5942318199744993 0.165731767114592 0.1952194921610638
Ni 5.635306204648825 6.377017038750156 6.942857406117138 1.4718395746423363 1.0998780802991057 -0.14820892773948025
Ni 2.68114724357819 3.650370895054473 8.3834507618179 -0.9200093595624995 -1.4740275834325904 -0.19217479179746902
Ni 3.7706755552685203 0.6324850827987427 3.2492533975573035 -0.015280580308154327 1.0150206202330776 0.43385591785518185
Ni 1.9338039973246335 8.211882908464226 4.495699795969273 2.5176820653522767 -0.30572473470218314 0.6218848058050773
Ni 8.480663448047194 1.6599680243952768 1.939096633068977 0.7872926139213473 0.7248752280263904 -0.017476045297576355
Ni 2.470018792610282 5.375638266840596 9.847541808346246 -0.2158376826320476 0.6961313231244786 1.9887608936601295
P 3.368979247286765 0.6170989813097353 5.470750933384518 0.5681181536065828 -0.5732364486697547 0.44049656310015106
Ni 2.7444225859517326 8.298521313277327 9.770896126946631 -0.22215025511363676 -2.123938956357581 -0.12017027643470918
P 0.45406858260371324 3.00347691137915 0.40268083530917753 -1.3433620638935122 1.1111971048563507 1.0662858461659572
Ni 3.8368632668524825 1.0846652046125551 0.8132763544914503 0.6617541311961893 -0.274490716388566 -0.107631263427434
P 6.7488752999157295 8.407570307580666 6.8600865909819 0.07121210136845155 -0.8473165598834632 0.09545143353179045
P 6.309858537429387 7.099009851121824 3.34209111909535 0.054489389297131964 0.40187910783826913 0.399863362959821
P 5.774522947943111 2.204123147056502 2.370217028469711 -0.4738630543757387 0.6888134493068266 -0.33113520435548777
Ni 0.6238212423174325 4.618843558243793 8.554154062802189 -1.7482701883660925 -0.919810613288132 -0.926344814862224
