# total energy = -340873.20574778 ev
CRYSTAL
PRIMVEC
9.21841674552340 0.00000000000000 0.00000000000000
0.00000000000000 9.21841674552340 0.00000000000000
0.00000000000000 0.00000000000000 13.49208471891727
PRIMCOORD
 96 1
Ni 1.2579451465212044 4.602257677122419 8.438152419931638 0.47488455366171767 -0.3940976641206374 0.2501655093796401
Ni 0.12554193003380973 3.168397484206196 12.170737288326754 -0.1327267729434811 0.9460888302583706 -0.4642728395841424
Ni 6.526380926813061 1.7757897061418162 1.847916442294617 -0.9787832351675984 -0.598660545169814 0.2631835189058629
Ni 8.539867508252028 0.04543665420407712 7.707663876151942 -1.0681013021081411 -1.4446352463134022 -1.2320322685685683
Ni 7.501385208742623 3.176546564592571 4.693883208335469 -0.5794641747470214 0.7958728993911907 0.1765558543132895
Ni 8.355840255137542 1.5517176507666812 3.2880479241099922 0.6459454462987069 -0.4397164904010169 0.8062526999636179
Ni 5.6476353523433716 4.741418896028208 3.6854437289382784 0.4582451453328237 0.2624646384619674 0.05757599864225568
Ni -0.12195043487709961 1.7286098493347257 5.827434117705334 -0.022345971795367965 -0.8189817174945121 -0.18884752719644896
Ni 8.790000027713454 2.377586386892199 1.0608176013964492 -0.5747760252427327 -0.6973376847277538 0.025296055562627404
Ni 2.4458395443364536 5.916951397012996 10.418277551236791 0.3934039804877225 -1.782327020840485 -1.0402595973055246
Ni 1.6017736535924918 1.5834290043064214 11.179527951633382 -3.139460941707109 -0.8202099334746584 -2.797507820800511
Ni 8.453970301192928 5.778334064694079 4.2875547576990405 0.7134183923397004 0.07249122519119128 1.192098408488108
Ni 4.678816628037402 0.9131330343851815 6.012437601151174 -0.32935034454092316 0.3604084993983083 0.5421191584396599
Ni 2.1505828749979834 1.8422452723243703 6.3330227922878395 0.945881856453887 1.4242250580881666 0.1388475411292383
Ni 8.05676716127423 6.008637769776442 7.433774574944217 1.344929408380632 0.9291190351732513 -0.518911352864629
Ni 5.95407396117129 0.34483054896947635 3.984712253236195 -2.253589147258267 0.11619997893305149 -2.8329849306611985
Ni 5.82944096702673 1.540867574279392 9.030927036231631 -1.7766430830818305 0.9384251430655257 1.34368165201646
Ni 2.5558982216361508 9.011619984239296 5.40140775420736 -2.4368275557980548 1.1027903688498943 1.9375154652215922
Ni 5.08634439468997 4.60900555816634 12.110683912560871 -1.5657581164693681 0.26551705213504595 0.17369113117098475
Ni 5.146374724414035 3.4814917899107702 5.947216380968322 -0.6272931213048423 -0.4944213381430646 -0.16636914358827476
Ni 4.212945501921748 3.5931636901376343 2.1080573967961884 -0.12188597357423525 -1.2638031332222621 -0.3373989258770125
Ni 4.232931029385165 1.5565481011314555 0.5615407767466937 0.30713729877899365 0.6695990811619049 -0.6776042108545686
Ni 4.129159312293057 7.3735626424106355 11.203894992566983 -1.1501302915864386 -0.7720986797897282 -0.48514145550303545
Ni 0.6483100460281351 1.876703714048658 8.142608135991296 -0.03634382873635676 0.8549429660804696 1.387593265797746
P 2.269187024603302 8.644026398846657 10.019086920671823 -0.5969623315317849 -0.9408376091617604 0.4867280832638649
P 2.3855971910276743 4.574344311274066 6.174666064232108 0.42025632479387626 0.7133446016789714 1.9000560348235536
P -0.055345530343573264 7.273284705257934 2.8510931275825526 -0.6600404909391924 -0.37201420195803675 0.6239082639930094
P 8.802306614043557 1.075457369000072 12.060560615292957 0.9823092460429856 -0.282334637913017 0.9912343164467573
P 8.930129180375545 3.8051319643506534 2.9206045989099976 0.48287991316236833 -1.203904914204733 0.5639509096027707
P 6.270984691400705 8.635112189871968 1.7019861399864342 -0.8547169661125925 0.9115458021761784 1.0597763271822136
P 7.490194050836449 0.431690158734839 5.166713317238084 1.9242534580053636 0.0032185069372976825 2.340001610516241
P 5.065307967719712 2.4808049989807084 4.033229702310324 -0.19051488759654286 -0.6413318587860954 -0.6944552209736362
Ni 5.478246944990834 5.369045580446717 1.2692128172862116 -0.22652601558382923 2.47763970471841 -0.6536584986722485
Ni 0.4366846969173481 0.10109376703301179 1.9438589580607664 0.255743774798366 0.37176737605455334 0.14591961748467128
Ni 1.527510088442449 1.5247998739248088 -0.12443664186828216 -0.26785804156339676 -0.458955541136287 2.9565606332330305
Ni 1.9580101495778754 6.543886700177004 5.057075921582796 -0.5715582896363833 -0.3840096837570161 -0.8638603231747575
Ni 7.807243057316763 0.05729891284795435 0.37821688882845217 1.218569201085127 1.3294477678052654 0.33133395062985516
Ni 7.011656820138351 5.603746470307701 9.664245171137186 -1.2601269699222555 0.2391591309668075 0.1244341939173857
Ni 4.165655024113938 7.991021413179629 4.495859633104882 3.3895110085548077 -0.852086727578597 -2.0039111190380066
Ni 7.007877269280417 7.510557533385659 5.7070978275970745 -0.08053852097570001 0.24562622674838988 -0.14476802037873132
Ni 3.277294640998333 9.533225657884387 12.14485934889165 -0.49860786542058644 -1.7595048807396472 0.4366617627350931
Ni 8.686320494788612 0.4948713432960807 10.053262357002602 -0.33970083453731176 -0.2002621967912938 -1.0356889472157067
Ni 3.604262663876544 1.0858833983179341 2.7269800521413763 0.6191162419210048 0.16523837241794123 1.5992248807682456
Ni 3.259512315132589 4.037039673943457 4.2500874247551685 0.7543498404467396 -0.390573710127779 1.126729653274311
Ni 0.5851712661838361 6.834239171816886 9.289921219692404 -0.5807723520354837 2.1371297440162422 -0.6624287886657108
Ni 6.813147434346268 1.7528081932422312 6.931004892196727 0.605378323509622 0.42657455370242015 -0.9624847551178909
Ni 6.388095457496304 4.207220865134487 7.757045090873361 0.1733635726282369 -0.3251568752848658 0.5999826064153473
Ni 7.016164625917692 3.1665906745277694 10.705982493592776 -0.41460169761126014 0.320962377587544 -0.863247629291423
Ni 2.296326043446615 6.675239920115305 7.450869206922152 0.8088749680778133 -1.044863414626123 0.330849811904585
Ni 7.276852232531155 4.48348759601602 12.509415465972852 1.482054053281493 0.9774987120282197 1.9868996720816752
Ni 8.337348111183843 8.083731030199736 11.908032692133496 0.37235898689196517 -0.6299886658591344 -0.4345164342573162
Ni 6.981291355440705 1.975515922941819 12.673816709876261 -1.0248162661672608 0.4801046644100764 1.5006598413081382
Ni 0.3948081952531104 4.48547877402898 0.769866854511006 0.4625975087642485 0.4876883902946052 0.5520821831896429
Ni 8.675488855134777 3.763658307497371 7.107306190252593 -0.31002927561480803 -0.5107275315022559 -0.22785964679358822
Ni 1.9668874848856572 2.84515370168556 2.690416124036718 -1.6000085530118058 -0.5575444918557947 -0.5085829743554273
Ni 0.6903211365765821 7.1514725466317355 0.9178989558328692 0.172573986847406 -1.3295464981666585 -1.2326339067083092
P 1.3385141087122885 1.3329830586762874 4.078859943265662 0.8064671299672691 -0.10080524164453607 0.3014911562368098
P 7.43747392557663 7.766175010799453 9.805049111903665 0.41359613916488125 -0.08639266576363186 -0.7551923909526929
P 3.824509076310111 6.054084564238918 3.5008449339867385 0.0736829315064473 0.2884528349956129 -1.5617711067971618
P 2.4890739187845297 3.4981494689358605 0.7148163135026862 0.2311619716939438 0.36499329055551333 -1.2502590759892402
P 4.037989170866304 7.93158106212607 6.610675973045064 0.9974592143105468 0.542787131040962 2.265785946434775
P 3.687910577254335 2.324174880377881 7.8436908333706645 1.0531665351751796 0.48851448574032647 -0.3465458824836032
P 0.48672595027639626 7.417986192616452 6.409697895253579 -1.2279411292183302 0.18195799916546726 1.3509781856778733
P 2.0663357645329588 8.713966526551891 0.6565070621814888 2.0672013944562204 0.6541066419532605 -0.5081867673582732
Ni 2.3157769027398856 8.359075919408602 3.2501086082297146 -1.5175766716681347 -0.6499031453948743 -2.204231936981378
Ni 3.2374618623223976 1.31540353797853 9.717660365018192 1.183310377882833 1.034703957594618 -0.9659994531393684
Ni 6.132542508999595 8.847181866668981 7.906348411861832 2.0021008053021454 -0.31149249042389576 -1.5848683549362577
Ni 1.6239623826535832 5.228566127949014 2.9903317811888463 -1.7825458217195107 0.6721737838676166 0.06976971249497016
Ni 6.378231751598768 6.72794160854167 11.92457421910783 0.10673240576224843 -0.5733716886960383 -0.15357739114024518
Ni 2.9819365690758692 6.120540130421472 1.4197993418830348 0.635974451128924 -0.6162067815836936 -0.20918701008474944
Ni 4.277409890091342 5.94056898066672 5.651510774735263 0.8892697643867976 -0.8593698915035717 0.9454889918908426
Ni 7.417055132527058 7.019870429441813 0.7163935846046191 -0.3843205301292155 -0.05639791917375449 -1.2127279118130017
Ni 4.228672120857445 3.6097199665787314 9.972391030742884 -0.15265359377439514 -0.3319258185775832 -0.21029489843694749
Ni 5.786676731831714 6.61966208567022 7.784487395626981 -1.3090038981286165 -0.7380197358281484 0.06829544194228884
Ni 3.126914608936187 2.8811608374199276 12.115433240858453 1.7935910237900787 1.3124944277803783 0.5319625296216323
Ni 2.060629564579151 5.3893814077457485 12.894358111645081 0.6126712576266093 -0.6954988317468022 -1.520032332297479
Ni 0.8586217707553717 3.8006518138214926 4.973061115219284 -0.8747157778320226 -0.28887321036248315 -0.388612215526034
Ni 5.502454507315067 8.70351284198385 13.142140856682882 -0.6875762344656159 -0.43266266887802907 0.396566180265788
Ni 6.415916639177389 7.094475076010743 3.1800302042735797 -0.17858239782501503 0.12315095632958792 0.22226544053526234
Ni 4.086579445432574 8.07093586778312 1.8060233474802712 1.181398762682417 0.8381804019101501 -0.848801629069422
Ni 5.756726095886767 8.81765527789346 10.76629214134366 2.0007918566827345 1.8208092360760837 -0.2829262487504288
Ni 4.307609423287908 8.618832465932671 9.020848541224364 -2.364181035975922 -1.3988552118648103 -0.783285035423851
Ni 1.6583655138775109 7.589485617399396 11.878201895605997 -0.5885401689063606 0.6709309125994509 0.5479871871846627
Ni 9.541153496269324 8.682430322929958 4.489154156777903 -1.5791327380040612 -0.6121236126532554 0.9334875965545923
Ni 7.813742041109064 5.361809123316282 2.113521152390085 -0.5831076850368796 -0.769864648252887 -0.043023554749377524
Ni -0.2547804451750136 5.1815614210597305 10.607868118845822 1.4210332906237464 -1.0358833226146997 1.5876909119867173
Ni 4.006462185661096 4.815350598176091 7.80793720409628 -0.9092657478927502 -0.9724562645083059 -0.08650450875114779
Ni 1.5841572592278281 8.845282872823287 7.857020663957428 0.8999123317023082 0.7821563211360465 0.4202704658612633
P 1.8448817395081978 3.725604683249683 10.533122430500974 -0.5277993993828781 0.36515964093004855 -0.3755075598232759
P 5.042114431235413 1.3884502721206526 11.89821046911123 0.30770962634269583 1.2167007804178207 -0.6076946303476244
P 4.28314374529533 6.504201416168695 13.135893535667218 0.4213922381705323 -0.06802650455161832 0.5606976927727957
P 6.064648869807681 3.5235554254345596 0.7334430463405928 0.45271007444720746 -0.9758146394575775 -1.1049966324725937
P 8.926764458270311 5.971247871533073 12.773901060277703 0.036104973252673304 0.3881152212849574 -0.8983688984745882
P 4.698488729332113 5.709334215494964 9.699054834538758 0.42415463140701787 0.49785993151096836 0.3123802923454878
P 6.781141091471276 5.066543235561085 5.526451889737929 -0.13600107281937868 0.8050658787443683 1.9825020572346115
P 7.711841662612469 2.561715042590679 8.863665317617937 1.6541742404209319 -0.08952761184818775 -1.5171683804861225
