# total energy = -340897.89998611924 ev
CRYSTAL
PRIMVEC
9.02090441045242 0.00000000000000 0.00000000000000

0.00000000000000 9.02090441045242 0.00000000000000

0.00000000000000 0.00000000000000 13.20300545169328

PRIMCOORD
 96 1
Ni 6.3366892676235675 1.9047730079194582 11.43198119472768 -0.002226575337673585 0.1447831898873829 0.15702292648668442
Ni 4.698718531453833 0.31907660919681924 5.982545696330025 -0.35052312196379637 -0.6085672627605648 -1.0584545230469964
Ni 2.9381897866287106 1.6498242046941847 4.8410801317772005 -0.5546609996604125 -0.7983313882340122 -0.26108575583656973
Ni 3.3949813282364585 4.199222027901833 4.801087755818719 0.2938830048722487 0.6309625997366294 -0.6749708869967795
Ni 4.880210109264649 4.698087068138223 2.6124259809195816 0.6716451650576563 -0.5126905687658978 -0.4215948410996417
Ni 7.269396668397537 6.101099325473994 2.657566587081186 0.627704497810648 -0.5058632614314191 0.03428720331764418
Ni 4.949472614082555 4.5602927517676175 11.434450216291713 0.33439150650925636 -0.026807864221463504 0.04087282695496187
Ni 5.623433410833082 7.909880888516228 12.447556428499597 -0.1837364312221287 0.4882643174027333 -0.5405505284009593
Ni 1.8640526449671235 6.575238066451999 0.37204736047198755 -0.013581852449492737 0.041451582276567325 -0.30403397726332154
Ni 2.7082920352241353 1.6092030716914458 0.33395568909349205 0.06480851183495291 0.09128521796924277 0.2808788793030969
Ni 0.7089384518926151 -0.17420990369138198 4.491569697039332 -0.21968431007164746 0.09706968586150379 0.6992320735369894
Ni 8.734445686039734 2.305373335342427 1.4836880105381018 -0.6102235674170651 0.5431866804722257 -0.42393763030020537
Ni 6.962099556308196 0.49996198222464955 4.723811079435271 -0.1783142317652929 0.4246940488502557 -0.32990364594123184
Ni 0.8836769805882077 7.357981950673108 2.587564368093566 -0.10662313387789378 -0.5499617944125303 -0.11151774296603376
Ni 7.473539737429734 3.7876613015007767 3.9595420076480083 0.9327563748155225 0.06217544508748002 -0.3222798108473869
Ni 7.5166055355543335 3.7474461092009297 12.750155453520799 0.20669021180482466 0.0071425245820522145 -0.021205173322705415
Ni 7.819067442827004 8.666897153078484 6.994067837706177 0.2525671768425973 0.3369687803181293 0.43134395006660553
Ni 7.001602097151855 0.6244739187966246 0.38528102738627085 -0.13923320660343116 0.2717833447597319 -0.03211487825667372
Ni 1.8104143467583105 6.52837446752923 9.257155683164008 0.12332039202791666 0.46961404929139766 -0.8201819084502003
Ni 0.144209081566752 4.816576648860181 1.4217396550958614 -0.8527770687774023 0.092141395321951 0.17249582531130292
Ni 6.410173555751551 1.858243182463512 7.060386821382889 0.07118870432968384 0.2587992737952382 -0.46871390607463154
Ni 3.4887175469865053 4.216677478126194 0.22042670376087614 -0.38212532225010964 0.22341086699361526 0.790522947933187
Ni 5.961969915236099 5.540865071864824 4.825712118856155 -0.5882339505198515 0.07281904084425524 0.13326053395976403
Ni 5.217240122614711 2.695130535545922 9.32434518412581 -0.9124030079701511 0.3479535614644072 -0.48817304324050764
P 0.02908971076924986 5.421518505214538 12.4445064606852 1.5883311166738774 0.5109244780044103 0.3012826397704295
P 3.9798787347724534 6.275121594351595 12.604434468358388 -1.0346653910471986 -0.32583024720280657 -0.15228181225727322
P 2.4024743514742237 8.603353901719103 1.4605430758400946 0.07869298312652899 -0.5698644468737282 -1.1484806717981577
P 6.260534791761005 7.754107909459755 5.8614878640944355 -0.3182732607911551 -1.4018721443142632 -0.4437289539945196
P 4.641255369733325 1.129507453536073 12.587560866474837 0.26528333885768507 -0.3691425368371965 -0.591893915869942
P 3.8643299689203365 6.2104687717376414 8.20274996593433 -0.08484306188832484 1.4757468801165423 -0.6032453363270192
P 4.789432747193461 0.976088930556375 3.6947820686790576 0.45488497061133915 -0.36234068342401465 0.20919215229107196
P 0.28146394784773643 5.465152620323187 3.773168316317077 -0.31762534279451105 0.25953332374778526 -1.1012551631522904
Ni 1.562276326437116 1.237235095179135 2.565013911002683 0.3331794884790262 -0.1985354439081742 0.15623205515427285
Ni 1.9395576157050594 6.466545188026505 4.8987507743014085 -0.7872285934526313 -0.1291729941539517 -0.7781873091859693
Ni 5.983953859523835 5.647843978433661 9.316265159957355 0.045988808025288534 0.2994594705187617 -0.5492539697122283
Ni 8.51148501020236 2.450321228988443 10.077259643407956 0.3617333888573189 -0.016089449362694873 0.2714753266010099
Ni 2.403159940216886 5.0427217039891294 6.868573524633203 -0.14592218858783257 1.0645459806567148 0.913394168238827
Ni 0.5469726218909104 8.886258488016882 9.051598136304845 0.4195230461722775 0.7699788052332481 -0.11951747334205867
Ni 1.4659781708065944 1.2077096747221143 11.373320056888414 -0.45759774155681193 -0.17177334532298158 -0.5662142517156507
Ni 4.081896143861499 6.941116932420928 1.6465866020660074 0.28825486005219386 0.6825165605545214 -0.4682961018109225
Ni 5.513549773012437 7.878217513690641 8.00123288220462 -0.3543491805781058 -0.051187321507092494 0.5783202909505653
Ni 5.262876878524294 2.6989914826756514 4.931718571918954 0.27100044384712035 0.2855428604376695 -0.24774944373897975
Ni 0.813958018002161 7.516163511233407 6.86985359098299 0.08534776943888527 -0.9903408580982105 0.5296274537305524
Ni 4.970319924402192 4.723724478751988 7.112590795774817 0.5625113489427667 0.12113803966461717 -0.23595913597227106
Ni 8.234083175654897 7.015990439843254 9.276220462752724 -0.8047663452260785 0.622495957026515 0.009685859829196222
Ni 4.480286349679833 0.30080025666216476 10.364478026241802 0.5683701217163889 -0.44619669880872187 0.008418563080998403
Ni 8.183051918849102 7.0241182748056055 4.91405293461954 -0.06557958567302254 0.21240654546331159 -0.26747314742015227
Ni 7.177563860498829 6.033839461457023 6.999467751145093 0.11254387023770294 0.11069730394726741 0.4129585055808824
Ni 2.270660894792896 5.4063363229263715 2.41047228541165 0.11162264397501423 -1.5467260395385813 0.9069918642569089
Ni 2.3514701573819554 5.173849571927796 11.447019042543706 -0.2729969054518589 0.38433621385849936 -0.585285666524805
Ni 1.156732543343372 3.3053496210378768 3.842245892592554 -0.6125054214727065 0.5581584712907097 -0.3563183884893348
Ni 3.6505615947773418 2.625624466306281 2.673278296464013 0.012072872004134046 0.3981034428459208 -0.4892367086183317
Ni 0.9972609934383266 3.4027393061139524 8.011623160017757 -0.38287377038035997 -0.31026350311280115 0.9106950241401089
Ni 3.7382447866020416 2.8255818356464344 7.0352085748086175 -0.6407299635360385 -0.7360428146074356 -0.0659937903923057
Ni 4.023034741942141 6.839487422225757 5.945827908708207 0.9904087352216686 0.5062522693397217 0.44092902265187933
Ni 0.8078950680818544 7.369763251961489 11.476170997554064 -0.13994617351005573 -0.04192235126539877 -0.3327657979803753
P 0.12301266224262684 5.580899846074495 7.993759964909602 0.7451260078556264 -0.35091110143083437 -0.9461160839518802
P 8.586286350388617 1.469469260851467 7.939601160510636 -0.9441700159691029 1.012161810628044 0.47335706127359767
P 1.710652163796443 3.2702041770719275 10.214003926493746 -0.15959891474397675 0.3466471839481578 -0.008584656345217472
P 3.8009671356511294 6.164029155326783 3.7513828319285327 0.9351729546768152 0.18936894691755773 0.7019733837275524
P 6.660251070542119 3.84150708051329 10.351037780614266 1.84435539882714 0.6147461378777671 0.3224343341473802
P 6.41971767272177 7.715994587910439 10.26700083839199 -1.2123653862672603 0.27547082091364816 -0.23479699734336984
P 2.4356532382572738 8.527461032087293 5.754622620922406 0.5070264285015849 -0.15118729364151381 -0.1173600606794237
P 6.8883085574269165 4.094471284746646 1.7709722459748605 0.10350207175040885 -0.3711307709118189 -0.5767809714879034
Ni 5.396268993494647 2.8092179148676273 0.6104951251699215 -0.2411414515041589 0.29185800402241996 -0.4395231434432882
Ni 1.4530782773591335 1.117617901393588 6.839843747953851 -0.37810797356060044 0.3840402798846354 0.3895864065138452
Ni 6.763414134503772 0.7936844372092773 9.225164849504756 0.16390011322249193 -0.9070705400136443 -0.4405556984728606
Ni 2.760496009616063 1.6461978010816818 9.185093089586598 -0.3245387820848927 -0.24468057500566892 -0.8668021794119007
Ni 6.418157056241763 2.008179636302846 2.610696673525261 0.6534268422774167 -0.22039007788942042 0.3993308874951187
Ni 3.9512824674798304 6.612503422977496 10.35287263259134 0.7933491045280724 1.845771819558692 0.4989683340837987
Ni 8.279557555283326 7.206953967388219 0.34982526430522154 -0.3890580448142009 -0.4282180028431142 0.11212426620178109
Ni 7.551236787963287 3.7962672444020895 8.185189873217668 -0.20475802777911833 0.1399968242423331 0.07381919997399544
Ni 3.1177599117791703 8.386509399138637 12.369116957524977 -0.08261262989590933 0.0693213121036419 0.2476815666155218
Ni 0.15200945769543694 5.005420263845598 10.149137308442937 -0.1292177313489581 -1.5543161931810134 0.5335686977664875
Ni 8.408078381818973 2.302450562281604 5.788039659584487 0.8119687765117888 0.06271409119976941 -0.09809812712601815
Ni 3.5269661821034526 2.6906651878141084 11.278561769657529 0.3990442094926353 -0.2640186132126485 0.7655629355537396
Ni 1.1381945845779646 3.4034068530475974 12.411248189942475 -1.1857410988115127 -0.054516385880325466 0.78555840483906
Ni 2.96590200527948 8.499315810020105 7.913195168832729 0.7872771873023795 -0.7971337683814852 0.6113332555414761
Ni 5.621872794353075 7.657250457749693 3.666752314189582 -0.6663990861673684 0.8659326323227539 -0.3253065134888526
Ni 3.1372811491360273 8.407681462020589 3.5486118424721114 0.21309971487559431 -0.057654931509307165 0.41283097886408254
Ni 3.465290257977375 4.382202054956586 9.156152223741742 -0.660269833341179 -0.9606839544637262 0.7489816341562907
Ni 7.238085108847791 5.975871129084027 11.508320599132672 -0.7828957704052324 0.13959907458328216 -0.6557488055423739
Ni 0.5204457500925863 9.191940858199162 0.23874635663717242 0.7994346486005199 -0.31659535886809986 0.44496539750478203
Ni 4.79553989954586 0.4125485154447605 1.5388364081616737 -0.5340044997523256 -0.70006151141682 -0.11930304333840745
Ni 5.815524551441637 5.692795145600583 0.3037113025471268 1.058803421745983 -0.6296814190313608 1.2723757053826215
Ni 8.018853414981491 8.98629129811401 11.124694005633298 0.2046415568059121 -0.6705339342713484 0.37038540810536213
Ni 0.09834139050174508 4.724364962972106 5.844865043356229 -0.2044636364671511 0.08414989247604217 0.35292273254422446
Ni 8.118272803572028 8.778043717530348 2.4659120582508534 -0.7866575514405098 0.31995553358958445 -0.08707940741801132
P 8.679724879289875 1.5071225162708388 3.637969314173628 -1.0557726053394592 1.1997626099015852 0.31261760516727455
P 1.8214829965905024 3.3719238963121856 1.4748944328230074 0.5379521715461638 -0.6878577702617766 0.20603818004312255
P 4.626704650760769 1.0838436349129632 7.955062088748121 -0.11381168120653302 -0.8189626913311185 2.055537842075363
P 8.478206893469714 1.7089832964623308 12.28014197217463 -0.0031141201489494758 0.5900041550463968 0.8727013185051552
P 6.397941209237735 7.690699971668005 1.438058471352125 -0.4917934136019143 0.3724428048550231 -0.14573706916021997
P 1.7847047689084756 3.140600841995234 5.980868710181854 -0.11606705289961301 -0.09748131947762567 -0.5099785691513733
P 6.7010075171124885 3.8934855322925 6.105940844923821 1.0462916624322174 0.11086005477737683 -0.4086696483975414
P 2.3414659742817916 8.600440149562788 10.217792706387407 0.4477311331753773 -0.8285372223934311 0.008519864545553068
