# total energy = -340892.60290833807 ev
CRYSTAL
PRIMVEC
9.04232191776265 0.00000000000000 0.00000000000000

0.00000000000000 9.04232191776265 0.00000000000000

0.00000000000000 0.00000000000000 13.23435213855139

PRIMCOORD
 96 1
Ni 6.496374786625923 2.0037604479236726 11.363200191678287 0.2617704406084201 0.6267017675777464 0.4514245228665645
Ni 4.784961647982209 -0.04467268710422528 5.965436771748829 -1.5418998217945317 0.5366452798092822 -0.2668059461497985
Ni 2.5404945911373 1.4692235889312273 4.775351468269156 1.088223783889629 0.5033024426827784 -0.030411779522637943
Ni 3.5036917620200585 4.35187059836194 4.941442645353567 0.18388812630864457 0.8131573975032512 -0.8903136322702796
Ni 4.950879212486182 4.229310967358242 2.657180329836143 0.5246467126865093 1.9354806941797504 0.3174569355374468
Ni 7.184025282314962 6.122583284011871 2.5939989140391724 0.8010570146952913 -1.6392793255869706 1.1744202744820549
Ni 5.194822972646856 4.44919310894869 11.49781956739717 -0.18312270889752977 0.2659379417225485 -0.025271630082595187
Ni 5.550719720225027 7.938977779889828 12.582268849537197 -0.14514417277122746 0.4741826424986866 -0.1953472759881797
Ni 1.8553126493263796 6.549353750625531 0.4228334396593273 0.1957835921946499 0.7171544623433649 -0.6624503859322655
Ni 2.8425352694917727 1.5729299787778712 0.4759697400599567 -0.2520493566659143 0.24058866432448242 0.476460897009902
Ni 0.49561599284745367 0.15787080224706088 4.862446208557227 -0.6072649990093735 -0.7612100579016826 -0.2396738658196969
Ni 8.450773199309136 2.4033135256247498 1.3635486856074175 0.6885499112327949 0.6778296966018132 0.37275596522006765
Ni 6.977281634442115 0.4815244384018168 5.039667579665724 -0.4037267025699692 0.9892841346989222 -2.432338152568134
Ni 0.8441396311501048 7.7243311426782455 2.5199269257484103 0.03115894210130763 -1.4733177018497594 0.4435672316056748
Ni 7.495894964572416 3.7492360131566542 3.7852633362943284 0.4234977145493094 -0.48130896913082266 0.657514639193545
Ni 7.3595186657087766 3.8943291103298385 12.860163815727793 1.550596321127265 -0.6827906401515145 -1.3305895947191924
Ni 8.000438441829635 9.044672901561082 6.955406449306794 -0.1140821612591003 0.23646435774346372 1.3500988683967134
Ni 7.046012323187807 0.7550781858492474 0.294275132308584 -1.068001286195167 -0.8108989404863777 0.21957555240792506
Ni 1.6463355479447608 6.511683437599014 9.29657661768845 0.4823978313196273 -0.017356746110892687 -0.42914977062876414
Ni 0.013015518139790678 4.9940834265141945 1.420747701236759 0.08112858915121511 -0.5009686523432793 0.042169434279198344
Ni 6.170769817405608 1.7609017663907436 6.9699112378631645 0.18086785142508205 0.5301858973371836 0.841887675558408
Ni 3.390192537558024 4.210946011583674 0.28325073345070373 -0.5195690410532858 0.5472163704569092 -0.024184824776319638
Ni 6.034628618911312 5.531043627775268 4.790226992023337 0.041529229592038155 -0.7018592267471913 -0.33941904163083475
Ni 5.206641287367368 2.9098011020900096 9.31387367524688 0.6558717042734834 -0.7164065284337469 -0.2525337525015005
P 0.01355986591804231 5.660809989331566 12.41886414628864 0.890716524135653 -0.7899755600701492 -1.060489294088838
P 4.034485099746787 6.157224419202602 12.593928923624496 0.444507484031757 0.3364815562690656 0.1585859000984301
P 2.476682925504048 8.551992950633867 1.3882170439769903 0.26947912210658753 0.0009160840563661643 -0.28852328322223214
P 6.400462878255241 7.547562791896832 5.783252974382782 0.14045268083282908 -0.35801994456147374 1.1647727240899617
P 4.779653805028161 1.1464126971773527 12.702159187116644 1.0190832203382256 -1.6806473470107959 -0.13057347404590416
P 3.994291978910765 6.072326058903522 8.055511607580787 2.0499297518599664 0.5790797948244092 2.4769637616973084
P 4.648585349118569 0.971913969192303 3.5715281651300517 -0.44782549266139654 0.10915387071954749 1.1462551249017485
P 0.4788623788350846 5.7247120781837975 3.525816515239761 -0.6590578153109489 -0.7980028012499999 -0.3713554853281153
Ni 1.2569460400568866 1.110261494229678 2.4807528745902783 0.5979686613091121 0.2650354845129371 -0.03132092160046864
Ni 1.8370019474831978 6.714575056343367 4.918308769010063 -0.5636745160129325 -1.342250061776256 -0.23673946578172128
Ni 5.892546614930118 5.52272469162923 9.191720948728586 -0.615015846599386 0.23129798305117585 -0.35680689808997906
Ni 8.883294582649839 2.225333503709021 10.192687898178738 0.2833365968149701 0.7398889278264031 0.37047642515727164
Ni 2.351519105793764 5.499983252056093 7.056887523734373 -2.9480405115771617 -1.5496511836051763 -0.46112349532188324
Ni 0.6445131948430708 8.930649222428972 8.959867677177552 -0.25313976151661566 -0.28009135040479505 1.1211470169802111
Ni 1.6406569697928999 1.0093401395275772 11.462113246686872 -1.3623100657509248 1.7420396340753483 -0.46155029844665674
Ni 4.341815536411512 6.7731512175977535 1.5964463453376556 -0.32604621986835464 0.28369269460280816 -0.6435651189919884
Ni 5.639090332132889 7.977452859565255 8.157893297269393 0.09130810078737824 -0.23244083840636742 -0.29297900500074064
Ni 5.025894314950892 2.630628455815245 4.982958657883247 0.46588594970753316 -0.7491484987514582 -0.6768814737559311
Ni 0.48146114214853175 7.391456146652045 7.057310704399193 1.0963443561142343 -1.360929126242998 -0.6829353932594947
Ni 5.0217891008092606 4.373680678779597 7.145491427547198 0.3305019416468631 0.2688967672405562 -0.15601222583398291
Ni 7.927620623586106 7.094650972676438 8.954508292988685 0.1810473144257398 0.922596146453069 0.48865126842850676
Ni 4.6779186413552525 0.5388862158253197 10.414217550818977 0.6572012217181843 -1.0602239562425935 0.48465474567460404
Ni 8.219551986058763 7.047603771841833 4.637568184118208 0.08214160379676176 0.6322460944347434 0.6337419622539795
Ni 7.105275700906432 5.830751387080091 6.958807266572583 0.6732940135149889 0.1482932599231704 0.1304541748592205
Ni 2.3721265573990045 5.356345968708466 2.330410709555382 0.06884231558469435 -0.5115435996456481 1.7176956580133447
Ni 2.3850118661034663 5.497993941238562 11.41738178449031 -0.7239812554572111 -0.7198551491039796 0.37090451383362577
Ni 0.9771313889273727 3.304860145807847 3.5351735099396744 -0.2625453711012317 0.9680589067715586 1.0190626515129353
Ni 3.312392399948771 2.8094132443798836 2.8680825415498177 -0.6201495682815256 -1.334237732994741 -0.3425982106897648
Ni 1.2616751744094714 3.362649625057119 8.0636379422704 -0.41676476670085 0.3985808967029716 0.36037147551278575
Ni 3.49825732655944 2.7117019139515257 7.111598092377422 0.40457902326793543 -0.8225072141492673 0.4375140834330595
Ni 4.095665449707759 6.492495630531738 5.877468543165423 0.8202544135593486 1.8065455270682178 -0.22319515143838337
Ni 0.8972054014399308 7.620905064810437 11.477531309754927 -0.2004329180412032 -1.8135001040091798 0.01843223856325858
P 0.06335141144865046 5.458967279927365 8.133885932630555 0.9573942279688609 0.4987580178452055 -1.334847598664598
P 8.908441279847809 1.6832282212880607 8.061467785014912 -1.0270325570922894 -0.4449787672412207 -0.5745811356231073
P 1.9771850638658397 3.1723358760726987 10.43846272852373 -1.3330401131422138 0.8658513854628572 0.46974106178756525
P 4.167506697186317 6.120358872824996 3.639751579617273 -0.6828508039654885 -0.826985304525279 0.5786038836292551
P 7.101477925709327 4.042785951249029 10.387669293726836 -1.2384240310275252 -0.4823636356475821 1.8326201126680823
P 6.429172250280971 8.145115592195518 10.239696217029183 -0.4607062052788065 -0.5249377615643669 0.4837576877816314
P 2.338832728171056 8.537534277919177 5.786178165516742 0.8449292905982094 -0.3300867084863154 -0.2766645841114332
P 6.873484821376493 4.129890638091188 1.7498728463719146 0.30787983337197294 -0.16476400388468398 -1.1493041961407173
Ni 5.309606206818388 2.9246395523244106 0.520120685190675 -0.3763673367204099 0.3704787391501168 -1.2880370660689624
Ni 1.8049650009990528 0.9834881412215736 7.132494898283393 -0.957346405450061 1.1729976831029154 -0.038874565578010466
Ni 7.0266527120044735 1.0501119689650624 9.193494148052757 -0.3392262088937384 -0.7354789716841656 -0.5826335736139385
Ni 2.791409981481229 1.493981466287589 9.408208602678574 -0.6233426212975265 -0.3086041131325072 -1.6701618740984396
Ni 6.166113021628206 2.0653024907605597 2.3865373058076362 1.010190802944602 -1.1238459039686126 2.030142027710078
Ni 4.239058590364144 7.027692579022728 10.465209916697622 0.48811082254400456 -0.27022937000905073 -0.501740240401981
Ni 8.24900282848012 7.2298969813028435 0.29920048504635244 -0.2949176167843502 0.5554472430071338 0.21786114081997962
Ni 7.642353452352179 3.903932056185374 8.416293921680378 0.23293680420617946 -1.7198186178936188 -1.9622782739885687
Ni 2.9601939620268265 8.486644090277977 12.284549496817714 2.180180038238497 -1.2268131862614742 1.6622529036640081
Ni 0.3094861262051769 4.673316099509238 10.210369254417827 -0.6141069616318714 0.3935024537387997 0.8986766595229942
Ni 8.685014548073399 2.3148977021074 5.787209894445289 -0.05475806957748634 0.3259338626602064 0.6422191464870552
Ni 3.6969804349088773 2.5663285047995075 11.552940657454382 0.15953052339988655 0.9069748949760444 -0.3154810427579986
Ni 0.9206259193875977 3.544300829663382 12.57127157764501 0.22003963652853717 -0.11198516952075552 -0.4246017462467655
Ni 3.0721017378348363 8.03684282979045 7.848592538663123 0.26384172131515204 0.3318749107349897 0.28858884635284493
Ni 5.643457773609558 7.834267692312521 3.7363353325049666 -0.24014386347758 0.4588652954153259 -0.9243699505240403
Ni 3.128480614868041 8.164909234829949 3.5979435000902917 0.7692954060129783 0.937033919144954 -0.590944150362163
Ni 3.4716367308921177 4.448162284252334 9.524220688396026 -0.08820323660980939 0.4477694426124805 -0.8416999850276343
Ni 7.057984357380584 6.206704004627733 11.203421459510777 0.9630275149952383 0.0044007001708569376 0.671344860208418
Ni 0.5493074918126122 0.1338634376082223 0.2623277048112278 0.5535880783112079 -0.13173792666765052 0.5690812888508006
Ni 4.755519847882752 0.1433642052263118 1.5352904096458075 -0.09912913949369379 0.07862664866496781 -0.23924886246713636
Ni 6.086721435364928 5.69005285834927 0.2146773811060347 -0.410258590151216 0.7164098708678565 1.0802939875195912
Ni 8.151508513777308 8.927556748339901 11.322530540478247 -1.0546230651160484 0.23936379077844583 -0.5094748900420775
Ni 0.07403129784222193 4.747454096749854 5.568486074289957 0.22899890260435402 0.5487436057347129 0.5246145738969933
Ni 7.933950248914614 -0.06828671074050661 2.546553851041061 -0.1847201352916367 0.08794818317620982 0.22475889638107743
P 8.463586169438415 1.672142334641275 3.6108866796548997 -0.562279949658251 0.5747063483470618 0.5285617314701995
P 1.6589043753827968 3.3506414215767513 1.4693176290789653 0.5615482136985489 -0.6223172653568056 -0.5796410666445179
P 4.518511548617743 0.901352210262293 8.188490706107398 0.523230291954957 0.7341052312650905 -0.7807825807169715
P 8.613571162758346 1.7165310928379072 12.379188246265176 -0.18073029740595326 0.8290223895599659 0.3218830896296005
P 6.566425654368703 7.701562576139416 1.5557775983698061 -2.5543727359050914 1.8108174149706944 -2.3161574569087917
P 1.8922053226696798 3.4188747826180603 5.866523716740245 -1.6197032032272558 -0.7164723486746757 -0.19593503017084962
P 6.726592302145634 3.6609196551801806 6.05838189430482 1.332314804940415 0.831605834016426 -0.9033282993623927
P 2.477216422496022 8.367846065183793 10.129228883099502 -0.12475121093717226 0.681668096511297 0.06390965416976735
