# total energy = -340869.1078833049 ev
CRYSTAL
PRIMVEC
9.23890616203895 0.00000000000000 0.00000000000000
0.00000000000000 9.23890616203895 0.00000000000000
0.00000000000000 0.00000000000000 13.52207305109045
PRIMCOORD
 96 1
Ni 0.2837388119643768 3.495530823114293 1.647204539864113 0.20405945905019696 1.0167784834644489 -0.2802939533339044
Ni 1.7413027968528167 5.365522340791425 5.47247745928484 -1.2700365157264837 0.45207089820131174 -0.2205327741148718
Ni 9.069399731736082 8.95257376613744 2.7023993888596487 0.9227085036612174 -0.09983027932577647 -0.35747641335317787
Ni 6.254702365078496 9.36575611754135 12.96842498948665 -0.5479589050498885 -0.3137524901026661 -0.19426124201285255
Ni 1.9978025424372432 9.518660010831782 4.140702102646464 0.5454466801509961 -0.7961593202833579 -0.5028856668603339
Ni 8.65423101555529 1.7178821702974545 0.28242596343044507 0.12902926948723584 1.9725104932395383 0.6568847189190299
Ni 1.580148560558859 8.098205939428519 6.171811824884392 -0.834759034933427 -0.4276850131577796 0.6166749794693638
Ni 3.2808371269038368 5.19567429400887 7.188874937397897 0.5558089972219266 0.9150934103181209 0.7013365214745019
Ni 5.3125279763253275 3.3028349619445927 1.6005268153885088 -1.228150159905343 0.42187072046884766 1.32453490388468
Ni 7.4225370313917125 7.623880508520315 11.1031767261186 0.4213279605915002 -1.1463798234050708 1.1586781811564497
Ni 4.175569733660246 1.5659853177543739 13.544114153013986 0.670741165186148 -0.16364711667142137 -0.668433600098894
Ni 0.261569133273155 6.375815183032833 1.1938505015468435 -0.27480670496708803 1.1065377517074686 1.6212888025468208
Ni 2.072683875072829 5.234680954883323 0.19014222756816068 0.7122500830632121 0.14525010222147244 -0.8903020623060537
Ni 9.28722541705986 3.2048840811793267 10.960897574658016 -0.06030805286143807 0.2910380792242858 1.2361066957482583
Ni 7.021901114252965 4.375425746932669 2.7275504624973856 1.6336437245677478 -0.4497615333418447 1.5317655615740071
Ni 6.022547136643332 7.965082543753484 1.4346921493458544 -0.5207499487352645 0.17465246664298953 -0.2754628504938482
Ni 6.360025892783083 6.937281974757674 7.106687477945751 -0.27841679091584953 -1.99250853362802 -1.3778932649011624
Ni 2.8022248436399377 3.1576178383954088 1.252521249821862 -0.2591990803368181 0.887389259534633 -0.10920400723119257
Ni 7.591738354758539 6.991283379971122 2.8002458699878043 0.0038283726071546968 -1.0448387320357748 0.38983297530701244
Ni 2.208163191762309 1.865261197836365 9.662373040494098 -0.25615412286290723 -1.3792045275134184 -1.1985274519429034
Ni 4.908529097424784 7.5826287935026855 11.197709211686437 0.606766204996084 1.533134674007392 -3.862207810536587
Ni 8.065389345533195 1.1511214854695673 5.6498330410334265 0.7622901783397388 -0.2479106519071924 -0.7780057893027826
Ni 7.884269833505061 5.799723203206557 5.16470178573897 -0.6441618720357228 1.5198973493815116 0.914438293232625
Ni 8.125654728973284 1.8263284482094235 2.5371597083594657 -1.1607975414922977 0.928370329932685 1.7370856325041826
P 7.605374979924501 3.0081323403024065 4.719717272311839 0.25529023220071523 1.1718941656260913 -0.717566610180119
P 8.676025594665388 5.664604203848698 10.706898800911278 0.2848170380152385 -0.4638110694563754 -0.5335383587491844
P 6.953717988423152 5.326183079303168 0.8909816109451755 0.4999417537406615 2.9215229249026073 -0.6395446849786857
P 5.13079869650522 4.894689216328164 3.615558993511391 -0.4228868204381878 1.0686191222848243 0.43950360305926245
P 2.7453963332091558 7.168143756361379 4.619112977760892 1.3797382885297012 0.9092284668969116 -0.48134007947907426
P 1.6369955488015193 5.1477798056211 2.399302297281288 0.23366802594524919 0.26348305242415265 0.41502001609560135
P 3.4019776615759905 9.123160925395117 8.561149038219876 1.3040280421805799 0.16501005845721906 0.69097960372021
P 3.096206830618883 3.715767862888149 5.658690380157145 0.5536716391639496 -0.9232474068838228 0.4482713219495635
Ni 9.043309061364349 3.6118394099803504 6.426094233043458 -1.1408303543417513 0.2647259236923183 -0.44468617570146646
Ni 1.5716302892831022 6.3963717487471055 8.608340445865688 0.020676040292112778 0.28204693146926907 0.0631149261826139
Ni 0.9326767934478775 2.343531641580521 4.857912827347385 0.6491032752013982 -0.003594402219477681 -0.6539747443610866
Ni 3.0347958228423573 3.5027741253704683 3.5433911275500893 -0.7670788579776338 1.055212104850299 -0.19478677549901938
Ni 7.5979099439257896 4.996483481964053 7.422441870660541 -0.7487453497757687 -0.05949995513784591 1.1441969568211392
Ni 8.394266680243739 8.45599181082219 6.982960973501272 0.3445815596683807 0.2737574377669672 -0.4843490415087271
Ni 6.533116795550227 3.0277650154227786 9.123897266198457 1.1057679634209796 1.6160172697352362 0.30386222757214765
Ni 8.624186093441665 9.328246159429016 12.471069737744305 -0.9659847978513492 -0.8342610122510857 -3.7933115017855052
Ni 1.7120708984618243 1.0143949164783228 12.130610510548632 0.3608201330144302 0.33019315215719264 -2.322610925843619
Ni 4.145737306383219 1.3428195447978555 2.501528943715123 -0.4131305123823724 -0.4411437097658467 0.4742626038070026
Ni 6.051760557222447 9.04441773007703 6.279975392274628 0.9019684429003885 1.4987734229187026 -1.5157923260742021
Ni 1.898650603899907 1.1175380623813065 0.7592930173624669 -0.5099906533362314 -1.8640477350497444 1.6801143573254615
Ni 5.175949229829107 1.3356871094129483 8.843787496486918 -0.7024330969727902 -1.7792995468680712 -0.023064338018631246
Ni 3.721394356604999 8.497770143478343 12.665990327464113 -2.4914897232276254 0.9879679869906599 -0.28849577241840635
Ni 1.3167011577083056 8.798145453367075 8.629273035051678 -0.9278622799480148 0.6332287700629868 -0.39627538849824656
Ni 5.107987837741831 2.845444445622575 4.450830925534997 1.030287316584161 2.0021247165615454 0.5611594629005626
Ni 0.627478774658988 7.3597956211599715 12.299271357918025 0.7292679577774472 0.016850238788119365 -0.06366642781070969
Ni 5.8649683569477675 6.137128048098797 12.347937294951702 1.355824458026581 -2.1584891835286246 2.448228598546145
Ni -0.0375847932504414 4.557524582990338 3.9424277900707962 0.8786552220957449 -1.750460511149192 -1.1328684191821974
Ni 6.281181069499667 6.191341948148842 9.560538123672076 0.28392229411511105 -0.07786174547448527 0.8251983878281854
Ni 1.681028174506788 5.620257455341503 11.129463261296241 0.6366578503491939 -0.6522443919335411 -0.6118083954056818
Ni 6.739144397989904 0.05921122427245003 3.4247626514027494 -0.7552962635204089 -0.5239908242700653 0.8429886219320708
Ni 3.975205580561177 8.332347532640568 6.617864355838071 -0.8216332961847462 -0.7197461343299411 -0.0523772280501356
Ni 3.832390572556132 6.864876668913739 9.132956937362238 0.2908131076976734 0.9571489447272742 -0.810949591218655
P 6.39484732926717 0.1934072569270029 10.695716029162712 -1.9321799119412915 0.698783673145661 0.5729507991085359
P 3.7597080995340275 6.319374706651489 12.537408777948691 -1.916378683242977 -1.504956411800963 0.11638586969161246
P 5.210003837120257 5.147927628116123 8.1567307129897 0.9623009212418587 -0.9204227929508342 -1.3930535175813685
P 6.452923091999718 1.722612490138222 0.9325917955132387 1.1318613180739217 -0.8968807439648361 0.05802619880579683
P 5.317396879755179 2.9438942273085473 11.356526004777828 -2.1449371558758026 -0.6209175567958016 0.035773558055183556
P 4.010636784837238 8.731449791393441 1.0646832053948876 -0.15334084964940686 1.1238518175058838 2.06720807932444
P 0.375543972499021 8.631817429747278 0.5724767959323458 0.7599309340789429 -0.9141984093076772 1.9551668597547684
P 1.1167435164705524 3.1228425964410165 13.049801272997351 -0.13535161216083785 -0.057535375212307366 -0.21810513850998564
Ni 4.264743653783463 4.083411646918732 13.219786979478398 0.29696190090788854 1.2354171258804014 -2.041446911199936
Ni 7.296490637665951 2.016326548844936 11.7085865261611 0.15055865891857942 -1.123209813046511 -1.2565531365280682
Ni 4.501860174707869 5.957754689293132 1.8391779185893833 -0.09699949474520068 -0.736487615454338 -0.5415566010679707
Ni 4.418654587821246 4.77558124096259 10.160228117047744 -0.4011502000920446 -1.100132876622389 1.3959825183027055
Ni 5.664853654309051 7.070737971046512 4.686507101023514 0.4311883983253477 -0.17834019990722189 -0.24909335936138388
Ni 0.24674346091284352 4.384590741624157 8.927718337489752 -0.3900787727692314 1.8680360302735315 0.2781601948203532
Ni 8.119723351360447 9.275399617457941 9.556508112901486 1.6929809288754842 0.8676354739464736 -0.5228528540108802
Ni 6.347895209285178 2.867590103158355 6.691330288083802 0.7817660276761632 -0.5886864646762379 -0.28431001647183296
Ni 8.341882083569615 6.936893940708236 8.952072093544954 0.7058508644050876 -0.07409019424719498 -0.04735483513487973
Ni 4.226115788052509 0.9425716617085453 10.9842091821233 0.16898781215804443 0.611586766313179 0.2929044430090633
Ni 4.075041198137999 2.7970695341259764 7.680510382473409 0.48559062722531204 2.3173445352383575 0.2195940643506863
Ni 6.756347240848319 3.6920608302486775 13.191836517341144 0.12446838958943081 -1.492861942530274 3.1566035149246665
Ni 3.37420551032336 1.4850894573524995 5.898193310485595 -0.9856010294203799 -0.13496748934854175 -0.019393316924947245
Ni 4.3132479099632075 8.0686599182356 3.0125688629343133 -0.33384463286685084 0.5552145581710374 2.589735174564785
Ni 0.6825805335697713 6.916291180464268 3.853790650382635 0.3976067057151604 -0.4115204875827751 -0.4984047482708449
Ni 8.863141156647933 5.252234876167421 12.7927601275249 -0.636702330433884 -1.74699389275683 0.010732041705523453
Ni 6.844329342105406 4.350868734946811 11.226362754565647 1.733298911768241 1.9456717757801394 -3.7433719366425855
Ni 1.757480121152004 3.1160889561996084 7.512552615845973 0.4084187087289998 -0.8888936119943014 -0.8366495670879204
Ni 5.414617886951266 5.0372362960609784 5.923424762605001 0.06628561060111166 -0.6782325884671868 -0.37016069368906573
Ni 7.6267907638911 7.341447153965119 13.518543633046619 0.5169922814650451 -0.5138313672385603 0.38501241398991753
Ni 9.078250603625644 2.2211068989828466 8.74202002367825 -0.7820370219493628 -1.8642266838297699 -0.6393263983202925
Ni 2.187809881978694 7.811328671116664 2.154674545828475 -0.7204894402538689 -0.20790300116600324 -1.13387372051826
Ni 5.984094810125218 8.423988240649498 8.602593846371631 -0.5600297201714936 0.7799593134847277 1.7343281243637034
Ni 2.5019142060927786 3.3027148561673862 11.321869020819456 1.2159554176113638 0.7065170372341767 0.7271730229216316
P 7.287685960306084 1.0307939745200458 7.714991827218942 -0.5812670322837151 1.3873482396664751 0.988642387349865
P 2.5019142060927786 4.438416607624765 9.077935556933124 -0.3023105668143116 -0.6915100223023832 1.7806195512310752
P 0.8143337994940529 8.888058485965413 10.710562951006684 -0.1271518499588649 0.23737735647603636 -0.12628255998003413
P 1.5877059856169602 1.9201587769258963 2.7095124225420837 -0.5712492430363968 -0.05232246355280021 1.4511159689417394
P 0.04890799636927846 6.539177517846212 7.104821218946073 0.24721542561238066 -2.0005357748078705 -1.4171221284947981
P 1.188806982794744 0.979518046558602 6.6298989547142115 -0.310547095791491 0.3787990860903541 -0.2628045382998893
P 8.37108626524279 8.053868429827263 4.735889977158057 -1.7347029912046188 0.8346140247151305 -0.030167524722315788
P 4.906635121707289 0.8457922742163441 4.5615361159490515 0.273589030509903 -3.617522607545228 -0.5332645362625074
