# total energy = -381167.16291916586 ev
CRYSTAL
PRIMVEC
9.28777272764390 0.00000000000000 0.00000000000000

0.00000000000000 9.28777272764390 0.00000000000000

0.00000000000000 0.00000000000000 13.59359420935743

PRIMCOORD
 96 1
Ni 5.564926970233264 7.604215382434214 8.18119597749538 2.1499662336592777 1.8207786399484642 -2.224652923839891
Ni 1.967243158526934 5.9177230203567035 10.01453731544499 -1.3748827602096128 -0.27002471019741237 0.05646322519405115
Ni 4.621735066004345 0.13614853281965195 4.795099704466873 -1.5511326532467093 4.509461948344389 -1.3851761717158209
Ni 3.607315232108541 8.148246674680639 6.167318911697949 -1.1509957249105274 -1.3387980986719137 2.534226085753887
Ni 8.313141793119273 8.476783062228787 4.641791082606598 1.8019486517261547 0.23867190691774381 0.6243371240003119
Ni 7.915495088104533 0.831633678696533 11.911631783505364 -1.5953409723328074 -0.29476309348435686 -1.3348725383652622
Ni 6.152945154499817 1.2118685960275455 9.123558483612516 0.4318509716100111 -0.0495623843091598 2.095396368833198
Ni 7.139325202287351 8.14598974588822 10.209115227001686 0.2335171021896817 0.8285251382085731 -1.9832880434710165
Ni 4.897219695271459 3.3594245758548995 9.104581706210588 0.666328123720117 -0.5979475782631896 -0.8103446106448045
Ni 7.638403674141583 2.7232957284413293 7.5168499475129 0.042778271507790844 0.23358266532029448 -0.7013630038370631
Ni 3.015674816446749 3.07394630304605 12.785101306039623 -0.5007945886592602 -0.18408327303858618 1.503360785179069
Ni 2.6053317260030564 1.395692195449504 11.36292595520452 -0.5456598246030666 -1.303243855716388 -0.6140555395686458
Ni -0.30588258089141307 0.45450923647902186 2.8497747609902557 1.7383369884127806 0.9621402272942784 -0.35591601084459346
Ni 2.852785856934708 8.274811154739401 11.374494805014544 0.2755651803996673 -0.45683746635201966 -0.40913604651099866
Ni 2.2954173229355583 8.464504626576208 2.376730845094982 -1.3837659216318556 2.152552506329216 0.5827454166014544
Ni 8.433269846621881 5.2649876351618845 2.669822305274798 1.1438344312753976 -0.543578773704322 -1.8260771693432425
Ni 2.0015057524167688 5.064297440320045 12.391866293108828 -0.5611144685952401 -0.10793953869647217 0.49201041470872686
Ni 3.6896884891453916 7.566414147104417 3.8806311664249162 0.13332789686258975 -0.5912732515668075 0.05538310475599495
Ni 7.240078961711836 3.9782038636625567 0.8664683993913591 -0.8171505778230443 -0.07233824455309477 -0.6769910027506019
Ni 0.7640465559705025 3.4219498624004037 0.9883221210817499 0.2296668752056561 -0.9802137969665378 0.5682600785010858
Ni 8.39499493487886 7.2223578911935915 11.932429893155 0.9019586727083756 -1.5603806542075382 0.37423537797907164
Ni 4.999821721484797 7.126387334765384 10.180133660730652 -2.0570360238874446 -0.4547913824562684 1.6858090937173933
Ni 4.033549701827242 0.7522594434994836 13.303819702274296 -1.1203342912709287 -0.8945940048131883 -0.22309719240793835
Ni 1.4282644146882273 4.77988726138415 3.252784226024511 0.19081339267356817 -1.2079446314917455 -0.8456929082371113
P 6.277661367769728 4.256001148358939 6.8625226380587385 -1.9830720708054685 -0.4922837229747716 -0.06678851837945916
Ni 1.552386210498406 5.687739190077472 7.480935987617749 -0.9710874091852371 0.33216621672316343 0.41730238437187483
P 0.8613062552645036 1.6899288380165844 12.672302234060048 -0.2349507493124147 1.8631311367727459 1.768032201484368
Ni 7.427069691661426 3.138189827561091 12.042116632466511 0.5016872756768586 -0.051130757237544205 0.8478279523022431
P 8.252492636681046 7.524758486059171 2.555650500474156 -0.7139225856696286 0.39879069872093253 -0.8441199073230365
P 1.241069353736854 6.8919175102197405 11.746958642836848 -0.366018389385918 1.2368127206763475 0.7206095107715009
P 5.014347798156985 5.999929097483004 4.282227032437747 1.2518796423117988 -0.4157574084822582 0.8826712852336733
Ni 4.914318485011547 0.10637007564166667 11.234004238407008 1.1123101354148712 -0.7249320494062548 -0.4007493651092002
Ni 5.470089522087669 2.1288968442554705 3.2053422825196924 1.0652594617839717 1.5350313768094723 0.2817499690541406
Ni 8.792511611074284 6.707425191155584 8.572541857436967 -0.2228097430745066 1.1569701973264073 1.490792461595755
Ni 0.5280247445885928 9.075463609679275 12.03163630962962 2.3714541725985674 -1.8493739350876537 -0.3411151983863351
Ni 8.97963236984319 4.65484597606595 13.068392308352115 -0.45964408256287936 1.2196850598571252 -1.2435204717138262
Ni 3.7248705725432485 3.885307560033897 7.051813020555666 0.8527246182729121 -0.8395829386846315 1.1217399133692034
Ni 8.022675986312365 2.784790072205112 2.5964173216616455 0.27543225436622887 -0.6366755909610068 1.7812808389641581
Ni 1.2962758753094148 8.748097481504972 7.084260783638757 -0.0799116860249785 -0.5543573523770646 0.3083135784752819
Ni 6.17122349138656 8.028768765274613 5.093492625365669 -0.3426689160267002 -2.3507634770184356 1.9283106587938725
Ni 3.033507340238693 4.219398035721411 1.3685078132168782 -0.750601686258217 1.3567431131861085 -0.6099679997628333
Ni 2.187957791543478 3.24823135979388 4.815367482289154 -0.18728609624660003 -3.460680172500466 -0.436741466933093
Ni 7.001615394858623 3.4657695745099835 4.98470308490744 0.9484694146754051 -0.6575763456694158 0.47753561813131956
Ni 6.9539969836704465 0.2783647676149691 1.94616734447033 -1.5745181220501852 0.10620892915861065 -0.34063157388169724
Ni 7.603676691611333 6.21696577246746 4.4951297197452265 -0.4766838116539855 -0.3740047500255043 1.5538495379572401
Ni 2.6395757443472743 5.220452764546065 5.5823043931576 0.5741196226056564 2.765533838997076 -1.588208475053084
Ni 6.067962033303833 7.437100486294396 2.7022022676163893 -0.3453469770794956 -0.6748294763229088 0.15618680373863422
Ni 0.17070833543935227 4.388621256288715 8.972478927226234 1.9240254011549576 -0.029040353096408046 -1.7527511069555815
Ni 4.026565296675397 4.65539395466164 11.20655886975847 0.21108962642410095 0.6392451514603958 -2.17628276006662
Ni 6.04486334232958 6.227572409014543 11.997638417264824 0.7050283685037922 -1.2632680866543986 0.07083877718943284
Ni 7.437908522528717 6.475713835134009 0.44249735990604183 -0.03458519417403721 0.16378955578655663 1.2405163947801796
Ni 0.5362657854014012 1.5538629663749264 6.335186117435241 -0.9582352358129174 0.3585398216206857 0.10772922245787898
Ni 4.80558652874473 5.99518304557796 6.698759699125437 0.8326129351247016 -0.31731218242946646 -1.9186222278615153
Ni 3.676286232983009 5.620551441582198 8.682079063606263 1.3073427083761096 -0.007876317424283208 0.45813895877226263
Ni 2.3768803782371957 8.141308708392835 0.24136506707852723 0.6106465138870967 -0.41615747213415427 -2.038924144778082
Ni 6.06463701063846 1.654542423616945 13.293366313978549 0.909307142653647 -0.4912493681729862 0.34124478198566394
P 6.366805411183832 3.976002661506989 10.498332757143158 -1.185469847427997 -0.21021930800400568 0.579777335112066
Ni 4.468421800257666 0.40800442925056135 2.3456158774098816 -1.0178586039025053 -1.6198602976304102 -0.6754424273165592
P 6.586879187876603 8.28786047553507 12.258703779247044 -1.4831812249074006 1.113190481137296 1.7340486454500716
Ni 0.8253049903049545 6.9490094496723875 3.5598909353720587 -0.7247158196303907 1.0240292514895912 1.0947525861470824
P 8.80113066424039 2.0725850777187214 4.640486150527031 -1.0002953982077611 0.22029983216845928 -1.8286536718211666
P 8.036106105793172 7.647997943452561 6.649741620575049 -0.5489791187842867 -0.6635539034090895 0.04511566139171585
P 3.501824708551821 7.8751768663436845 8.477114635718044 -1.0476864858972152 0.532066145079032 0.40483484803248343
Ni 5.208731595261986 5.3573823990588965 1.2788659451802484 -0.047247363022737986 0.8909314683599364 0.42679823967745206
Ni 3.9586809652195014 4.205837887421287 3.548539419445749 -0.07378526141226648 0.26540932291258806 -0.2202540665321884
Ni 8.02933531941592 5.387502646276227 7.1295135990926575 0.15265359377439514 -0.9997210137615299 -2.5157426822377187
Ni 4.577376663071885 2.5789358756818554 1.1619421732965056 0.04310403027832576 0.10521262668361236 0.47610582766332843
Ni 6.288899572867776 4.591382624466807 3.182763706822705 -0.47566616902274855 0.18374054498718678 -0.6712111628440312
Ni 5.104504208807195 7.977769604784213 0.45086007054263905 0.7399480631991128 0.22821985834648437 -0.36627755658457567
Ni 0.026199878314945604 4.43515299805832 5.320600961183449 0.6361791109405625 -0.6548787442325947 -0.307979849284947
Ni 2.3711405346416634 1.291241902447314 1.2516509132973552 -1.10978788321365 0.8177347324612884 -1.0821307836180136
Ni 3.9590896272230665 6.152861564544542 13.026102292424063 -0.8162311513325684 0.6910048005311905 0.3651640118054227
Ni 8.26425095705636 1.6268091340113484 0.5163147206318828 1.534358519112164 0.482049446841273 -0.10951742470655333
Ni 1.0220079442801888 1.706154577112692 8.607708151621049 -0.08231001105382599 -0.5200300398501043 0.41363804814641014
Ni 0.8833730746797538 8.268504757002562 9.330846712257374 1.1257881152966485 0.9506185998079243 1.61352124278626
Ni 4.7347579733086 2.3771868747398694 11.358807756741317 0.9648278014287707 0.24134971086022305 -0.9154291963909849
Ni 5.203372550351594 1.1386902340709157 7.133292793848357 -0.6093082546916473 -0.1496374326558907 -1.161734194373954
Ni 4.7130338727099765 2.7822637980012535 5.344674868302573 0.41819635694105395 -0.6074395769140248 -0.15555482658159017
Ni 2.9432952029516333 1.272508464692964 6.472440823996362 0.16223018171923675 0.578965637844048 0.3253373667267881
Ni 7.426419547564846 0.3393696457517542 7.383999502817477 0.9976008820947335 -1.039332971726197 -0.4075185655122337
Ni 5.228040874930451 4.0362152926232255 13.045500734711489 0.7699955174037963 -0.14303175441391494 -0.02621573916341937
Ni 0.012753969620363468 8.303259602851238 0.7725188623262378 -0.36638194337292385 0.22259891261528117 0.18276558266842718
Ni 8.188202673301964 5.061929058253928 10.626996273856596 0.0010089008804885851 1.0208585670710935 1.3251722803583628
Ni 1.1332754625236743 5.934366709229184 0.8796022389195822 -0.4471508351918751 0.43024248947231064 0.1576389628041285
Ni 6.741938554911243 0.9705629706949912 4.734594508507174 1.308292730994205 1.0065699183625632 0.6652230635813963
Ni 8.278126889631967 2.686999112306476 9.70899373826108 -0.9258434497457733 -1.0729113219022748 1.66554751525488
Ni 6.453256000483528 5.290835506887396 8.828400493982851 -0.618720806254799 0.9916513493795179 0.11327971996246297
Ni 1.0027729667941905 3.234569045992864 11.181153096018633 -1.0996770200318933 0.5618066095662583 -0.016743280896609876
P 1.764054552799661 3.238934299212768 6.945701144998069 -1.1404434033159778 0.6041254249391272 1.5010753315790017
Ni 1.4815855183807023 0.15365319823146303 4.60406879334567 0.8099664013697792 -0.3317219300968932 -0.2826639962279777
P 2.594455744044532 6.4098635259231305 2.368656984192723 1.059679139482717 -1.7652176148537084 -0.9400919892449874
Ni 2.6326842169235127 3.166313203624636 9.462881690500229 -0.1747403983711055 1.4119554966921941 -0.21093613156537222
P 8.571499769327875 0.5311965190026288 9.444326577983798 -0.7190179979146649 -0.264551345787667 0.06936322108517087
P 2.637597448739106 1.6867895708073775 3.273894404840506 0.6273982794241388 -0.5693378849462969 0.7964812223991509
P 1.5429498333251688 7.211649089145617 5.6442371197979355 0.666238135109472 -0.2929250118343536 -0.36486087874270706
Ni 3.4714444036958576 0.9531298211338042 9.234726622686953 0.6633011639683352 -1.033456201230446 -1.0744946072289947
