# total energy = -340887.03995928174 ev
CRYSTAL
PRIMVEC
9.11260752795867 0.00000000000000 0.00000000000000
0.00000000000000 9.11260752795867 0.00000000000000
0.00000000000000 0.00000000000000 13.33722223364911
PRIMCOORD
 96 1
Ni 6.6997896906550345 1.979613793668047 11.633872208039028 -0.7764109340118371 -0.9218852364289736 0.6995442054607695
Ni 4.532219249662164 0.2963684303927312 5.92790169540764 -0.1278434767092508 0.42760942272483776 -0.48786965306747593
Ni 2.5814833099344043 1.639868439153776 4.627522546490533 -0.23926146087262665 -0.19079282384827786 1.5839301593927042
Ni 3.7443887471668895 4.304139790441133 5.22201631804901 -2.5224509474958303 -0.743057555362372 0.2518089585203341
Ni 4.853083280931162 4.542343356865591 2.2246755086805328 0.4795781024826451 1.633022288933665 0.12536930413714537
Ni 6.993543713886052 5.897497479670256 2.744199856330288 0.9339115714658884 -1.268931455587763 -1.168520364057852
Ni 4.947061604593572 4.700146385165986 11.233435974689886 0.9695953980207431 -0.41712960623943646 0.4803504618722953
Ni 5.424061056945839 7.960956377189543 12.688220060479704 2.170625561780842 0.5378608973839382 -0.11205433219579412
Ni 1.893809479151877 6.738263120549604 0.2878663673677113 1.2352502612852339 -0.5388970519579365 -0.6036274022567862
Ni 2.9353440938439124 1.8546070406377981 0.39785372031453303 0.7332038024967437 -0.17243334750448366 0.28793861436335577
Ni 0.22157670233501367 -0.07887508758774045 4.714574377006837 1.3990313324313584 0.45475538701201035 0.48610536207820154
Ni 8.398707827989012 2.499178236791876 1.4106380575746955 0.3291929930274524 0.3111939853468705 0.36544194805715774
Ni 6.926247105697659 0.573347965288855 4.748544356154392 -0.3436791024587694 1.368688715583759 -0.3068153966632006
Ni 0.7168369093451975 7.060603394273106 2.2343713233199978 -1.0520856434061752 -0.29141937382310457 1.8478377009487854
Ni 7.434457239572639 3.6486608028176573 3.7748877340248086 0.78816576055492 -0.0733520305295898 0.6320972275617049
Ni 7.898106721580153 3.807220177560793 12.588910861287134 0.2002567974746551 0.540297788960205 -0.2834972907625504
Ni 7.638105797432386 9.000276628199822 7.130038731498983 0.5544614820550967 -0.12928843668589346 -0.3047924526959009
Ni 7.0359082272872495 0.5820732872035993 0.6784427591379991 0.2568120681618803 -0.23379709532394577 -1.3859536733117936
Ni 1.9639492209563545 6.623453375584732 9.371692850927872 -1.2068107749976185 -0.5052549384234589 0.03662279342935628
Ni 0.08672286537675128 4.878771722161098 1.1182846421539083 -0.42166837465005447 0.465631667604882 0.6682633930696169
Ni 6.543344440908474 2.05741723858511 7.384100057919303 -0.12425010293103761 0.1521378304802412 -1.5058110464917744
Ni 3.040822528479073 4.579513683852789 0.41271729480554037 0.8713874847897379 -0.36995757653932415 1.1322289858259855
Ni 5.740678613006197 5.235858369211932 4.829928144654017 2.2640167703494942 1.0478168408274922 0.02831273090176414
Ni 5.359707821058711 2.370417089371157 9.671060240529108 -0.24745916619207062 2.6530617025375727 -0.8906897846627756
P 0.4574519974809155 5.541331206001552 12.338171080389452 0.5288029009467281 0.4944820161776709 0.2185082874856753
P 3.9742725027212042 6.3622860376457515 12.782274018786389 -0.08741416504961075 -0.7981262142017417 -0.5791024205322284
P 2.237026737216558 8.440425346240396 1.8520063023877007 1.0821816914606073 0.46272092171599016 -0.4563109044245883
P 6.364782892167569 7.8631598708824555 5.658502938893632 0.19787158507193017 -1.3166609004532421 0.3780197847221683
P 5.078720561276838 1.115292061770825 12.837863659806247 -0.8752796207552925 -0.27740763292504483 0.6634641719087605
P 4.167149958227711 6.0526031760784695 8.342473014340888 0.4774569423745842 0.6766102223724154 -0.1289498223995521
P 4.5636212959475 1.1704233386211682 3.6335794370015715 0.43012910382289793 -0.8452015704229895 0.9657287159764854
P 0.03316442462299813 5.400951483707414 3.461809514812165 0.3577283814629839 -0.5846724584208383 0.5590192766291082
Ni 1.4567323613254541 1.2409002469121688 2.3794804890331984 -0.8113085172199705 0.145803146511465 0.8351238744720134
Ni 1.8090440019185063 6.587631714543625 4.941121095605351 -1.0796455553023148 -0.20713089888666908 -0.4677317446670202
Ni 6.3136247122935485 5.774413486873962 9.54559694585089 -0.8181209121561136 1.2044900972842418 -1.2213570482429095
Ni 8.677498949304615 2.2824804246429236 10.362528561176179 0.6466486430133186 -0.04206941836622432 -0.3231948664624885
Ni 2.3858994099279722 5.367007019861541 7.310758145753634 -0.5378554980672995 0.1036987611422472 -1.327318123056772
Ni 0.664482244074408 0.18902373369162842 9.352727691691355 1.248529494892643 0.6334771386283672 0.026738444436108785
Ni 1.7682104066182769 1.1358501048409697 11.576922965943785 -0.5907785713185761 0.5054104901647166 -1.0878882549270812
Ni 3.8899717684827704 7.05350467284064 1.7346924128148171 0.5685881512644659 -0.900673635348365 0.05921456268694318
Ni 5.500561398955529 7.850967201721174 7.642949148448247 0.048479435657626184 0.013114940115403222 1.5636814364459974
Ni 5.506393467911599 2.6415262823586874 5.218228207009889 -0.5286378361237735 -0.29819037399835097 -0.5568518366641443
Ni 0.5395529482099818 7.714679040304027 7.207181512354617 0.6159440148406102 -0.47216638339960626 -0.31565510644201766
Ni 5.151575860188986 4.218453939825633 7.427192668679235 0.48589016074360186 1.4041979642339621 0.1001526956622017
Ni 8.43989681499125 7.571519972648012 9.382562369444747 -0.8451470630359704 -0.9915474768118019 -1.591033346096389
Ni 4.521885552480629 0.4433347455641301 10.712336968421992 2.5521235348595983 -2.3685953629935335 0.9199103720907901
Ni 8.275386907391376 6.9646567473380205 4.617372923985423 -0.8827008529200281 0.3076666889199024 0.8559212708333388
Ni 7.455480025637721 6.463754924873614 7.3655476998135825 -0.037201034530329476 -0.9882086422465562 -1.233223203552876
Ni 2.403732783282703 5.088607740678924 2.8995925998824332 -0.4591812839938479 0.39314841283349067 -0.392993118202549
Ni 2.6568992516225762 4.981151870163347 11.466383388967687 -1.8268533853876345 0.7139778643875961 -0.1720515386850327
Ni 0.8976784325436155 3.3050790404432213 3.6713502848390904 -0.3402754760938591 0.17439072834117064 0.5054583126835167
Ni 3.4952591640575457 2.77580055746444 2.6775010352098914 -0.7558737332904337 0.27107989093480406 -0.2565945528344355
Ni 1.155323747589595 3.550691156963436 8.211754478776788 -1.3171463247300927 -0.13602318430656574 0.8789519274005573
Ni 3.6160741175256197 2.5477119856356656 7.2902456657222094 -0.6023822169957754 0.8267922146778665 -1.4067215019867645
Ni 3.83083094422513 6.9238687150765115 6.004831241242066 1.2569958804924417 -0.03478419755872074 0.049945478680191405
Ni 0.9734816600609013 7.645614586213325 11.506155365465757 0.4805355812999078 0.09233782760347323 -0.604486664933288
P 0.21570180412254816 5.677692268280649 8.163474060428278 0.38912489349639434 0.18542667444035807 0.6825096185759859
P 8.680597235937526 1.6578567268401523 8.143988571289585 -0.591906257165116 0.62040230772228 -0.5602251240117513
P 1.6634974310336004 3.0518396712413978 10.473573887882061 1.5110774370970361 0.6380454747253398 -0.673222279736789
P 4.122753333299633 6.072860503093066 3.8698483968020083 -1.5031882641569467 1.2672502112305983 -0.9759812469424288
P 6.916979583622154 3.885187649417245 10.549743442230652 -0.8519178061009005 0.2757233032440864 -0.11442514642081583
P 6.393505831776211 7.941154680562139 10.377479616701526 -0.2645983969755185 -0.1271845029690132 0.2783208887679336
P 2.118016080081768 8.602228809340344 6.02091590517075 0.8002226917194541 0.3878241724070998 -1.2255559168156054
P 6.738919228307162 4.150054706100232 1.046013461398142 0.959776097937476 -0.7701490122625253 2.765815631903553
Ni 5.116911500331349 3.2746429305787346 0.0034254292509163587 -0.07756118351493095 -0.24926562327319005 -0.042603179382507274
Ni 1.502158710928588 1.3768147914118163 7.226307053487426 0.31262197604264863 -1.1674201890151379 -1.085286555638176
Ni 6.998993053316879 0.7928187439742629 9.315409740458707 -0.4218804906608605 -1.789344589808899 0.3348345075839459
Ni 3.064123466480119 1.4696358138907577 9.355501569488585 -2.3296799168752584 0.8787999752037253 -0.7222635014351562
Ni 5.937520052881283 2.439782259517407 2.3569404537787646 0.4665850326570868 -0.9382528791537196 -0.11595083903672289
Ni 4.070200924440801 6.876373803515522 10.469933401088392 1.1176518593427591 0.9191853209993072 0.03269311935764692
Ni 8.726296963772976 7.282504505443801 0.1563987754470667 -2.393408822492788 0.34812222583178754 0.21094847286054635
Ni 7.455607602146134 3.983002380939821 8.361504695613936 1.4766272258389666 0.04912966764711539 0.08559408112173646
Ni 3.2442797215761985 8.582490900967148 12.589777470283575 -0.9104973063070062 0.06930151460930001 0.15081962588944994
Ni 8.960964838392817 4.6355106584387995 10.428427295336663 1.6652379544342613 -0.05592123664765208 -1.488725037543765
Ni 8.852078288461453 2.295921521065115 5.7030098263754105 -0.5702909928881855 0.3244963588827315 0.39791652364609537
Ni 3.8299652464894636 2.5270992669190573 11.49477827469755 -1.1399800905263142 1.0902873512868771 0.1772251124661722
Ni 1.2426225297757583 3.3616045462783752 12.675869743204453 -0.8411186586028676 -0.25394374547514975 -0.27830109127359165
Ni 3.122507944295019 8.267905456433668 8.012763374734927 -0.15769629840462518 0.6265662704411467 0.09939756266373204
Ni 5.862577966795791 7.858275513131748 3.4389095315518485 -1.9621036960839175 -0.20899340601670457 0.7587528546104416
Ni 3.1130855078878694 8.358922182579326 3.9087929485169357 0.6051898616478996 0.3124196302238555 -0.4250144083041519
Ni 3.3415294714186548 4.252826696235466 9.31969084357677 0.3853356016572912 -0.918098772803348 0.00031316036504462196
Ni 7.891126464048357 6.454724330599451 11.221752700301485 -1.3779362023239559 0.5780187005497465 2.4164371650671606
Ni 1.0874986081520572 0.1184074025021468 0.17704247703000345 -0.8911446128120071 -0.5269329376175247 0.8389355349086198
Ni 4.83884027502751 0.19446851681858382 1.6037342156670542 -0.6417321795483077 0.32937348446937464 0.011951001714289096
Ni 6.193948834793456 5.754529776776862 -0.16053225431968088 -0.09896561733263601 0.5616973376819036 0.13971374578427548
Ni 8.166026501857333 9.139398810625307 11.265858633042535 0.12720635734588415 -0.6970108975159545 1.1113372299786408
Ni 9.232711913922417 4.997344974124182 5.7693623684015405 -0.6463910184765578 -0.7060663228500035 0.6694808104164858
Ni 7.941974815259087 8.54770807720884 2.663936918583158 1.2375493417320558 1.0124420608726241 -0.03291114890572397
P 8.472547288537497 1.562894241541404 3.463983783019849 -0.11343861413783043 0.052698873055612466 0.09895533291999087
P 1.5575086903647837 3.3402901567654903 1.5775664512697904 1.3289608008665177 -0.8638382116875705 -0.11855562364942163
P 4.752707906632562 0.9650889483288078 8.109564784276387 0.8998876491119598 -1.3370422923230714 -0.3681783731517143
P 8.764223637202914 1.5835616359044749 12.704304724408388 -0.6334277734476703 0.07257041516855889 0.1021599559002176
P 6.626223608338866 7.4854513925072705 1.3115612298795953 -0.368531642726075 0.9970406387158893 -1.1485405785018157
P 1.766852628064442 3.4998154679294746 6.046977052057412 0.6014262808404094 -1.1264889980184147 -0.6554456724796582
P 6.970397690216652 4.075923642103945 6.14827279973814 1.0483315756803817 -0.6283143634805051 0.0068648454406333385
P 2.613669040485712 8.63606392189329 10.233530485954118 -0.8510891395520181 -1.1303754775570145 0.6256136767198902
