# total energy = -340870.4926737591 ev
CRYSTAL
PRIMVEC
9.19239898551734 0.00000000000000 0.00000000000000

0.00000000000000 9.19239898551734 0.00000000000000

0.00000000000000 0.00000000000000 13.45400509723405

PRIMCOORD
 96 1
Ni 5.519989757629668 2.4197244338264516 5.800452614942732 -1.2123281052714217 0.14275381816217994 0.8945533813832399
Ni 6.820493626854916 0.4313579286616058 1.0210227601467479 0.9609444072139643 -1.136804778122126 1.927963559867099
Ni 6.826845574702146 2.168367470100483 2.611408938145343 0.5962390802125151 -0.06613828638996996 1.8899207461617644
Ni 6.0203504308863955 2.7312456503167004 11.177950992572537 0.42903407098650626 -0.6864997135719855 0.9184983222346117
Ni 8.299936738908194 2.3458543138549084 9.614259541850867 0.5086719345248079 2.154770854136773 0.6169562581552085
Ni 8.19551108399571 3.372433879318082 12.55270830481597 -1.0134103383231645 0.7980760776900966 -0.3423449570283782
Ni 8.069722293342325 7.501448174795682 8.086381678412563 0.3005958981160501 0.5452643889368609 -0.4441004784013255
Ni 6.154587036404619 5.955396938138893 8.368136067813232 -1.3662109434672278 0.07513020547593512 -0.4689062245910957
Ni 0.5373922534340989 6.645369229694901 5.1473547135377755 -0.7421281015695671 -1.629439713788729 -1.4657936255585722
Ni 7.5656019288127805 1.1456487123013273 5.412949784384691 0.9130928349483243 0.22073383438208435 -4.171350312671068
Ni 4.737082310161227 4.065687857388506 12.875886402731792 -0.823494260652885 0.5084374499164985 -0.5849827905724054
Ni 4.053995125606051 4.033348997002755 4.36773538726319 -0.4996450484358491 -0.11048878748088714 -0.3736417102591307
Ni 5.796745320345355 3.3959848060685913 8.286348534410692 0.07049527780708503 -0.44205233762304513 -0.9188209956813531
Ni 0.6832774672186173 6.80641087128045 9.380603462024501 0.49444267829930333 -1.73840409420529 -0.07098790117278743
Ni 1.5226290034950805 3.4859324322410097 1.2486853956946866 0.36858794988530713 -0.5787172692786678 0.3624820940978854
Ni 3.104650098221637 5.359738662375323 10.661963240675737 0.05989230548025813 -0.7446691228238659 -0.21103846147119137
Ni 4.2912325641607545 7.35702639096381 1.2179120008927034 -1.363938088272651 2.020888113211978 -0.34547090425186955
Ni 1.5931714749562083 3.604413265530361 3.63228553914481 0.8807745824315927 -0.020086229226913794 -1.014127676105163
Ni 9.040559150056438 6.660242531600571 2.5020147914652346 -2.1068981988252102 -0.5426698887368073 -0.24702002177212298
Ni 6.313725851355759 1.0690852193641713 9.699867436360945 -1.2418579964097387 -0.01962523043009523 -0.6077349966672566
Ni 8.701451543566861 9.332123667883396 2.5408296970874154 0.07939129474513425 1.00246849459968 -0.42124080019433263
Ni 7.430786202144954 1.3230436320637522 7.473377345358512 -1.1104651117863327 0.03744786043381292 3.271794850087546
Ni 3.510669178488325 1.9981518141132915 11.773506313465067 1.3139177904904662 1.1083645205035622 -0.7506939888617071
Ni 2.2043832901662506 4.665197748416894 5.729347568650562 0.6230988807178366 0.8412999213757382 1.1436053459837272
P 3.088342782040761 8.172226736822001 8.239165787796713 0.5185282584935974 0.2920554647452067 1.1017632131369606
P 0.25634384029199203 0.6648145334253315 6.8174132538829815 0.44699785455377855 0.27546902114143523 0.20590448267873573
P 4.660454470429672 6.025102901272817 2.994619837516885 -0.7836390763291601 -1.30999454417666 -0.5983838944696598
P 7.756665946185669 5.904875512135457 4.347163717093415 0.17586217068037455 -0.5203856234173102 -1.5564522656874098
P 2.4129680204144206 7.78059376130338 4.926641531785069 -1.3235486287120108 0.011564564909147824 0.6308731253466168
P 5.828937102343905 0.2949381283333715 3.2278852403772498 2.6241537612539707 -1.146362082793258 1.703207491699499
P 3.704012910862824 3.1591150634818903 9.317463629639166 0.9155040154929781 0.4035816923516726 0.6467440309406023
P 0.3742970298672605 1.2762727049339346 11.13336417949265 1.2743192022622376 -0.03398021360018664 0.09948292328868673
Ni 6.0035834947455164 2.1994561641950274 0.03565088181752578 -0.14917643385907212 0.12353276514903885 -0.18068530310063075
Ni 4.342489382100193 1.161496408522201 2.153973092193136 -1.103987731592105 0.641314889505231 -0.6998889903946978
Ni 0.525597486020524 -0.1099107595151511 4.737370951496109 2.2907729553974163 1.5463141488121435 1.152666684855047
Ni 2.0442333113031057 0.39160080212142095 12.416567034183497 0.06686333748145258 -0.019904966454043136 -0.21998975712720822
Ni 1.9432639984898363 7.3559324954590055 0.052997858347926446 0.1182828296040092 -0.5762659795246978 0.8537808274515682
Ni 5.607565744808475 8.4515929409105 8.646122492781805 -0.018723801661748397 -1.1041581957316984 -2.3828431311617995
Ni 0.5711973014922561 4.240297480193318 10.833031032068774 0.7109591321659303 0.6842888219635956 -0.1549750428187202
Ni 4.821054876853617 7.031119069725495 10.3182667885055 0.4972721773282984 -1.0797949363959856 -0.9025489979942068
Ni 5.028426210407382 3.5512628133557134 2.226032309522271 -0.4474303141055069 0.8608914703544206 -0.808014162739415
Ni 5.3554825815457034 9.327067848323372 5.611181115413852 -0.3421456965333785 -1.0512659757183571 -0.4453415498972782
Ni 2.017704047211782 4.988770200258398 12.804808933637222 -0.14102500839653134 0.08992998949292899 0.07590359330684991
Ni 1.5214064144014745 8.012352529934857 2.757829149563304 2.0076790707208714 2.067522525241065 -0.8848035010853278
Ni 1.7849157298699 1.3350856750158082 2.135231628704089 -0.6561005324548378 -0.05540907289792392 0.6279572372514024
Ni 2.3965412030439444 6.09881675045796 3.6330926317945744 1.321417184191305 -2.210182241027542 -0.8842036627177997
Ni 3.421852217417512 5.181856545455296 1.3013642777903713 0.3104884746394136 -0.756356329353807 0.7405363316024149
Ni 1.5209467944414723 8.786324965380857 10.093383015235736 0.9409160278081795 0.3284779692382988 0.17496382723582124
Ni 9.247921291211004 4.1215960293231655 5.187716699945323 -2.7814029448188484 -0.03402597923645753 0.8534787228301173
Ni 7.880689796192645 8.12672436078179 4.275588939202121 -2.92146430375053 -1.4802632799296571 0.8144717454393003
Ni 5.404634340068331 4.569127984377247 10.327631085570584 -1.2848746091805807 1.8854840505466495 -0.5582402323712385
Ni 1.1173728923619959 7.7609220270152885 6.975229282589235 0.3841271831714868 0.6055313041477184 2.167161257381326
Ni 4.049720659978032 7.0837363627465395 6.400878068931444 -0.09239799141744733 0.9464266732137635 -0.536642965816437
Ni 8.90724178445822 8.222977972805438 11.728232828164938 -0.44057472463625413 -2.0593086219717054 -2.241187688270121
Ni 1.8681345198278867 4.186108286909065 8.787510784877663 -0.9381603194399134 0.1621849303035981 -0.5140681658397147
Ni 3.280638580906455 2.9534351313809335 7.089521139563127 0.04624591834141713 0.7263019331705879 -0.6400895017385622
P 7.327638290721274 3.4223486069743143 6.366367963854644 1.0733057291272161 -0.02659446265907678 1.0065583483983376
P 3.80432037093369 2.3762168084126496 0.4058370707625272 -1.4241990899462376 0.9859414434789342 0.7002378890936843
P 0.7691519413054966 5.505088878526399 7.199117519025636 -0.3196344028047398 0.030004773892206387 0.7281991501933007
P 3.566071768466982 1.7350101946128678 4.909325809411948 0.590850305096776 0.3843279863283833 -0.3765825380550095
P 7.777256920393765 7.398474918956803 0.6515802362970299 0.8078676098592215 0.033773239795703125 -0.1707256207847576
P 5.426254862986832 0.5332850894715198 11.696064946404306 -1.1301566766779891 0.9614414014550411 -0.7266225497348002
P 1.6349233521228024 6.676356807398245 11.44308920117921 -1.2142294360591925 0.8185564570316355 -0.3551665342730786
P 7.657296110833207 4.25381949941658 10.541173276707339 -1.0002820284713225 -0.2585462772441676 0.27519776975791954
Ni 5.677970330281603 6.745428494987367 4.7359176331825825 1.540713257685598 -0.8402128589591464 0.5982576533044407
Ni 2.735942966307922 0.1682824944354225 6.357260134727241 0.2764774078012916 0.6204120779142928 0.01471005251666499
Ni 6.400502099804163 4.020341752134695 4.405971171735768 1.4421538746524454 1.2632395474093083 -0.5973798786851776
Ni 3.5658787280837814 5.856054679984031 8.235748053774136 -0.18974149976562807 -0.42731297453034145 1.2510332351511033
Ni 8.561671921331012 2.076278014914455 0.9568542982909294 1.3063443490185824 0.1948669939176515 0.11527695289814986
Ni 5.998711523169494 8.24314609665033 13.09041126134303 0.21429887739001802 -2.6302074236472186 -1.1360797270306435
Ni 7.695490529509384 5.821748646169472 6.560321152296106 0.3070979609006259 -0.8038019244302802 -2.120609891984348
Ni 0.12427020630553785 2.7969161502018056 7.551612016470235 0.5920677224436448 -0.09881366513580402 -1.1130141034604315
Ni 8.482644865408245 0.12248136542120953 9.489755848605649 -0.1117493993608656 -1.447719541665681 -0.09091626466559825
Ni 3.9148497789150043 8.07080699644793 12.053402918987409 -1.7050327178336957 -0.1657227682535275 1.8207195045757545
Ni 1.3339274327166026 2.8257343216939397 12.618350308263556 -0.2033405786063014 -2.1467199588078385 -1.474548746043383
Ni 3.7981063090744613 0.20987166613617592 10.140619997004995 0.5947249575608339 0.09152201657039723 -1.0505812909465069
Ni 1.5436152508687777 2.1160535262530398 5.471434585815123 -0.9035386156009859 0.316303538659294 0.3967667263123683
Ni 7.011300257050203 6.02790658302883 11.622942168487727 -1.3481314602576977 0.7310096230589023 -0.3399085796727436
Ni 8.232703531159082 4.794939270726297 8.539203859206268 0.890792371678911 -0.8085137280836526 0.4832352396192581
Ni 4.467368125232773 1.0822487350186325 7.757687221736793 0.83055425282346 -0.008611910038727104 0.6947598966982487
Ni 5.807334964223805 5.693928335292877 0.8954297675963239 1.7029598944650672 -0.49632369737209997 -0.3464818620148872
Ni 7.553936774227926 1.0191888765063393 11.755652835738744 0.3949394432956424 -0.2310233892335505 1.692128093956886
Ni 8.33322241641155 4.331605581447342 2.7031656284803294 0.3546281452711054 -0.45151785391131916 0.20435539302406094
Ni 0.20224473251990047 -0.18122815022884273 0.16014170570386466 -1.0591952578677628 1.1498945214265486 3.460764761794472
Ni -0.3689865808493958 5.846623278404787 12.735831008519941 2.081452762168912 0.28022916153423993 1.4742582113861578
Ni 4.033753462567557 8.202304267004541 3.7330287189377587 0.6964195437888587 0.47487349791812405 -1.4612350596536123
Ni 6.36771281185761 7.44721301951543 2.437664320105255 0.8736238303194244 0.7455283855003676 0.06439687821883103
Ni 2.283391961290618 1.5870033750929795 8.760656109854658 -1.0437246730359895 -0.2756410279429253 0.44826849373608607
P 6.597348136273878 7.8041906500498905 6.55249106665751 -1.0033424125642012 0.17900765828789172 0.0987838403391331
P 6.988319259050096 3.8533158586699177 1.0749665163723585 0.310153202787182 0.035689225871493375 -0.7245296717615135
P 1.383888122368835 5.512736954660834 1.5085168322431746 -1.1983096795051429 1.5288136780345347 0.2655041966192395
P 4.954620437230239 6.117707130814048 12.367419871860468 -1.2078176189955778 0.7650764828356242 -0.5198387497749046
P 6.958149804875556 7.293369026503515 9.89684676261906 1.1477605058026814 0.6124416581143065 0.45661712281109745
P -0.13918763172736723 2.267461533476944 3.1874285722579416 0.7915853277594302 -0.5889916546214824 0.24132271427702956
P 4.437097554667033 4.70299689392747 6.425350074081798 0.02131521653800845 0.9537923695502153 0.4564893389839816
P 2.9652289795545888 9.140195564985703 1.0105737599760591 -1.124199944873922 -1.4037241099213373 -0.5716757890508541
