# total energy = -340867.2207558743 ev
CRYSTAL
PRIMVEC
9.26691227874678 0.00000000000000 0.00000000000000

0.00000000000000 9.26691227874678 0.00000000000000

0.00000000000000 0.00000000000000 13.56306283379674

PRIMCOORD
 96 1
Ni 8.419147192687726 7.141749692392145 2.8392234074018696 1.3779917381522397 -3.1173749084413473 -2.664677689509946
Ni 9.165504294314958 1.8213096398896804 9.197451973826505 -0.21212680943936368 -0.8194524864833436 -0.2722911376340859
Ni 1.3588629246860071 3.5977118236769825 5.229144287741959 1.2486130557453852 1.8627508706151918 3.407266789876332
Ni 6.737869861746258 3.022950133656795 6.953294060885663 -0.14886610170750492 -0.3797321394275847 0.1152782384497305
Ni 7.320415757941848 7.4172179218802405 0.625186665594988 0.07216880885476604 1.345367010138683 -0.0886629498550473
Ni 8.286092868561033 1.3601788262061347 11.794682945059353 0.5279865756930198 -1.1335199367232671 -0.10804675369829778
Ni 5.084495203178763 2.977894406960599 3.733721366076694 0.5682796188851117 1.6682029505998561 1.5765765472411106
Ni 4.496379892802914 6.674048638020076 11.232358377786793 1.3273726304437914 -0.29173459107067823 -1.5354476384112845
Ni 1.5114426326359998 1.6723440276639818 10.99386605432307 -0.5244883327317742 -1.0943234690294639 0.08707606498390165
Ni 5.050105692325291 9.165930572272183 9.000380894128032 -0.31590398922803015 0.6001361012740761 0.12086241740572731
Ni 8.437365941903012 5.9398960596464185 10.646122397187577 1.3022038444876476 -0.041547484424483284 -1.4216673246633194
Ni 7.613824729281821 0.8201513761700445 1.9623585290967531 -0.5376642079920998 -1.0757053397076441 0.9891542939892771
Ni 5.906562976773894 7.382559670575474 2.60119164947019 -0.8443651905646232 0.9575014429706863 1.6908803375927135
Ni 1.7513815210806525 6.652614270301379 10.821953714321738 -0.2925735420322058 0.23477128631175695 0.5969373918311203
Ni 2.2970451070642186 0.7491696094537033 8.63657860499093 1.2154987896899196 1.1107350776182676 2.9133298475688534
Ni 0.5300896134854938 9.225016403908329 3.0015055723347737 0.06710630673019409 -0.35006752248361644 -1.1877568436899608
Ni 3.6487169079500923 8.488982642375618 1.416973877167806 2.902027020961525 -0.4996440199945846 -1.0096971511376354
Ni 9.310281262265322 6.818909008179461 6.515654869410027 -0.5531540760975828 -1.6441749631163747 -0.8163044277726651
Ni 3.5358459184067637 0.8070507425150852 13.08048924140679 -0.5889898548492695 -0.46869230880807666 0.5217539645197465
Ni 0.3460941467792747 4.069471785554797 9.443865653764911 0.20524705160039491 -0.26473569388433116 0.6445549937090834
Ni 7.285701905164401 1.3317479398416905 4.833157086143203 0.30469603632735265 0.978168741512051 -0.7444364379877695
Ni 7.030046333775127 5.470054348576114 12.313225986051334 -1.440337647379313 0.39895190688914517 1.510354957108715
Ni 3.034292834083809 1.084738397454381 2.3122168955765616 -1.7900696409003818 2.0498204799756117 1.6383832961352622
Ni 1.5802123874308311 5.04416560166049 0.007930623386796455 2.1956614217035475 1.7528994596079877 1.43862837799769
P 0.7139331028330502 4.633696996501851 11.759663284182158 -0.2702949331396635 0.983989719069202 -1.782984709029142
P 5.724255014763556 4.254050141032961 -0.06968347232922953 -0.15121866110008148 -0.8137220117574696 0.9290429305196775
P 8.202866730869026 1.9342362309056906 0.33143481850681233 -0.020616647809087077 1.0955588840984616 -1.745968022595477
P 2.9478974124489605 2.3054409294391163 4.335975204264221 0.8899716755498286 -0.13526342332240573 0.5320309209657224
P 8.354223206420027 3.219130663101152 4.345076238650961 -0.45882750019885504 0.4055532142557467 1.127358802217878
P 0.9375612992666018 0.2990543741995627 7.176379216269359 -0.42537513407768035 0.47832186147804073 -0.031249444932584892
P 2.9083832991966823 2.8159365839516695 0.9322411650221991 -0.26523603055951744 -0.13292269100437107 -0.5372554025894554
P 3.36459338254792 2.2795028424332235 10.246852855318195 1.6467540366974607 0.11161081690047231 -1.3709073205016324
Ni 2.7207005281604717 6.557035338761979 1.4876377887986516 -0.7396701269473777 -2.183393402969472 0.2156782742360479
Ni 7.844709844591512 8.031382522207343 11.790126404373108 -0.8092822308185611 0.9346983290332419 -0.22483294415212246
Ni 5.185810353316465 6.69029353495517 0.09938207227081083 0.43693249989797656 1.8792390980782023 1.0584352397732868
Ni 3.4369957668912723 8.905539608792873 10.774333833043716 -0.8841640677291158 0.2543684917173942 0.19718330075565393
Ni 2.6795739722004313 1.6015077514678235 6.505780974553014 -0.3588385838080272 1.0094364412770809 -0.5966085477367918
Ni 2.8371392788675265 4.436219099361594 10.999237156584096 -1.055642250409182 -0.3575401767115778 -1.3276989034349587
Ni 3.9209880527590046 5.18694091659432 12.837859241684356 -1.73042596109582 -1.6260556278078446 0.931861373805079
Ni 0.9041531544059569 6.164173866619132 8.624669696233777 0.42852370700899106 0.8163838748603488 0.02382589877500413
Ni 9.24817441728015 8.915964884920644 0.022664086956167433 -1.2526237195666752 1.2523730370084496 -0.44702485113697205
Ni 6.743050065617746 7.303031030816784 9.633246123100328 -3.1037925417712224 -4.026530098898162 0.724310613772172
Ni 8.294581360057066 4.411411575633557 6.182057153615907 1.096157179804093 1.0112066458036262 -1.6111113477931867
Ni 6.560834772728544 5.432690158934185 1.6568636509782566 0.07091950982869721 -2.07034739628437 -0.034917637812791474
Ni 4.035971898264228 4.259517619179968 2.2850639163925788 -0.011768453389837796 1.1258081699013065 -3.991715048101506
Ni 4.897331379220913 1.6974388256675397 5.702874395135119 0.5635171644994618 -0.818829251077048 -1.063244231126156
Ni 6.590433290019299 0.6896704735372914 7.1768536821695745 -0.008557402651707843 -0.33169853305812547 0.8917364807597351
Ni -0.19382024692903005 6.516057053395756 12.943555787869355 1.5058226164560002 -0.6379331175171916 0.2596631644574302
Ni 1.8664858364433528 7.222464496901373 3.6521262049166765 -0.2755052736960094 -0.9830646361517715 -0.7346497909146509
Ni 0.500462368767187 8.368864927559473 9.387497807451677 -0.019076557015476822 0.6845490176035178 0.13659062677426154
Ni 1.8716197057542727 3.792826658228279 2.951430886037866 -2.0063960902433897 -1.3170095420419126 -2.639326098119035
Ni 3.238433641033726 4.777778946043696 4.287894757454154 1.339200476316655 2.2587362386768453 3.1056349942966
Ni 9.143449043484654 2.1155804340562163 6.537640618399481 -0.07844538589209715 -0.20386405520993922 0.5784516743221071
Ni 5.6952495798480705 2.9946953186225085 10.578347908753745 0.9259434656587472 -0.18197265445348662 -1.218810884782288
Ni 5.9324176615707644 1.0913179050550181 12.704873492707303 0.6248767985538658 -1.3470202294713898 -0.5333167296566814
Ni 5.326871289509285 0.9543900116648517 3.074569614203035 0.7388715423054824 -2.530758953140893 -0.06445807047406962
P 1.5446274449147077 8.479261651568478 1.1857625665517169 1.262393140248613 -0.22903978314461845 1.0558510239858785
P 6.08420041507899 5.350270242596059 6.523832919350256 0.8154554495088085 -0.2991301122038009 0.7884712076104807
P 4.612077290540884 9.198077490394171 6.756209080819022 0.5949566139556656 0.20981487347673541 0.2828743124665709
P 5.423376912260043 5.224898188611519 3.6208763238872828 0.7363217793004352 0.09467830281119179 -0.33389348382691525
P 7.963261451260463 7.723526434882308 8.08232366478687 1.5224872215958747 -0.05288167849037989 -0.7695149782229522
P 6.2502727470663455 5.122999223010661 10.3054049128166 1.313383515253551 -0.1664953847534939 0.2667797208975534
P 5.672536378257702 8.560143260495751 11.157084177379444 0.05830670616069313 1.3125368509825397 0.49619951308941
P 0.9053522928334533 8.784402533644236 11.590505070460981 0.23583803701337447 -0.24926125239781588 -0.5504024814943747
Ni 7.330164549485328 6.450845792852537 4.856484684006701 0.07438227156631706 -0.005471307527216384 0.18542667444035807
Ni 2.597265258807669 3.6827264754069082 8.454481001885572 0.3953420780506998 -1.461326076705522 0.723426925615638
Ni 4.63094472360412 3.807283041125454 6.282030454879564 -1.330465153326186 1.834112380942893 -0.007069762362587824
Ni 7.619996492749462 5.175913291179167 8.151319532237272 -0.7406887980198793 1.3179022290595108 2.093390908367395
Ni 2.9839086329223083 7.395134870313594 12.788991107344636 -1.1693734560867666 0.8949724711985297 0.7661188080572097
Ni 8.172165451036756 3.5890935954113585 11.442708015852805 -0.4244333389897013 -0.4399933982114874 -0.4127705579397924
Ni 1.3030853806744065 2.9124607405266545 13.005512508878287 0.10502442193220624 -1.3090460642204618 -1.4930892280497317
Ni 2.7725859690843717 8.33965562057749 7.034563953430494 -0.5451679725683126 -1.3210852547731828 1.1061749690514109
Ni 5.210321335856868 7.2193971489917805 7.591801912643914 0.025710517392226687 -0.04285669015421006 -0.6271511964103392
Ni 0.051288651783785534 5.161744182557513 4.154555939125575 0.19263707614586822 1.2523761223322432 -1.3632428619778392
Ni 7.490509929786495 3.263723044191669 2.469616324516824 -1.3615839862181778 -0.7544904797896619 -0.08552183312290433
Ni 0.7774318380176807 1.8385090287724735 1.387759010038553 0.3022655725089891 -0.4916525171486758 1.4215063736054228
Ni 4.996895082969149 6.662835674362651 5.188807272693994 -2.2048400028790223 -1.2842989391827688 -0.318519058253374
Ni 2.9574515988380554 5.5256465543454425 7.123185287355023 0.14757155126579746 1.05005575746034 -0.7114363289126651
Ni 2.239673654169083 0.051342399874044264 4.628774412787121 0.1349777737611869 0.34726861958224065 1.2532927206092415
Ni 8.801407317372645 4.097476393962017 0.7493419740190158 -0.3646073679710043 0.29996314962805765 -0.37037383814113634
Ni 4.781476443977013 2.475479499811082 8.250275326550858 -0.7783516026779757 -0.9796826070534159 0.8589839689190626
Ni 0.6553921656291819 1.8752245345664529 4.196113406498896 -0.20427106084037078 -2.215314677158101 -1.7276440274753084
Ni 4.654779221560232 5.3228494496519945 8.907541261809405 0.6121215557707265 -1.821960061851075 0.010532266989891539
Ni 7.541542814795946 -0.034991860140854654 9.719168932217384 0.6721444732915779 3.7224562695358405 -0.29703826267177874
Ni 5.109441730588503 2.2212510328872983 1.0808592680436389 -0.012695078969165233 0.9846039556144335 -0.34972607998379773
Ni 4.142087308876762 2.881120043758548 12.221404787373988 -0.4963892605027128 -0.22766681405649178 1.5225903228326423
Ni 5.870764895279159 8.68571918654679 4.947547849273158 0.20318734085788878 0.7670621458070854 0.059362144008400994
Ni 8.428933051879659 8.905947352925871 6.313144112300888 -0.3712878653149735 0.3421212710533463 -1.6473603028228918
P 0.7473106668837204 5.563149747669076 2.0373213612570855 -0.11169412064289796 0.26518769382008517 0.1259593723126605
P 2.0289996741790963 6.875177698533081 5.716220601961088 0.11246288048812243 -0.7898529184493559 -1.2467870582802398
P 3.3419079816938915 6.88246149145435 9.271764268756463 -1.2522689073304174 1.0001858692130903 -0.2812406335178898
P 0.8991907229691382 4.468773761616578 7.317109323699725 -0.2470364768323552 -0.754176805203985 -0.22274675104705507
P 7.0170448560797825 2.0055821872680957 8.898399453009365 -0.52349640113215 0.5249066512161153 0.8368611688780944
P 3.9143529436856856 8.448736443066366 3.6399189015894655 1.0502205651729783 -0.631421541650919 -0.14177268519583325
P 5.763639391246246 9.051993887835794 1.1891764969743575 0.5820509616375912 0.6922834101332981 -1.734045303015962
P 7.9107643941370664 8.667630174101093 3.8968579403064694 -1.418637793808376 2.2321088658973043 2.6797713506182754
