# total energy = -340891.77038312366 ev
CRYSTAL
PRIMVEC
9.09072967212986 0.00000000000000 0.00000000000000
0.00000000000000 9.09072967212986 0.00000000000000
0.00000000000000 0.00000000000000 13.30520178020271
PRIMCOORD
 96 1
Ni 6.28013952924266 1.858063281248234 11.506550791187063 0.44371198471365514 0.549591555557305 0.30496085995296507
Ni 4.690061861196164 0.33974146790119614 6.247656534802805 -0.03801838822530226 -0.3226767891754894 -3.3320872192197
Ni 2.3418719021172105 1.3585549706340352 4.831251798295756 2.4672187664954026 0.8461176544793557 -0.23430437397766743
Ni 3.5833110053582544 4.440121345935517 4.785720879888723 -0.9400115137160391 0.08985671305283234 0.6980951317190688
Ni 5.023637087317288 4.370595447168025 2.6488794714459716 1.0667938961506274 0.3338027238853219 -0.23812991837134476
Ni 7.264947340354217 6.08689789350775 2.6877305218594953 -0.05855147518164755 -0.219177545638558 -1.229326182491315
Ni 4.985065122297614 4.682816549831403 11.571121333336071 0.5161934397128336 -0.41932995632486486 -0.5500432983827431
Ni 5.588662285015341 7.903598355797814 12.517958985716973 -0.2940010185073517 0.0883356484226156 0.5336214053812939
Ni 1.7499654174610677 6.581588117518031 0.5681551358447119 0.479913888555509 -0.3996885279448536 -1.3805047343820804
Ni 2.634147944386254 1.6527764290035285 0.4028656749960853 0.42446084979352705 -1.3377439463757863 0.511699408497222
Ni 0.7372908843199764 -0.2370589516422455 4.618302370204931 -1.9090996330830605 -0.6555156064856453 0.2930502245583082
Ni 8.63442027704732 2.534140829801894 1.4865369869282803 0.48784908424218565 -1.6263227654263022 0.2485043196271333
Ni 6.96700777364321 0.5027564282435955 4.848628727622908 -0.7478611473986023 -0.06264004342872438 1.5869072397431574
Ni 0.8532822284810725 7.324882519561079 2.6199136802269787 -0.7143115935779311 -0.1622461225588367 0.4122601939622771
Ni 7.786218857251023 3.9311041323256597 3.928759633202734 0.5730744691705937 -0.7936509520392073 -0.7336920549870719
Ni 7.5609142187764515 3.7846070273782044 12.649680928103392 0.5659766817835479 -0.3495515020791464 -0.4552739785196417
Ni 7.777055401974136 8.973286307703315 7.145066073065165 0.4954842321899402 -0.17018286090741017 -0.28001575997185324
Ni 6.895800089929066 0.7498924534715843 0.4077937594262445 0.03324770630953629 0.21190312346433182 -0.038411767008979004
Ni 1.9102167960532948 6.756593749993579 9.140487548953457 0.13707553683048004 0.019154204330947656 0.12425370247546343
Ni 0.10167071807212769 4.811841272792572 1.5297524965465994 0.1239207446160769 1.1258007137021386 0.20921426377825902
Ni 6.364419681893472 1.9537795715362736 6.959631555774493 0.6696494747838662 1.1981042483625561 0.4675630802996399
Ni 3.402750937194037 4.118809513830782 0.18775810773588258 -0.44137999414636886 1.3542774252544354 -0.015389080861560595
Ni 6.0948068281217305 5.608689161974649 4.8485887284133655 -0.5130600362901745 -0.42225895704620175 -0.19029377272467227
Ni 5.107353614742737 2.6796561359696827 9.466184748940703 0.6781557124826643 0.4620838023526236 -0.9835256349485899
P 0.0803375032920971 5.468091940434634 12.636934816353666 0.5970183815807008 0.45168857516122857 -0.0832633761060308
P 3.8361151003929286 6.293848349240224 12.657717132929552 0.494765865966677 -1.5866038495701256 0.9604607827093263
P 2.3091543668577703 8.579457726844883 1.4749744881518192 0.2511751815910771 -0.32349645686330736 -1.7453591853668842
P 6.529316423230232 7.498706357209251 5.870747619580625 -2.9574924010186807 2.8986293081338856 0.6219606533483353
P 4.558073560437114 1.0217434448317881 12.759794206607708 0.5076797458148675 -0.14309911731674066 -0.6308638693752361
P 4.214007632540665 6.303829970166833 8.336347076613526 -1.90622333997653 -0.7845374197737134 -1.5783994593824624
P 4.734570072541044 1.1986399490311384 4.116975004629516 -0.27458713275711416 -0.41946982433683894 -0.6035402418596186
P 0.36431916401884673 5.45492856420355 3.7930468605915597 -0.22639771753608104 -0.01845383582981338 -1.346664645904184
Ni 1.3345918078266203 0.9436995325777453 2.656875677062589 -0.7377857654404714 1.0896774856170202 -0.84046765528243
Ni 2.0243690856484045 6.516771216601161 4.636849276411186 0.6424148074376291 0.163288447780422 0.8598494022431513
Ni 6.0822707122221 5.675833289628506 9.284116528762167 0.6597772099754766 0.383117768070366 0.2648758190066212
Ni 8.756708769492445 2.4760965223188354 10.317757920286802 -1.1267077988974403 -0.03532695743606819 0.5316552827938587
Ni 2.310745244510007 5.394066130593671 6.945807283513022 1.0374162143194585 0.01580045736736634 0.44758766561897756
Ni 0.470766151339463 9.3595423109371 9.266979594692264 0.19911651322262483 -0.41457110148364085 0.27666792654554284
Ni 1.7226114125720269 1.4801707491004985 11.501601798079188 -1.514438126039153 -2.82942909498914 -0.6223206077909154
Ni 4.330914413156505 7.126904613787223 1.3999205168110385 -0.25643771554159706 -0.6954481810145249 0.12083182127810801
Ni 5.496309564620604 7.955279152671925 8.035077575708149 2.568064888680203 -0.16504605390147706 0.6894276858520578
Ni 5.4661556150636255 3.159337565672284 4.800796036521324 0.7879107071213205 -1.0222127671061427 0.6306494393715848
Ni 0.7254411184931685 7.5427509413526215 6.782060519450594 -0.5815822495312888 -0.4264308290357043 0.6230245758364754
Ni 5.128316836834506 4.6603351759229295 7.101797837216086 0.5793003954756475 0.10890858747796082 -0.3106064882745167
Ni 8.22651924701367 7.474652287107421 9.078258778708543 -1.0591577197616082 -0.7054484867603463 0.8037137355918481
Ni 4.517265275974866 0.3209327486870302 10.552076017002479 -0.08144560617100167 -0.4556038510552347 -0.49264727696177735
Ni 8.117712306330077 7.0176885902787705 4.747695267708474 2.518975844463036 0.42512496574008724 -1.039248639542507
Ni 7.419053385844087 6.068970975049396 7.03605640911503 0.12028340497380575 -1.1692870670205477 1.0181121146742078
Ni 2.5993577228141835 5.2157696540603515 2.57820177725826 -0.5807684953807417 0.048560168296890555 -0.48789279299592747
Ni 2.3506444560281192 5.339121761850114 11.274508104050556 -0.9890738184603288 -0.5321463634976641 1.0929918947022337
Ni 1.4042086138885261 3.2467540199803655 3.685913523198121 -1.618702529876883 1.0086900500293594 0.9797623112514158
Ni 3.489912851077761 2.6608655982143996 2.6108793133081587 0.842545106636749 -1.1659500322275145 0.78002359106376
Ni 1.1440319372769119 3.795643172920011 8.385284291342234 0.9106433449665672 -1.1131156620353024 -1.041271840620123
Ni 3.7978522201742604 2.739691313200399 7.228383517468139 -0.31282740718523544 -0.17276681958450246 -0.030816214049908218
Ni 4.203398751282601 6.824665132050454 5.972904691677865 0.1759956109344453 0.4891238371895512 -0.29151141931627855
Ni 0.7247693135874523 7.181558079188657 11.354006533015216 -0.5483054897560299 0.5773643547951992 0.28455375705152286
P 0.18961988912547237 5.781449384278182 8.102428971993268 1.0165715096599652 0.5396228743803675 -0.4862974234843496
P 8.536767661388273 1.8165913735367674 8.151950720625058 0.1310252168713421 -0.48748758713770884 -1.1811429379178688
P 1.5988956756046104 3.423005082389379 10.431118407347569 2.1480098812638553 -0.045499269983379706 0.24747279303882544
P 4.322596395717664 6.197795701962855 3.5506661959343444 -0.5930498838512561 0.7411063451732721 0.7306872067224771
P 6.839464839580982 3.9148408173550733 10.370779599753511 -0.35579491188569695 -0.20317062868734043 1.082603095268742
P 6.2637307626010115 7.789509701308794 10.433033824040862 1.1568125887026206 0.2573386300893116 -0.8311476634330848
P 2.434415527830217 8.419124531687682 5.827811195356155 0.7813397387720221 0.07353637862625399 -0.6709833631039412
P 6.928163086740295 3.8030066637675097 1.6671952349704637 -0.26860031904605997 0.47962592500144496 0.4387641537900766
Ni 5.175052276892517 2.7183008268248883 0.6324575014752009 0.7634484603138981 0.01772801340738237 0.3373534173510577
Ni 1.4343625634455046 1.2188122776615078 6.9664968746486045 -0.027738089345216745 -0.7511166782214226 2.1123988169284647
Ni 6.909981627857582 0.8716782285786009 9.307214254126764 -0.6852720118124714 -0.8567306541085117 0.13864750930329026
Ni 2.560813029982833 1.54942392598475 9.209115283652146 0.9102502232932066 0.013704751180602203 -0.31738160221482115
Ni 6.461481400138832 1.777028519007985 2.8007982874322512 0.05692216710834067 1.2424647767558021 -0.5740064940665598
Ni 4.156717855601237 6.807665467995118 10.494703514425135 0.16401864107822722 1.271062642998153 -0.07607585721865609
Ni 7.952542843110076 7.236420631367242 0.22479283040702358 1.079947917034082 0.07198163254462442 0.42778991416676004
Ni 7.882016964104035 3.933940439911363 8.365751950064537 -1.9082984773380036 -0.7104821925295118 -1.512172469933428
Ni 3.002040674148498 8.270482014592067 12.448852169576726 -0.03678091627377536 1.1314936503218578 0.575544270867325
Ni 8.91915101388004 5.05374558322706 10.11655644185304 1.003930166746871 0.053533710252082 1.286507002577681
Ni 8.801244253025649 2.0581593269819254 5.699748271569882 -0.36955802710806035 1.2896586608327854 0.39822325625323673
Ni 3.652800541207981 2.64283868173219 11.241537846512646 0.4019410714244562 0.7958811269213067 1.1186702733049443
Ni 1.1332594228889046 3.2945894383007817 12.669252359517687 -1.092702388486273 2.4478357339831 0.7280803652272493
Ni 3.222063598817642 8.407070224448443 7.782478022085904 -1.7192115804372394 -0.4169401159364497 1.5620801533971485
Ni 5.74805004431064 7.992260240039361 3.6526369080780365 -0.9200049886871253 -0.7649654111790568 0.054867855682473245
Ni 3.1961277477214525 8.439469584177438 3.4059981457504898 0.32603490701444493 -0.45994901539780786 1.488368939755927
Ni 3.470422327155493 4.551628233263193 9.314425929792593 0.01989493915171412 -0.7185078910474657 -0.4108180621991119
Ni 7.353409228548054 6.075816294318737 11.558068864004172 -1.248621283275501 0.08616949400923224 -0.5442835130808303
Ni 0.5814857814975166 -0.03906195533656344 0.029736685075620252 0.20488195495149233 0.24642635405218202 0.5173710049607025
Ni 4.710361460038713 9.513266545790433 1.8116232898970661 -0.3578229980593193 0.5136655310846573 -0.8187325775981835
Ni 6.021626456118813 5.229642107187861 0.38442331217840603 -0.9249127104013877 1.677918378115407 0.4266432021568265
Ni 8.061213422852047 8.985240616918698 11.457588122415917 -0.4033176400570086 -0.045893934318637086 -0.3577489502882742
Ni 0.25286773014076397 4.783760009548223 5.888961805089326 -0.09550465536722907 -0.5299676106787905 0.14463123769055092
Ni 7.996951056431101 8.824561974042727 2.656263870971185 0.6665584945633681 -0.9004039266267461 -0.6070989057451545
P 8.444996747677783 1.4873615160886113 3.7180983417122984 1.2822546550592304 1.1636087856888477 -1.1000009790302152
P 1.7704104679746777 3.324616117645581 1.5465303468035663 0.08613401278560649 -0.0718312230096892 -0.4066629023801578
P 4.659926093098068 0.9154546362034516 8.214312215519815 0.4124903076952122 1.6533386318935137 1.9830137067637075
P 8.577739578980466 1.8331546825789182 12.590539369576762 -0.2981708336143252 -2.0625690378905315 -0.33794502818846955
P 6.432263795714315 7.964051706582834 1.4750944857804453 -1.114848328455693 -0.6177106198227297 0.19547171738118593
P 1.975642775842735 3.194709593928601 6.158631930456548 -0.2617856101170717 0.8001630421261122 -0.839748003507586
P 7.280756118852736 3.9450402205592585 6.092811413009353 -1.8510022147196958 -0.1748301298714344 0.105581837097573
P 2.2289377702672426 8.599211881920949 10.410415180117823 0.2929496944247019 0.43061787053385836 -0.5989312823326975
