# total energy = -340875.7034500922 ev
CRYSTAL
PRIMVEC
9.13905275735459 0.00000000000000 0.00000000000000

0.00000000000000 9.13905275735459 0.00000000000000

0.00000000000000 0.00000000000000 13.37592749999670

PRIMCOORD
 96 1
Ni 7.442150069496256 6.165863061492941 0.5992906486388663 1.0009191478346893 0.5723337343498273 -0.6660499303580658
Ni 5.414468414627758 0.8895314306274641 1.6075996073856316 -1.665135624528442 -0.2655149952525169 0.12239916576522793
Ni 6.3607533634268245 2.9875746533547645 2.1227460825691424 -0.12566395255942872 -0.010312437669601595 -0.12607250085175709
Ni 4.383299942998122 1.477711732721851 3.850608314161496 0.6522263942114122 -1.3839574688173713 -1.4198066173054966
Ni 4.792299975000329 3.3991884544708335 5.24918224657685 0.05790047186120995 0.08668654285496684 -0.5965293577594243
Ni 4.344203074924351 8.194879018076906 8.244453810238236 0.05960357059524573 0.4033094125268925 0.61231258873561
Ni 1.773186450275163 7.435871540191282 5.226884785443986 0.16911816708832164 -0.3901659331663991 0.3706065229772327
Ni 7.102433197117061 3.0030013745582527 6.212449383373737 -0.4403371547041513 -1.9584912961423109 -0.2475051889386576
Ni 8.556301140964564 3.1546639565321235 3.42295364749071 0.03940292727765472 0.39268227183034954 -0.39049272037819843
Ni 7.894450933881242 4.2608183567604705 9.390784400681426 -0.19212799771993364 -0.19986239024971386 0.7647065010907153
Ni 2.9369899958539882 2.598771928141484 7.620105706507115 -0.8551661378348691 -0.07525207576578008 -0.3475936070218272
Ni 4.4981595591624846 6.004988314250636 4.181889840764138 0.47882631191828495 -0.4638771468076205 1.035933716236661
Ni 0.736670718825526 4.863136773607107 12.242451285262968 -0.1540198779943025 -0.40692309802007987 1.2124887992190023
Ni 2.4536894642164944 0.09655043769335074 6.80520378141738 -0.6388432880362869 1.2316448033221628 0.528588728053393
Ni 3.400184611231011 6.187476921472947 2.0191092232992602 -0.3618344332115575 0.7083340358382575 0.1503362584951282
Ni 6.466364258111371 0.16526514822936397 9.292832032281549 -1.992058847685111 0.25033803040176245 1.8284472122373157
Ni 2.7307032950215557 4.59438464657453 11.091613313956293 0.8792190650190148 -0.6688503759213384 -0.3260058535487224
Ni 8.125001820018923 6.043683063999197 11.329611614257912 -0.08084936734789946 0.371502809539257 -0.003878252008483644
Ni 7.621723318860798 7.03318659370543 9.028925431067746 0.5499846772306657 0.023407323180346783 0.3809726967029051
Ni 3.142490738141693 4.9863860402837945 6.2266816303702965 0.06586600656518979 -0.1500809479512125 0.2428424933556656
Ni 1.9580694893430395 0.3979043079422816 3.9984260966031946 0.003033644620001227 0.9986982289239702 0.9478780609483095
Ni 4.9633830442712465 1.4538131095304274 6.746510042326643 0.4738288587036936 -0.968659773580351 0.9770338565766591
Ni 4.630748937847446 0.10996382555493855 11.591445478286316 1.7630116083413252 1.5607308384581058 1.3585225736840345
Ni 4.2789136813948945 6.386580326768684 10.548885177284555 0.10889444641057375 0.3029523141633686 -0.2842529379816524
P 6.80615424291333 4.35914542632702 13.222278385816207 -0.8080180193941569 0.14589493489432293 0.9052417143350215
P 2.7151669051839193 5.693501976111713 13.05033076214609 -0.1001786638041307 -0.38670060032561787 0.08024592943594568
P 8.913455326173294 7.456799971207862 12.892441743468465 0.09085661507225644 0.4953762458571662 -1.2210832257562325
P 6.803750672014919 8.527449151130787 7.335077840261687 -2.705779858866895 -2.1856899123131326 -1.8977705812234864
P 3.3529174299132127 8.341378035192974 10.340996400488278 -0.7244535671079394 -0.11517205188916939 -1.4276757356409282
P 0.5057040057833658 6.033502159129123 9.555147524394924 -0.0004838816149540053 0.25057971409892327 1.0741665344656144
P 5.547231435316786 5.148448864396036 6.145944495815806 0.43471955140705776 1.1720589733387299 0.20103352773967959
P 0.6698998848297866 2.8647823393203606 11.224463155647355 1.7578668309155918 1.4375053201368404 1.1055154810905412
Ni 1.6532181035700713 8.792070426277123 12.604497605459983 0.42941099470995076 -0.8077511388860154 1.5230014422281322
Ni 4.088199926611482 1.2385244416450119 9.385901404745985 -0.6398748146245948 -1.535776225395297 -0.7823915770753042
Ni 5.266169004101094 3.7277465433254657 7.806632861181926 0.1918001820668697 -0.3769720601839443 0.6199101985772099
Ni 4.323411729700455 8.12768870155555 5.787991557388365 -0.6720310876421652 -1.01785628990966 -0.4673951872632079
Ni 7.0424718713966294 4.6129095066926995 4.5401909771049995 -0.8505597494111093 -0.7089313031026242 0.5958094488742642
Ni 1.0689401770407847 6.575201238450439 1.0776798532770977 0.7071698403268273 -1.5145180873474693 -2.158854023067211
Ni 6.952488757078176 8.774304107545142 0.4862606708542058 -0.010528153224833482 0.17554489655027186 -1.9467590953070475
Ni 5.879107000354396 2.4408673730740214 13.003073633786421 -0.6113599950143536 -1.6062486203842468 0.9558052862151861
Ni 5.394344220261596 4.319518493188201 11.51246030016234 -1.0571756563345729 -0.2802888111275818 0.458193723269598
Ni 9.099544720216798 2.743095850680283 7.4992271101385946 0.1763995312410833 -0.16156272333856692 -0.13810552075689117
Ni 5.955344979192964 2.175935370130934 10.521397648040637 0.7397634579921325 0.0832464068251663 -0.6265241043493016
Ni 1.5787987962477914 2.623310285032104 13.285239148680587 0.21349437921085165 -0.46022052389163964 -0.8016108303162324
Ni 3.012085593086847 2.1707718052731306 1.8813507963247895 1.7606194539600646 -3.0633040947388728 -0.5719429266693118
Ni 9.030380368280778 8.7817798527729 1.247329005156529 1.382493225567019 -0.05831107703606732 -0.9860527722458179
Ni 5.8342433899350095 7.174037676162875 12.207540103392514 1.4885802844357847 0.7759013413652702 -0.7272483562442571
Ni 8.596531251591196 1.699772438765907 9.967700820143527 -0.623261888658262 0.19174953133459235 0.0007466483580374237
Ni 5.495769428742826 8.1011031968275 3.3847514926905307 -0.3523542616352641 -0.10573636039756629 -0.8087003901731621
Ni 7.445120261671097 7.293421123485845 2.623527794489831 0.7679797725253483 1.1575949753946 0.5269162254469765
Ni 0.6221903733542581 7.5083259511517415 2.988811167204783 0.15067872943621147 0.19704189008178324 3.6941273406841604
Ni 3.304169722034416 5.217494408645062 8.587359298155283 -0.4546854530060234 -0.13857860373856778 0.23692278543712103
Ni 1.3926728459929043 3.661625495987053 9.2661341172035 0.16150204530396056 -1.042751510489443 1.3007264886111727
Ni 3.5883394312176367 2.3871114642357987 11.513837555426184 0.3040218930784635 -0.660521801450985 1.000061170709768
Ni 7.679262795577128 4.9758304342470465 7.235601077847153 -1.2193526162183708 0.9844718009119432 -1.015091068459697
Ni 9.11658905377397 1.6821066496152297 5.173353697305768 -0.12223358672164109 -0.565151100558459 0.08002610011565572
P 3.785541913521474 3.993418809549053 2.4175655300334205 2.5652708708748335 1.9264669207169147 1.3100562506525308
P 8.734247638922577 5.568982381089478 2.5040538705436894 0.09863445924546238 -1.5423063132043309 0.9018218900201953
P 3.9719968696788053 3.3147070499654725 9.597134160978493 -0.46038764559712325 1.389605154021452 0.23486127492240197
P 1.0874010637890354 4.010463143106225 5.881074638432069 -0.06672835456548508 -1.1748141674863637 -2.1759284620509947
P 3.4934120893096767 0.6969313753367052 0.22905847880798466 0.09439419591186969 1.329125608579156 -0.5629821179315981
P 3.4475614611829575 8.035302016338687 3.6517352129974707 -1.8254534197163141 -0.9233427948111066 0.2972591204333332
P 6.307308182385355 5.709632404384317 10.2559118184951 0.16299842734382894 0.7677283186361745 -0.5875384671147236
P 7.083113239401318 0.45978666257087303 11.64968409254534 -0.8704762858293783 -0.0023011373293508755 -0.6885900204421108
Ni 1.83014102760937 0.9595457144781314 10.764171103454116 -0.12618331539800848 0.41739648674757795 -1.7808725477821457
Ni 8.953383848056019 5.6832936540831005 5.057759301292613 1.3297827825471809 0.32333627713635926 -0.45850842629653943
Ni 8.781213231496467 7.314514057453648 6.988481088900273 0.5410102416461974 0.06680780165316881 -0.5152722134501448
Ni 6.274115142449886 5.339062089598147 2.625587737001245 -1.453872191530638 -0.08597897526498095 -1.4316578602171277
Ni 8.826881078566274 3.889964731336084 1.02399705686164 -1.6343728894242886 -0.0931487535405428 -0.7912541696722567
Ni 8.389787598116481 0.23387932918407486 8.247731074588692 2.853792868545485 0.5244862758492451 -1.099038615116946
Ni 1.8936208886753843 2.96694781108209 3.954539450933009 0.2869366554614026 -0.8818691010473523 1.3871667197832882
Ni 0.8224416436874107 5.10948908211495 7.603599663162552 0.8825812966230284 1.8039520553094286 -0.0893149816167494
Ni 1.8032447950845671 4.088583766831 1.8529402227434595 -1.6885910273379048 2.0527957605538516 -0.364536662634069
Ni 1.9690729089692245 6.898559206235886 11.139887618897683 -0.9964911939703225 -0.8327769715063916 0.23263804201883803
Ni 7.651964444727115 0.4964571121141183 2.9818956459164654 -0.43824710494434205 1.118897815934718 1.307297456960471
Ni 1.6089485315856522 8.034506918741114 8.977012869188496 0.009421550424216033 0.0376481493700771 -1.135259288011877
Ni 7.763515723761347 3.2253179740819875 11.778908471972525 0.9449256631882048 0.3495738706766496 -0.5466635832772326
Ni 3.6594504014097846 7.687122381024403 13.30112921986335 0.15031903210394756 -0.5947943773461886 -0.24759620599056714
Ni 5.579145007853861 6.152191038435821 8.271486214650439 -0.3308189586666496 -0.0407373298183621 -1.0901338564281484
Ni 2.2733759515714524 5.296071985012121 4.104122898384491 -1.4101485253904424 0.026389031516490035 -0.8073366770564161
Ni 3.7081981092885803 3.7293641556791495 0.07675890485077076 -0.36978685528941474 0.01564799094990208 0.5197186792572728
Ni 4.970520644543714 5.644141951692257 0.3064479783051065 0.7411526250301752 -0.40014078499092376 0.23452240352574447
Ni 0.8437721930292013 1.5212501804786163 2.154647774337518 -0.9467259496217372 0.9994495052676982 0.23672815292781163
Ni 2.3055362785353606 8.71419655697918 1.7762160462935024 0.6943279513671526 0.2807238417824714 0.05164369231822073
Ni 9.019413504865975 8.351357880900444 10.728028891165351 -0.6959343766223242 0.3547068210278407 0.6575346937982031
Ni 9.07709006737499 1.1208591362570282 12.474430605360428 -2.204006965454765 0.20747954047533942 0.5283560432172965
Ni 6.68744708550094 6.836358812568265 5.286327012962785 -0.16721452230770556 0.48259760603525925 0.6038063510368117
Ni 6.17322913808655 0.07445951915480055 5.158292538216105 2.8746476005073074 2.1405577958611843 1.2823155902041528
P 3.2347586156715633 1.8773716527157853 5.495767600932258 -2.2224011516912374 -0.6626018239084653 1.1289022354455978
P 2.8867526223613478 6.972311362700432 7.159036834821994 -0.5572873815396661 0.39647824853767205 0.08218479832987136
P 6.983881403603048 2.2954650422994334 8.346591864841427 0.13064880736852982 0.023718940883494636 0.45899590745591917
P 1.1730614061114875 1.136943869265405 8.44553399266449 1.833964799621435 0.44148746625851065 -0.0654155492913325
P 8.49822246013034 8.082770256819089 4.974815085475893 1.0070699979274333 0.58987045768201 -1.3205862036495772
P 5.362878461313959 7.62146742538112 1.3079620512611172 0.37823241495360665 -0.9826506885428045 -0.4482206712172861
P 8.003881952655277 1.7742739975637978 1.1673641205674976 0.18584730691754445 -0.3520536996757098 -0.108151140486646
P 6.452189587147739 2.1526490634801703 4.235580862327157 1.0983436459324505 0.2669933795702563 -0.04707792732440924
