# total energy = -340857.1024980274 ev
CRYSTAL
PRIMVEC
9.41360648350410 0.00000000000000 0.00000000000000

0.00000000000000 9.41360648350410 0.00000000000000

0.00000000000000 0.00000000000000 13.77776463052748

PRIMCOORD
 96 1
Ni 7.3544270569818515 0.9446365736078679 12.60669602377439 0.25237614387771373 1.018678014480007 2.3043026144527348
Ni 7.105860780363326 8.790660983271886 11.159727762122564 0.4652326323942504 -2.4246973481934244 -1.5485443236942427
Ni 8.717206612643052 4.953025481556397 3.4368634475259756 -0.5492506272781187 -0.6430030758409313 -0.35901007638888494
Ni 8.248041883978381 4.880823120576882 12.835696119519913 -1.7996207749239264 0.5630867618302625 1.1208415699246503
Ni 6.388666350644122 1.644867684619759 6.114227718234711 0.21959534990226698 0.6598111485372056 1.1379586892209113
Ni 8.102808764657395 0.9246750212666603 1.3998211554289055 -0.5879009926604649 0.041379334277735186 0.05161258196996917
Ni 6.221414805986621 6.389089962931486 3.2075602336548275 0.4399550887743842 -0.8751677777677765 0.27592924860730544
Ni 2.9208726166161405 8.324245027671884 12.808994425006434 -2.2078145121263137 -1.3894462598460844 1.0300222358482325
Ni 3.834208948991037 9.158384689522574 9.555816796166386 0.2364378753809025 1.122988441064324 -1.686774028733824
Ni 2.2766148091745486 0.4917799766460524 11.475802775576614 0.5092442620885101 2.2617611415460983 -1.146286492360316
Ni 6.97298772622697 4.302498212261825 10.47319533112337 -0.05277009261318009 -0.027383019998643163 0.06816020191600519
Ni 6.550119113767938 0.6481672781736378 4.096970002678795 0.6448193031140637 -2.5551255549107155 -0.7246875374956164
Ni 4.070151579446129 5.4806016378453055 2.8980973373262002 -1.0809743014160673 -0.022607967207503 0.8025130304155276
Ni 7.838060498661584 4.148736365555255 5.662785044952051 1.6440209540370136 -0.019633457960211348 -1.0523496957008391
Ni -0.03393699238164911 2.6102518467020532 4.952583042056262 1.919309740846843 -0.7238303317016438 0.8393014028884707
Ni 8.903106511550934 2.5266872628148103 11.541674486261641 -0.9638171007760692 -0.6358669790167822 0.11143315367202744
Ni 5.245732158518201 7.599293786290734 7.899122797844076 0.17502861903548567 -1.2160227805141897 0.2996106513846453
Ni 4.1049913366801825 0.9108266649124278 13.396148354750784 -1.8865397455046735 1.76324172207426 -0.16350724865944744
Ni 3.259630656017551 8.507603252855585 6.726455729948428 1.1286942331998497 0.0007962706490502416 -0.18430541635172126
Ni 7.94794552600368 2.4005731780634987 3.2590611328312065 0.31011077958502076 0.6913308164120416 -0.25797574945267826
Ni 1.8195842191412444 7.93804241208576 1.76316847607081 -0.8656824639851608 -0.03724680016660037 -0.38034354775933854
Ni 1.402947414109648 5.792869788876917 10.84819857919224 0.31208744369541735 2.653330125707611 -1.4089416495665348
Ni 1.334246914705672 9.03647848682574 5.495137187465705 -0.655996916997438 0.4557295779998216 0.4232033232373421
Ni 4.445792128667323 6.770369262377808 9.896237278455539 -0.12844125819424976 -0.32065101699471227 0.1870356707986908
P 4.23552040282646 9.15768808265002 4.846673380690913 0.16337766506011864 0.2923966501347093 -0.6384853904762359
P 0.7567165147695808 6.709707982827353 13.666922270194183 -0.02215031084479411 -0.6751912305377017 0.17052096097311922
P 3.3140601281405693 2.7598246385669176 12.07034167953067 -3.4379441643555304 0.05554354159325918 -0.2989269950540594
P 5.613973613120112 0.2429764771466038 7.903090632935715 0.11711092078309508 1.5583957625670257 -0.12256114526438892
P 4.469100218078703 4.446102777678057 1.0463167016240518 0.46009068318199475 1.3266853745687799 -0.9270091879191001
P 7.0109057327491975 2.9846592134867 13.377878427477114 1.9645225899380556 1.3418749378250245 0.7590937828896281
P 1.6590351622304722 6.017864395105258 3.2130163599160695 -0.40845830371768366 0.6967399032427549 -0.7977603462218906
P 5.7968611579845195 2.3204633877198653 3.2026830441863154 -0.5377950771430092 1.7857959532256922 -0.8859129320994227
Ni 1.2755624924962463 1.4740577967484036 9.436777036614046 0.4647857746648189 0.863813786207538 1.5249521381965996
Ni 0.7928581737667973 4.900290458582831 1.5669587954491382 -0.15133693184550068 0.3476995364720722 -1.004948066488424
Ni 5.260003185799158 2.8061960636236436 12.196214775958506 2.891874248798239 -0.6567214538682883 -0.6603274260519918
Ni 7.81101520751502 8.029194362720002 8.625954877781119 -1.7757673653450965 2.6068227261746912 3.005582314547372
Ni 4.299363481335335 2.2745344021632743 7.24291535845628 0.2348345354495246 -0.9712812703635981 -0.06711144893651667
Ni 7.295996802144843 7.571288307292813 13.216581930219306 0.6470559057540662 -0.7937993046916135 -0.8267706174113115
Ni 2.3912254669223443 0.5455900334688819 3.4680422532365687 0.39922058716949954 1.9467202716493122 -1.1378080225756597
Ni 5.781121608107369 1.8126746320540263 0.9489969560857964 0.9929178747967674 0.7766379624209786 0.7703081635482089
Ni 7.786690448613967 5.809588353818197 8.442959076443273 1.0823817232865551 -0.857987152223432 0.39105064976419746
Ni 4.808554864352666 8.443383630091276 2.6024131366645507 0.5823096146156165 -0.39877758609480995 0.559610630356204
Ni 5.8885873386083 5.424873088041038 13.11313863372705 -0.24664669759310426 -1.3594682254267556 0.3108358306765034
Ni 6.493204449559053 4.333064192196699 7.363278671066472 -2.209086951080834 -0.39453757987153343 1.1520606758399319
Ni 9.318114762677776 0.6165780392246213 7.786214120130843 -1.1073381361215768 -0.3275570000859262 -2.1315157402635743
Ni 5.062232729238712 0.16525491874306172 11.518169652476798 -0.8816672694491913 0.09548357232130653 -0.06745134877443867
Ni 5.7373106839875945 8.948310649415815 0.2989431911924329 1.3998422583684278 0.5213760123550375 2.066718284172215
Ni 6.558930249345098 1.644415831513238 10.37359561011846 -0.7505435793267718 0.017681476440163095 -0.15765670341594137
Ni 8.445774686113284 2.2969764397871546 9.230412898783952 -0.7591418625187443 3.164813818649601 0.40792145737760716
Ni 8.373515843495452 6.704822321113093 10.657803683235112 -0.15257774623113723 -0.32263128064953467 0.0899029929097355
Ni 0.775965457107379 7.975903936969671 8.886905694960877 -0.43691501639647984 0.374907978566064 0.795399816409514
Ni 5.570049725723707 3.998579930094467 4.820674882574456 -0.9163301109386993 -0.6775491892469169 -0.6965432138509166
Ni 3.510352648498437 6.783454175254148 0.8208693009285501 0.718432300614524 -1.4241548669718633 0.3257078626923294
Ni 1.7990907980392363 0.8135379842752456 0.6459447257059373 -2.1954251373230256 1.3260762802298711 0.1402441643664488
Ni 1.8016607125825748 2.5316858878056996 6.820434586580343 -1.5274221970036468 -1.4142913439142224 0.45919336817870593
Ni 4.8272502866349765 7.434696878634044 12.849666852757162 1.834815063436872 -1.1425218831115613 -2.222823069720004
P 2.6368264575293248 7.711786382601712 10.473278170859565 -2.3617382308623838 -0.12530348389621646 1.4759919062478128
P 3.437303062944195 0.24330595337010877 1.5616410492017685 2.7009225307745934 -1.048712356058568 0.8551239717430241
P 4.544917403910386 5.4512876675597495 7.949673864136122 1.0946985929806952 0.04112145263065821 0.2760416058154537
P 8.54988917274085 0.48787897815975373 10.076726236412831 0.7491153315206777 -2.3745811482633234 -0.30762992214469603
P 8.55924629748839 -0.11344807735914238 5.434598284798266 -0.20678868505590192 1.4615621039757283 0.38173811411402
P 0.8068345551678777 2.2448533012286704 2.657854571474049 -1.0464197033696494 -0.2518778640850565 -0.3463867311979196
P 8.825048887399417 3.0744744320141506 7.426201098870809 0.7357936747111069 0.7102163404626349 -3.4976793754326345
P 0.8847377961746667 6.4932326903782105 7.137708893487954 -0.4382082812866066 -0.7259787455032143 -0.054451079860028805
Ni 1.0709483440932823 4.38278686112679 8.3583910021153 -1.6794499842685853 1.1087123907612844 0.20360257401843643
Ni 2.6612453524942348 6.760786211077006 8.341389087621804 0.5784514172117909 -0.9849232866270652 -0.5788717925786611
Ni 8.171095065380394 6.454316841579082 1.35643760903905 0.1287140522396622 -0.14974413343708406 0.35431035692037044
Ni 1.7897054324725379 4.81761075369586 4.9483808081656155 1.2282686877610784 -2.5419756477923188 -0.21151308711476474
Ni 3.381132073639793 1.846196484394059 5.102843027187293 0.32341495289309463 -0.42394920026443117 0.48032115129625663
Ni 4.133015642890875 5.935598888899264 5.620226130481597 1.562253445750219 1.490040928141711 -0.6933319060024704
Ni 2.499576076423545 3.637012722420128 0.2327918963977463 1.5144229565305016 0.08848451529565407 -0.4532798309077484
Ni 9.764169087665174 2.7463725950415294 0.29511373611466674 -1.8718001253016536 -1.1409679083608801 1.8855025624894108
Ni 0.8573131366907528 4.15490227773799 12.474566644542517 2.6382580618658373 1.7842363220480564 1.7562570632263108
Ni 2.797074279035749 7.792696329488144 3.7963116524028586 0.7604155870248452 -1.8275722658315299 1.8034375775668556
Ni 4.623530430838668 4.755113820900163 10.999767996971546 0.6576570783086803 -0.8372216375413065 -0.5888317320048505
Ni 3.7309322733318124 2.5714395475731693 1.9370293137718213 -0.35660918025687616 -0.7378449008131809 1.152362780461383
Ni 0.2589749011993659 6.313894075121269 4.981033784636233 -0.42484111595108126 2.0292431700448925 0.8120551655780079
Ni 2.9946282226493213 4.453530113116496 6.83782151757502 0.5030972686505077 -0.004801020933069151 0.8096725242784443
Ni 8.310096377273942 7.487187147841577 6.674404134798477 0.34205725058463027 -0.978965012161101 -2.2821926699275727
Ni 6.042518630229815 8.540296707833662 5.928502912405606 0.31672082870237067 -0.5335067341803005 -0.5083988833690792
Ni 5.125765158736853 3.230166068029822 9.158796064121637 0.20383628729579734 0.7025238569143837 0.7021636453614875
Ni -0.12260092684811007 8.574223345248287 0.5950585350265546 -0.05643031507358668 0.12218910663695086 -0.9494657171504034
Ni 0.5538024636799026 8.223387648853823 11.75054546747229 -0.3120100534902627 -0.20266977779152193 0.2920382383540261
Ni 7.120546006325261 4.0172000435256905 1.6603172954202257 -0.6771758650678982 0.31881319245502515 -0.7931670704242534
Ni 9.633414094965635 -0.023174416200700054 3.3105488529586453 -1.522617576526152 0.48426162400124334 -0.29996314962805765
Ni 8.000256936689881 7.7659993417778574 4.111753130147143 -0.9387488449535316 -0.6853802552555616 -0.19085401610351646
Ni 3.1206952393687035 5.6509596726101385 12.313835905028496 -0.5361585699808508 0.5087853201742205 1.9273056145681258
Ni 1.779821145767389 3.5214512904273607 10.60951282383631 1.7337509117039946 -1.4004086723948592 -1.3330977058530267
P 2.020743574000599 0.2965436629246782 7.951615891133525 0.6356162964585569 -0.6283467593803372 -1.4609082724418132
P 3.4228343499291345 3.618590294723008 3.960997047959576 0.6479359943661744 0.48712429026101917 0.44623449402519283
P 6.211003357323864 6.666998450654724 10.972983462721869 1.0606692713101282 -0.6754282862491722 1.7076920098334138
P 9.084327848085046 4.645972468462549 10.769017911798892 -0.8364716467491593 -0.5366385949410629 -1.5528720045353193
P 6.6281014290683675 5.934761077930923 5.453046129232628 -0.11800463624195805 1.1185070082542028 -0.33055824880609525
P 2.9481720751351226 3.363123844623651 8.714600926395448 0.20165110671902042 -1.2838268846423568 0.6904594695506818
P 7.040116153364509 8.220855388736029 2.182852465489508 0.2471606611150453 0.558839042297502 -1.0330700215356208
P 0.551141237154621 1.0123392307349435 12.725115426665903 -1.0965382172925955 -0.9384835071072869 -0.5704773978673788
