# total energy = -381172.49596372974 ev
CRYSTAL
PRIMVEC
9.21977180756448 0.00000000000000 0.00000000000000
0.00000000000000 9.21977180756448 0.00000000000000
0.00000000000000 0.00000000000000 13.49406798918228
PRIMCOORD
 96 1
Ni 0.6559360654611492 4.898169804066566 1.1178272786099677 -0.7278067998508886 0.7210124026368744 0.8568946904902016
Ni 1.9821403318789446 2.7823980975515803 0.9346045946119591 1.9774071592102074 0.7631846651295502 0.5658658672372964
Ni 4.060332247927772 5.366709394768169 3.986417336208637 -0.31436544109631664 -0.7901516806366973 -0.7893764930335696
Ni 0.3799136108598458 1.8199829828311516 10.706207554604587 -1.967721042270695 -0.1848134663363914 0.11505300981280185
Ni 0.5777127543100128 7.842079866629475 5.441469759575074 -1.7461472284858186 -0.3262603927616897 -0.6494017802784234
Ni 5.582166245456017 5.099843095689914 1.9076021635760227 -0.864105606416344 0.7148402123878914 -1.2126245534659181
Ni 7.9450370599895335 2.169891767858547 5.338495970625507 0.24872646294026843 0.3113752481197411 0.44277790293516
Ni 6.347739229054636 5.9526443417027455 3.8961963358196168 1.030788681700612 0.14476827748904747 0.15115824017579127
Ni 7.918631633126168 4.541714980955027 5.248652980886416 -0.7457654412118382 -0.7162651177598761 -0.8179198518889012
Ni 3.1767922822353096 2.9657240429954235 4.414139152535416 0.300335959586444 -0.2612492779976275 -0.36187145709708
Ni 7.368275786144708 1.473780546127455 7.619641804621466 1.0817605447627887 -1.2174790533447422 0.2171818553647679
Ni 3.500968683751653 1.7249271340318144 6.922024994131021 -0.6626172505274329 1.836502221331308 -1.1032729649132678
Ni 5.030777784016214 4.6305382639165025 10.176349104621256 -0.7855977427174277 -0.5017875487001487 -0.6157943766366234
Ni 8.905119572406738 6.226582205866268 12.643537028877379 0.5367915755791594 -0.10921094920972804 0.28703050072678954
Ni 5.177436696416899 2.7665400897984416 1.3009162759147086 0.15796832111908923 -2.0689101496172113 0.9717697799642425
Ni 6.790223744226954 1.1867229464797957 -0.08177753323766844 -1.4021387677120885 1.4269383432542715 0.865492973682174
Ni 8.129478597839265 8.633044102177015 2.088530968312996 0.4696790982013782 -1.2194248642172032 -1.6600448402690957
Ni 6.363422061140734 6.077876504092793 12.741598523332252 -0.522386713007739 -1.244006153100993 -0.17813579720589964
Ni 7.57962983831503 9.019536942300023 5.758890834184018 -0.09358892640175495 0.374977912572051 0.39208731855882795
Ni 2.240579759395358 2.3627509574981724 9.68694609197513 1.352308988674155 -1.1563202224472344 -2.5092146513112144
Ni 5.165773684900783 7.514049600438241 1.091567524143404 1.391650723696571 -0.1358663470137273 -2.2026347676975875
Ni 1.7900648228550267 4.402791457219973 8.25513118183021 -1.197450416828641 0.05215945561237469 0.14957418351812304
Ni 2.6259846664283253 6.546056523688366 2.514727834359328 0.2760945705405761 0.93314306873098 -0.2553010308339926
Ni 3.8655276864068027 0.9643051679700759 12.75595647418921 -0.026145548047116263 0.35412703726497075 -0.11588193347200043
P 9.211437275656902 3.4762043762952977 9.104218703701784 -0.32932797594341995 0.3294696437276068 0.513568857605793
Ni 7.4549600820139 6.580870382569675 6.271651217087004 0.8572068224139818 0.2048477592794472 -0.5091360186454199
P 7.816577977417159 7.507780155512581 4.216450646348643 2.1325459813003014 -0.8612334270748717 0.8639968487526217
Ni 3.6155981083997766 9.01905751415865 5.010212160705661 -0.45888869245409364 1.235638240752272 0.23899535169543357
P 5.213716499038179 8.241756980640268 12.19622227518072 -0.6810258349416077 -0.12127045147742342 0.17591307852296803
P 8.82885361884048 0.7321199630570565 13.303639509282508 -0.7534568963188251 -0.4242579897541016 -1.4962930796990102
P 8.473099498397103 9.130616754747592 9.24173621221454 -0.39829807535523015 0.28537676717345045 1.0964245745328665
Ni 7.287796396797529 2.6013125566914654 9.901488341285589 -0.0757009903777406 1.858514721046657 -0.036057664954505644
Ni 5.342922383138461 7.474238625160304 5.398504700313213 -0.5109229353425137 -0.23711433262263681 1.9149866879914572
Ni 7.400886119530087 3.8774396317655557 7.718593929046662 0.7335665851528012 0.045086865036309445 -0.5268568329639507
Ni 3.7645343044719874 8.603752886693457 10.485538766833686 -0.341638932100289 0.36289784147906534 0.3016022278933774
Ni 4.057160646377144 4.255579358502318 7.885474567264183 0.5928660499752241 0.6710566395440378 0.9984146362452806
Ni 7.533613956515079 0.7390394019051557 11.165653684232398 1.4425657653788835 -1.1160631746994005 1.9439946451880326
Ni 1.4866144686811578 0.0711323845447766 12.039043602985656 -0.4050935010105088 -0.16258113730075224 0.3037802093813026
Ni 0.6957249132864083 5.306808536412273 6.105175326858066 -2.015826125308038 -0.6415851124474822 -0.7392461520360817
Ni 5.972789543412401 3.4212821947921306 3.663572269761801 -0.43200395224810756 0.9721770427049902 0.5183554803611589
Ni 7.982745927262985 7.494402266413858 10.722089533764795 0.32439865696260256 0.3744888887507744 -0.9063228632143423
Ni 5.294380283824347 4.9906994353517415 5.922007039514559 0.8677234056745894 -0.1286528599844236 0.3283599556031958
Ni 2.7989660277448305 1.1592203667544396 3.007989321566318 0.0030830098006979162 1.9918637009551696 1.2305687966491647
Ni 4.786933255495859 2.287075069336683 10.549015052751598 -0.5226867607466612 -0.06590534444355747 1.5402797696926054
Ni 0.3859295120568941 8.703520038958988 7.551671801855368 -1.7465519201234048 1.3943722363927922 -1.5217991943899145
Ni 1.7293618443395236 6.767349490020247 7.336468494896132 1.3388826879659201 0.23879943363454362 0.8436859051094115
Ni 6.96078952529269 3.8660163343201264 0.30831654980881446 -0.6073405894423153 0.6016178280259251 -0.3828388033773665
Ni 0.5538925515012866 5.473446694627522 10.27917353326524 0.039872924935537776 -0.09729388605716793 0.4736401397316553
Ni 1.589110673443741 4.239758229836977 12.641607330608348 -0.22075851697243273 0.3620558051937442 -0.532388047194825
Ni 6.32263379003615 5.812955576895883 8.129717389932757 -0.8390628045151033 0.35639372181196044 0.9347032141292483
Ni 8.823303316126882 6.589389451851011 8.368480902131745 -0.8903948791301761 -0.6249341341543624 0.04050104543783993
Ni 2.6644864340894343 8.906474878883314 7.433989710714765 1.1341580845278982 -0.21202936462955094 0.08311425212267622
Ni 7.196990862866911 5.3093900725581324 10.341867060544638 2.1573648401161942 -0.5753961753252348 -0.34975101968446215
Ni 8.899329555622453 0.7712302356668324 3.854958139843897 0.26367845626441033 -1.2395229205186589 0.3405025045030007
Ni 5.518190247898442 6.920204089170994 10.379164725989144 0.47669152496346934 0.7953550792145077 0.8813253127287402
Ni 4.192506898595793 3.4996963552226217 12.910206946813112 -0.1300042318059955 0.12820188848993405 -1.5603454300942288
P 0.9052045858193958 3.260351075413621 5.065281858560021 -0.026897081501160127 -0.0033367776827168336 1.4313809524066574
Ni 3.0242695948747436 5.330272856023748 0.7221607653972075 0.7039739590973488 -0.6066137385786198 -0.014129754533162764
P 3.780788762418955 6.429085276965068 6.738964578119323 0.024738126176628364 -0.2448538673587396 -0.7029051515132024
Ni 3.912806676963835 5.755405760387108 12.02507657045936 -0.6994578163945502 1.428158845924934 -0.17816639333351897
P 3.6169534148763534 3.7410607650885623 2.3467804685272498 -0.6151857965183469 0.7057266801223975 0.5014173098449235
P 2.1320077249180547 2.264680243271349 11.869827596533327 1.578420542428385 0.10467758011574875 1.0548472653117125
P 3.8351485378332026 1.035998114649382 8.979425402456533 -0.04164698611682505 -1.0672196708341364 -0.5106545121724753
Ni 3.034263827668001 6.14017450315556 9.442001644661199 -0.11301001124084409 0.628887976595788 0.6513144239201041
Ni 2.6505645784456906 4.249540407875395 10.643081620020755 0.9876088038790282 0.2312195644047566 0.2697406032980903
Ni 1.5937021198745918 4.843146205071955 3.538535566537082 -0.037629380316999715 -0.49755628422762044 0.5988577487822848
Ni 6.135426320601568 0.47889339460089 9.543760267667823 -2.093011413540789 -0.7264705975379682 -0.3367111557813685
Ni 6.332683341461104 8.775969006938153 3.667188264320395 1.0519542600346334 1.0758842884876696 -0.5079396843444736
Ni 5.398950937275568 0.2949819936382537 7.023109651808135 -1.35567044894722 -0.04179996675492156 -1.1096644702619083
Ni 3.1456571123618504 7.934397443159812 13.22202793193993 0.3102125952702077 -2.6660046358514857 -3.7196447682289744
Ni 3.174321383352844 8.915491815849926 1.5219013018634764 0.8467527169601934 -0.32465808127157636 1.2701288183299737
Ni 1.3189252564636653 8.579799919168657 3.1860166640707837 0.8275856571134392 -0.23482630791940848 0.5197647020038596
Ni 1.1018365061407562 0.7226328177210218 1.1824458942724232 -0.007666258296006152 -0.44657979317975344 0.9146257266530828
Ni 1.2377543842202743 7.503723455854802 1.054170285161845 -1.1267872459851238 0.07093210823418751 -1.9123693049732677
Ni 1.4634728410879148 0.8513989186993132 5.506483903454163 0.07519062640022535 1.1134208519805469 0.008233443653385821
Ni 8.832274154233746 2.743610516960037 0.8519290555864093 -0.022288121974239034 -0.9278807918907761 -0.4606624965250647
Ni 6.871569792137386 8.195741098840317 8.017108939295964 1.8865456590419445 -1.6150605622489218 -0.17328206865802415
Ni 5.265900408272344 1.3472483958925272 4.2475682986553975 -1.127549063851813 0.6158450273689007 0.9967012530985996
Ni 0.4651411827610169 1.999362865880609 7.561617169857292 0.9089898685235442 0.3270106406641529 -0.42504371888019055
Ni 8.56833052286348 3.823301130878096 11.973354571799865 0.0809846073741831 -0.2708171241917207 -0.47583920426550314
Ni 2.773731511919051 4.518591792905682 6.006735821753263 0.563087790271527 0.3902510366810376 -0.038435678268378966
Ni 7.21376162804305 8.18795039154299 12.89107223210912 1.2154134290649647 0.1793591280900395 1.0158621422977665
Ni 1.4255519190596244 8.149937271795205 9.449558169751008 0.03539072079446808 -0.44637770447127645 2.0960170331363326
Ni 7.311998298164965 1.5311644067411383 2.4010268407465185 -1.3090879732019907 1.652903344128308 -0.3724191507059393
Ni 4.583379130394814 7.463331634944046 8.387723488167545 0.0018167414937646134 1.4983515048899356 -0.9749247806534564
Ni 7.827826099195549 4.3737583953509995 2.6494250146327323 0.8600869721752542 0.4034209984040923 -0.6054492859568734
Ni 4.5817841098475505 7.621137251631675 3.1581923143043897 -2.189933518080835 -0.6484425016889478 1.0994031975452163
Ni 2.4864249784287553 7.02946760654451 4.739332494897789 0.9157660109051131 -1.0735420135077383 1.2749468085439075
P 5.982903633241001 2.9737083655036898 5.835711818021636 -0.034610648095333936 -1.0120008595701473 0.865986882599457
Ni 0.038215954730674385 6.636152135178873 2.8285863890869867 -0.8388357761059617 -1.4047859755269485 0.7610267382462829
P 6.403740123875895 3.802298490377137 11.709680157770524 -1.0249260522722479 -0.4886803218942294 0.1694611522500372
Ni 0.4649669290711713 2.7914980124657363 3.0837454217437683 -0.044100332753324055 -0.4052886477404504 -1.0656744378342033
P 5.166861617990824 0.47469194452350316 1.983897620412519 0.46088335428661914 0.7874525365379793 -0.06791800399821207
P 1.792544941509442 7.014430158494877 11.475274831772065 0.23860968622124065 -0.03237790211007328 -0.017156457174628516
P 7.601268643080504 6.497164073040171 1.1491874109189943 0.1830301491837235 -0.5540912431998715 -0.45864006677839725
Ni 5.38473404892944 2.404636381464748 8.290930634332922 0.17795479154334515 1.1241066138291673 -0.9211763832874071
