# total energy = -340890.56063207303 ev
CRYSTAL
PRIMVEC
9.08169872453306 0.00000000000000 0.00000000000000

0.00000000000000 9.08169872453306 0.00000000000000

0.00000000000000 0.00000000000000 13.29198407552623

PRIMCOORD
 96 1
Ni 6.58212446070814 1.6394009686874302 11.27593585198553 -0.4994352464178883 0.8468987556197544 0.8590135366054173
Ni 4.956663899222997 0.28019855208656336 6.000174669647413 -1.1461635936292067 0.776710981750759 -0.48877879514530664
Ni 2.6027693825012275 1.7682430253511714 4.5519198420345175 0.6844734271705761 -0.34327055416644103 1.0706333245013755
Ni 3.2566244296302456 4.279196435985872 4.615003136176879 -0.3141728654695364 -0.2087355243696276 0.8197219380946462
Ni 4.669337121981337 4.5736432648539775 2.4645731763792744 1.307369190738671 0.8833950507735755 0.7605953071358191
Ni 7.067523082302815 5.873188912157709 2.8079049719499656 0.20244866291965136 0.26144211073472395 0.10996145422250739
Ni 5.442235073089231 4.418300811958137 11.734136602903066 -1.8829067767377765 0.3379612261383857 -0.2525597206434296
Ni 5.5043357274535545 7.795076112784638 12.495660634805656 -0.09809709868475362 0.04234992572112061 0.21317736219106512
Ni 1.98144497941038 6.471246003683568 0.6509007706059534 0.4433000939872172 -0.6749408050897924 -2.0524463476342327
Ni 2.8413183570826392 1.5121482092617347 0.5019881602503204 -1.2641450899427134 -0.10701239889651248 -0.15593740673198953
Ni 0.6591832796407975 0.1117711879874295 4.876828504021784 0.021083045922544334 0.0718078259709215 0.169000924784167
Ni 8.510541402558811 2.2504539707712508 1.319785120587782 0.63514655591099 0.079454800993218 -0.07147923898690917
Ni 6.984316560617244 0.9288761228989534 4.790723104174018 -0.5112723482621324 -0.11106265770648616 -0.5193422697544605
Ni 0.5686478272632097 7.4747010346901295 2.1427604654117216 0.252244760506172 0.35738771029411354 2.4595054570115447
Ni 7.512308348191543 3.7871318476899085 4.0493758818358065 0.481121535710365 -0.11961671792408432 -1.7733548992488621
Ni 7.383357311145764 3.69467107522966 12.76817334544903 1.4358492725906562 -0.44868912621327245 -0.044820241638484096
Ni 7.992130806905302 9.274321328369576 6.901410643152126 0.5957045478652838 -1.7827605088334781 -1.2209173896023295
Ni 6.776926893600032 0.5649670148598959 0.29082686384476286 0.6816549838851744 0.23663559321400537 -0.4047044931022063
Ni 1.9609385041903384 6.543636222451925 9.186887276030802 0.12066418535199218 -0.5056079508875034 -0.4880930819321916
Ni 8.890510586230784 4.666394651666326 1.5740499744288403 -0.03678965802452374 0.5349519512672594 -0.4735547791067005
Ni 6.364926559307561 2.211075726061729 6.891269110433694 0.053736570291507454 -0.3088504248153584 0.630829673703191
Ni 3.39954311897382 4.217504458054187 0.44755609210202985 -0.566298841009657 0.8659454878385603 -0.044893518078580746
Ni 5.9027861675793725 5.9667304067398295 5.018879891158311 0.5337923837415195 -0.7093131119220752 -0.36977579954582124
Ni 5.267049108964076 2.8874443037799775 9.310635408004146 0.6117032372863852 -0.44984715107711565 0.23317694524144356
P 0.3425416878009205 5.594507911891017 12.705847464961828 -0.1087257820431934 -0.27793522329374065 -0.5495203359997374
P 4.003212700174606 6.029684740763447 12.658660775879326 0.6122807070564101 0.262807880733999 0.09177141357704194
P 2.5628916443740346 8.488817979739354 1.4729515985222756 -0.1923048896174301 0.2483752502484368 -0.1583125918323854
P 6.612575395789097 7.961171296708171 5.83422388473008 -1.3920518157897317 -0.35509685737740776 0.042942307889480884
P 4.506002774402751 1.0193025948945036 12.509086109702814 1.3007149186469469 -1.0992558733340747 0.09888514180368776
P 3.99131567513552 6.257190369965066 8.350516425914764 0.7692082456158107 -0.4154745871345167 -0.45943967986155715
P 4.7634689269661585 1.2694216533688885 3.822734830331684 -0.16774442666924658 -0.7942734161145547 0.856091734972932
P 0.22399010371106273 5.756888681126775 3.4956456525338195 -0.6683842349181973 0.10237798544829466 0.8134561596905926
Ni 1.349903665503524 0.8757164007109496 2.596961636308483 -0.20413839191724845 0.8141899525328236 -0.17928328054678155
Ni 1.9308871638435194 6.790404134178659 4.6465584057958145 -1.003530617315607 -1.5630813409681532 0.7172192541430293
Ni 6.09970463622249 5.8296784946292695 9.423896902715935 -0.6469718306806922 -0.731251049645747 -0.5435222094347736
Ni 8.60305666521008 2.3052438578405643 10.276325103955338 1.0323735096892284 1.2857197307896955 -0.22779794031771736
Ni 2.352441444961271 5.400313952798836 6.948557372761215 -0.28354922704640845 -0.27862453605128146 0.07329958002509956
Ni 0.5279145931370229 9.241082311848162 9.197799844952149 0.8361823976435148 -1.44581821087791 0.09716944466416168
Ni 1.2958948045054786 0.8735013744460389 11.458155591601349 0.9360075347629685 1.0628685929542923 -0.5731238343512904
Ni 4.183148392616891 6.911899096753377 1.661976254826482 -0.12384129752839318 -0.6572852967915582 -0.20056507274369328
Ni 5.744256038508937 7.892332022054534 7.9854248807306 -0.5109738431851072 0.5563579277468611 0.7658195316492359
Ni 5.382740866195301 3.2500311165169813 4.856638071909651 -1.0289773395234858 -0.7820478205826403 -0.413671729597823
Ni 0.944115212987186 7.628726641303018 7.025849892381555 -0.5772234583419608 -0.20026168257066157 -0.0191482907936767
Ni 5.033286189493808 4.405359391591193 7.219567970472173 0.2440344567812378 1.7630319200562992 -0.027196615019449935
Ni 8.415710306789249 7.066914608503105 9.273843631028312 -0.5159152463507823 0.7818297910345632 0.07651320186639081
Ni 4.816251758666284 0.176957803503113 10.550951125840388 -0.2251803001892122 0.5134624139349157 -1.0300060378983162
Ni 8.087452314394033 7.517276037272749 4.45395737662108 0.9357825632363562 -0.5457768097969052 -0.6674941190037601
Ni 7.319903483704476 6.344447329183028 7.102877226405605 1.0452457376662063 -1.1145570224675192 0.026089240887884103
Ni 2.191323031817447 5.194631645100209 2.5797218480400135 0.2122463657363635 -0.11114956099333761 0.11697182410206952
Ni 2.477124083710584 5.021116713499629 11.337118346631188 -0.16260247745699094 0.9335539310161536 0.4124031472980446
Ni 0.8673703197865837 3.5865806996455443 3.872685988438536 0.706087663006242 -0.3090784816657645 -0.2051226102073887
Ni 3.6894400168918637 2.555508223490999 2.4771077366532785 -0.9990260445770341 -0.5658663814579286 0.12859192483950113
Ni 1.129136656591218 3.3678479911979364 8.366479327373694 -0.7254269867648022 0.7720017492005479 -0.4308528693627999
Ni 3.8612748342693677 2.445401710839191 7.007041694781597 -0.4911017868515284 0.006265264183421468 -0.5417558615629702
Ni 4.175301805110196 7.07391659804901 6.2704796193846795 -0.28235983472399756 -0.8363590324306951 -0.5458619133115438
Ni 0.897477966664122 7.233808981894913 11.1726033782472 -1.21731913072811 -0.023536649669359463 1.952716855552379
P 0.31056684371114107 5.5515060694787515 8.10541137318395 -0.39740744522016075 0.09581447329816403 -1.0454935920109543
P 8.815168815448914 1.6537046438298417 8.040493575943959 -0.4601328492738398 2.8067848752270628 0.2186054751851719
P 1.8618662552198193 3.04567473679981 10.38486774812491 -0.14034058073499703 0.05158095740108536 0.4150220729781304
P 4.0396938830616325 6.194354098021989 3.9261463148469926 -0.30518711703115825 0.3308868357901076 -0.7735053303292678
P 7.011616146317618 3.9791461991413413 10.372678292394024 -0.0671862680385101 -0.3695490282469958 1.1333332746337579
P 6.459857553760657 7.794040799155283 10.174215935005378 0.20919138096012357 -0.12798977247912796 1.242682806303879
P 2.6042406176587325 8.523918744453905 5.813993493144534 -0.8177756130015529 1.419081566214014 0.3967237888895748
P 6.667456099843442 3.8705472484410515 1.6685822823176504 0.5938340703154482 -0.5592745871730238 0.6403985483385487
Ni 5.210924212214804 2.7099152614410187 0.38233950698128605 0.6684911928097067 -0.23003017208234577 0.15955803420371228
Ni 1.6724765146357874 1.276369152723774 7.041681109212191 -0.1414898638480918 -0.4550700900389517 -0.5655164543176776
Ni 7.230612224021816 0.5694234043153761 9.103786102047868 -1.8839820120798265 -0.14460398399704127 0.9015277558185442
Ni 3.0730923845807245 1.4888264075057267 9.323941004481062 -0.9493117080710425 0.5583729012943609 0.6216546920721422
Ni 6.340778322987768 1.645367644603979 2.4063540399551835 -0.861104100585859 2.5951568598009884 0.7297734366589561
Ni 4.059210453144834 6.991827125279323 10.51336106756613 0.46753479816486576 -1.3481137196458848 -1.1168607309000314
Ni 8.125522794519107 6.9297537160105085 0.5712588155828564 1.0720847122359214 1.0886706416190606 -1.0106692852429175
Ni 7.411546903299444 3.927662050327163 8.296617453468606 1.567895731637661 -0.04340973444420266 -0.679180811313069
Ni 2.97301206707636 7.99011466983761 12.304216614020218 -0.07343816248549288 1.6207928367470086 1.0629279854373177
Ni -0.026825521038511227 5.097203183558755 10.601433563309675 0.3955511087377123 -1.9075317743753084 -1.2308356771573061
Ni 8.626314895076565 2.619479707746965 5.906518745664154 0.9936812353253534 -0.14888924163595646 1.0239032674346882
Ni 3.493684005657146 2.825261914129126 11.804744084255262 0.3929573798686071 -0.6033196412083803 -1.0862905714226583
Ni 0.9734490991522586 3.381061862519974 12.41253312389706 -0.8571032069565819 -0.3955639642535187 0.5876706218172136
Ni 3.2255105305585614 8.582568353387044 8.04413533704371 -0.10673394842414521 -0.8465866236959743 -0.019296386335766767
Ni 5.647744828516298 8.02144652967337 3.4448035798038115 0.6976870976473726 0.3366574197252976 1.3954973511361708
Ni 3.2590219980350685 8.31273292746239 3.604559738172168 0.34506441284207023 1.6829837084534567 -0.04385530662205351
Ni 3.354043809473197 4.287306392749156 9.121517210205356 0.10676660143429353 -0.13814383019399434 0.060929745605837
Ni 7.298843024875745 6.186816288264401 11.683201896848326 -0.30923660451018353 -0.3159461553198752 -0.4100235913222745
Ni 0.8427589168431329 8.95914098181885 0.23439591385593583 -1.0743105162426467 -0.2748892373785653 0.2121455784924411
Ni 4.71469112430591 0.1697669146283438 1.4313210925839805 -0.7807843804891844 0.2119550597481898 0.06908477061280359
Ni 6.180468181010721 5.674099917572347 0.5695260275084614 -1.8850202235363536 -0.995650186126266 -1.228008492121156
Ni 7.91023204980418 8.51571797070559 11.694433233387132 0.4553223152590739 0.5787974876973 -0.46781247730628467
Ni 0.012483702762386598 5.154572273002954 5.667542023083245 0.3160860233318492 0.28137355955132837 0.6563103344727987
Ni 7.901767906799273 9.18659212082945 2.490864693545802 1.3183629707460134 -1.6290671609406588 0.13339577398604768
P 8.673221867845173 1.8241317979393623 3.8066911017560745 0.2771574645874517 -0.9560539118908825 -0.9300649440262886
P 1.5466405001765786 3.3953746193608887 1.30679102636952 1.1175446443409334 -1.2256399918889795 0.9845707883836529
P 4.950733550100461 0.9444693992288078 8.220135021354743 0.6055449309944733 0.46309604566722185 0.30992077506140175
P 8.564595672049373 1.47375078799055 12.4794843134319 -0.9676737555179981 0.08714162811451445 0.26467373029814417
P 6.36934934647858 7.616039508494161 1.470771082711677 -0.5103974018563467 1.455969697489615 0.07516311559639959
P 1.9323583990010247 3.3775381635007644 6.248840656361299 0.03439544676073431 -0.5325315147512248 -1.6204238834433644
P 6.96025005958398 4.276980501551111 6.059257475599151 -0.06399218658124464 0.23353175747770102 0.798366869457638
P 2.2713691224239327 8.460237874550039 10.197596767801656 2.173627838942276 0.8278584511588517 -0.3282262582388089
