# total energy = -340868.672228641 ev
CRYSTAL
PRIMVEC
9.26592036833808 0.00000000000000 0.00000000000000

0.00000000000000 9.26592036833808 0.00000000000000

0.00000000000000 0.00000000000000 13.56161107264401

PRIMCOORD
 96 1
Ni 6.8901754995086435 7.160462398611751 5.291551264759533 0.9725243987420801 0.7729042064101592 -1.1650519458932773
Ni 0.3978628714350003 6.622927822308375 10.168265418438299 -0.2648609066082858 0.08623068626447085 -0.5501376578687622
Ni 7.784040312079044 1.802249322463206 9.055982476178551 0.8721130501018529 0.636276298640059 0.8955424847693867
Ni 8.972857903951812 3.447997248771064 6.678442731413499 -1.3351728432145005 0.10257930282582332 -1.0056304372674294
Ni 6.91093116128413 2.1786773401547976 2.4383102839411843 0.6228314859890628 0.060185668350960855 1.090321289848606
Ni 6.2799868410706265 2.6789814481483933 11.692848462763578 -0.5961496058225023 -0.1796442634306261 -0.3442594004422716
Ni 8.203981092135674 8.604102068380802 7.779306353328553 -1.0581462477779582 0.08375522814078479 -0.7400938447483576
Ni 4.995109452043181 9.230811862955289 5.810675383749643 0.23343431266788828 0.14808422923615788 0.06955991047700923
Ni 6.312677008367019 4.786533583040406 5.784217474538157 0.26871884690179526 -1.3154293420389862 0.6662121669675429
Ni 2.695502584284864 6.457429217410171 11.136808916758493 0.40267589270795173 -1.5619325720756907 -0.07378526141226648
Ni 5.076519828989355 5.87625215585566 1.3514456146200597 3.565237939208899 1.7294381432612538 -2.297760956679475
Ni 3.736139576553352 5.56707618868482 5.068950498585607 2.1771960159095087 0.4052855624166568 -0.17354894916616562
Ni 8.084821355335333 1.0839273725430754 6.318327366648578 0.9982202608462872 0.2087105846689631 -0.8448223327066999
Ni 7.582914243106399 4.282115406373454 3.714226601315472 0.46147779333750844 0.21851805767768817 1.2202573874208276
Ni 9.323369142185353 7.557553418874475 5.286126068344556 0.17995048181713524 0.4629003847166479 -0.24477159205757845
Ni 7.313637329330759 6.456456295764445 7.494783294068367 -1.5425999331853497 0.14205602076420695 -0.2075492173710103
Ni 5.075991671524532 6.831336904743311 6.487372965889485 -1.776711731536237 0.2754610507216353 1.9786649428767082
Ni 3.825435251790124 7.774487148110058 12.883435845439523 0.15961485558357671 -0.2903654786372935 -0.07734032575337647
Ni 9.03969298805297 8.907551696722512 9.860118895027842 1.2174615698432452 -0.49603187716329405 1.3388724035532746
Ni 1.8089671147789328 2.6685572876584724 7.093916411228181 2.09150911796365 -0.9021903291032076 -1.7002640928004589
Ni 4.219236870298251 4.121824248759993 7.287331381214416 -0.3078402383832892 -0.4681564909092647 0.12624399343261483
Ni 8.74153420027992 8.549442403731875 0.44851131912740677 -1.2489714675260684 0.5020518581051289 0.7187670582461234
Ni 7.6512411403976675 0.7184257282290076 11.38765776797204 -0.22638023403458432 -0.6045391154377782 0.6044236729058364
Ni 0.219599534544872 6.476266833655513 1.2215476026270344 -0.04543782061782497 -0.3252162677678915 -0.46664519647106084
P 0.7143162925158699 0.5659929977368818 4.262685697812286 -0.78458678495441 -0.06969489339297674 0.9705225378207029
P 5.939232617055653 8.471886649686862 7.686110652180486 0.393500911076903 -0.7176010629624803 0.8709871640275257
P 0.5015374020035587 0.5426901344336797 12.662150839967438 -0.6082990967008427 1.0161861012960887 -0.9792102954026878
P 6.006994293200358 9.022291589475127 12.863404778642092 -0.19861591943712245 0.010142487750640597 0.32158175633909775
P 6.234926669992862 4.557934059976547 8.054701554367744 0.5497463359676146 0.5797958470548272 1.2782283075086567
P 2.8817568509585545 3.6611226847076623 5.347899180111806 -0.9180296101283093 -0.9431135496801305 0.5867879621019442
P 2.348141758999389 7.454970413733217 1.646610583500402 1.7033681856470793 -1.3094988354871642 -1.1355619068539602
P 7.208432068706258 2.5348593216948543 4.9016543051229196 -0.06958716417051887 -0.6008290135760427 0.372840554514074
Ni 6.467834846059221 2.468756245308102 7.2636532481335765 -0.3444650886951745 0.9818541607834381 -1.9260704566094442
Ni 4.873364523441339 2.603195484906559 4.739796280363818 0.36474517910044923 -1.3254389037561882 1.2310832743917377
Ni 6.69670308081571 9.111754051279737 1.6862372188347985 0.11047824595792587 -0.4697842563206748 -0.8536214190555687
Ni 1.3468015352977947 0.28830262820582164 6.629281463950988 -0.2929563792929213 -0.802110138550154 -1.8679766377905054
Ni 0.8627971079422614 8.175191877342622 2.8865482584157443 -1.5240674215988013 -0.4008138997985484 1.3815447456108207
Ni 7.756520528385652 9.100106789292333 4.1130336700428485 0.41691183380167557 0.9003800153673461 -0.5759291650105693
Ni 7.130431550480343 7.383789612947819 9.633897007147729 -0.1373339326981893 0.32771049494465493 -0.6926428503552459
Ni 2.4484360817930826 0.3685770033066053 11.506213366759988 0.7476099506197447 0.3144289473444004 0.47322053569573347
Ni 4.156969884971789 3.8220809885924787 0.571665594227486 0.0728429521036552 0.6494591158789202 -1.0545883552233708
Ni 0.13753313043186538 2.7897369951137496 4.195881191248566 0.5785390918295906 -0.22555490991981153 -0.02690608036222463
Ni 0.7083749843326368 3.4170583404369785 8.855162182580278 -0.0028325843527886698 -1.2389644769120276 0.7359512833348938
Ni 7.805982011670272 7.304019303918726 11.786816941675964 2.1646354056356785 0.518071887682469 1.981147600089246
Ni 4.283551624040955 8.984681218427491 1.1974608424549904 0.07257607159551371 -0.9167052348899308 1.04739260880588
Ni 4.740194714942544 5.134209449620687 9.994825919726885 -0.6862731993834761 -0.13025619991580148 -0.40158163120250845
Ni 4.441331717216399 1.8918785708356554 1.9475556335484 0.45374314369741214 -0.5208173116380902 1.2711426043064689
Ni 5.709817692993472 6.811776546704001 11.498781171978687 -2.481492502805597 1.775814673643264 0.2461327340711632
Ni 0.07541254664828456 1.2710526357377019 2.2439724282795757 -1.4715942914007496 -0.20094148224650554 0.1403863463712679
Ni 3.0800197505166347 3.401890028684089 11.198703412083448 1.886330971927977 -0.7306406697552578 0.3104319103698654
Ni 5.955049543239027 0.31699177105817133 9.645302428611767 -0.1403907172466421 0.6632782811501996 0.1489424634713951
Ni 0.5468875963909546 3.3294119990377227 1.202982404442496 -0.792906360563699 0.9737325601175681 1.1892041176594486
Ni 2.9115097214768983 3.5123583321159453 3.215024211261656 -2.176357836278929 -0.8772323736062893 -0.5316789369429424
Ni 5.234698356743525 7.735653675564938 3.1590006031246243 1.7245828720514815 -0.925055406626839 -0.32274235230610226
Ni 7.802034729564756 1.6642519694175224 13.560105629818061 0.7239578584184434 -0.9704757437431674 0.8958718430843474
Ni 2.0092314531510773 5.187266110034276 6.815577427266638 -1.1420107478030979 -0.9069430132968446 -0.7440150341796348
P 3.984141937009117 5.3199448247499905 12.302740611747657 0.39720381384978687 -0.3270540923075787 0.811027495644442
P 0.316335743891339 4.943275893127076 2.746769068870317 0.4513838994366161 -0.4073820399343694 1.055864393722317
P 9.471809187561826 5.798047787380163 12.236275237871878 -1.4378609037040462 1.610896660679219 1.3930134083720525
P 2.0854807124146864 8.112989753459209 10.152412355165227 -0.38767736241659034 0.6343014343018754 -2.4630237545774487
P 8.365541680848796 3.304885107644993 10.84067751237673 -0.047959301488098044 -0.7585651640796678 -1.4656416733617403
P 6.361879045879446 3.0985330595467344 0.5937750069785976 -1.1168337343168377 0.9080871542036166 -0.1805014692245988
P 0.35369408190312873 0.9480333834362474 8.286306942020875 0.3992025894473706 1.6976076290142181 0.23962347219773567
P 2.7902466207377015 3.8907229271785537 9.127425502512274 0.20406203015335822 2.007421446184111 -0.7361274039014419
Ni 1.0735032120531545 1.7538534200286657 10.363769853482736 -1.6695239834041247 0.3347861708445138 0.6487543765024117
Ni 1.7772869328100083 0.243148871331658 1.1664895033993805 1.2650555175721245 0.6690226398331446 -1.9831250355305914
Ni 1.0584368254250553 4.445909081911529 10.981717793693427 -0.19209560182010144 -1.2490974515809712 -0.27967586013393125
Ni 7.831537420231341 6.86366570114272 3.138984361799889 0.2531446466126221 -0.1985495849755613 -1.1133928269560889
Ni 4.620404895552589 7.6793817407602365 9.432765378622822 -0.19667216544719032 -0.3588938625259948 0.1422874200487227
Ni 1.6193122553054187 5.775809578334998 4.412623115931135 -2.109479329288825 -0.3491185283067858 -1.232737007945077
Ni 3.046653171028452 1.7314206266543557 8.967073189823939 0.5832737783010986 -0.6690396091140091 -0.19244450051908793
Ni 2.720455708017626 1.351175049743344 4.591920529541864 -0.5458598564290147 0.36423867177767594 0.6187408608594569
Ni 7.049549330998992 5.183022318474824 10.616517291793514 1.3810240972206602 -1.2618285259943947 -0.6742918586518839
Ni 3.9177238193275583 1.4049822497122073 13.037441002629551 1.0255994241901885 0.2347987971155827 0.17121721570919543
Ni 7.742436329323715 4.804861573661796 1.5568868227395103 -1.2020087256232845 -0.22063690379290388 -1.5096237353696451
Ni 1.554886310517489 2.5032995966915914 12.875434723143483 -0.9166496990616472 -0.5113607942108807 -2.2792636692062356
Ni 5.989639224224693 4.912689089769539 12.736698876239092 -0.8750582487731058 0.02159469545164023 1.5114893278234742
Ni 5.073137768030403 4.051375455688999 3.024347320764108 2.036574413598983 -0.2901780452168357 -1.1677328351595502
Ni 3.166581979224939 7.914875108628096 4.094345235116519 -1.8565617110853443 -0.4713937668996398 1.0036828266227553
Ni 3.2708606478058906 8.805330062478237 7.715553114364241 1.3879089972659515 1.4760564409371613 1.684266431820622
Ni 2.854042482936018 6.182917058588482 8.725188190039681 -0.18915246003137745 0.36740935619617365 0.22902641340817975
Ni 5.352180961945044 2.8291542206463047 9.245750379881379 -0.6664067994768523 -0.29152787437651084 0.9029076668852063
Ni 8.620706597801194 5.011259951362232 8.599960201946141 -1.2933919026229725 0.8420972204660531 0.5366977303137724
Ni 1.3178177361755963 7.786134410097463 12.656089074818542 -0.5107193039721398 -0.07130183286878042 -0.15636138164328556
Ni 7.997508587071755 4.0372356611044475 12.84958558490461 2.9225595936972377 -0.3414517557901474 -0.2778087250182054
Ni 3.5180846709450755 5.637098749415784 2.610854694738531 -3.9662341302215824 2.3732616581209514 1.303858092261619
Ni 1.9779126420791369 5.645382482285107 13.414196107312517 1.7619230032628366 -1.319270055941315 0.9215131978015354
Ni 0.5140232297903752 6.915767971751453 7.521608133729097 1.0751564091827097 0.05502109343088589 0.7473734091289064
P 8.727097896241435 5.487611655030098 6.152753707794847 0.6077797338622629 0.9529192229166427 -0.4862100059768658
P 4.429860507717268 1.713861707429111 7.03397331874694 -0.7871650872045476 0.02978623012349709 0.7720513714915607
P 4.331651017021559 1.4671102462321364 10.825325735399218 0.8777946738676625 -0.27836356908041093 0.1601938680154983
P 5.961248444010367 5.72238228110399 3.8627398474633883 -0.38113287642985333 1.8692521620688196 -0.020677068733377293
P 2.539622004798694 2.5085904372602537 1.0752313062143726 0.4300686828986077 -0.7115823675722261 1.9432186862539567
P 4.451607622979353 0.36567121065803715 3.7558611616082387 0.5060951749365671 1.3812909777288018 -1.8302539264287512
P 7.1211378322835515 6.873218865111705 0.9552904523213195 0.05083662303589309 0.5805144703884066 -0.029713467904032693
P 2.8308128204042564 7.280956427954802 6.538052917711373 -1.280668027298401 -2.4430820213481987 -1.8762805296705107
