# total energy = -381170.63953332516 ev
CRYSTAL
PRIMVEC
9.21803733727813 0.00000000000000 0.00000000000000

0.00000000000000 9.21803733727813 0.00000000000000

0.00000000000000 0.00000000000000 13.49152941659791

PRIMCOORD
 96 1
Ni 4.353789636359708 1.9965715723879438 4.646954564036756 0.8970738338122485 -0.6994750427857308 -0.47029873406324807
Ni 2.3147229119882904 5.119679484016728 11.985281044409898 0.5944531919566859 0.20114459939624715 -2.7935858600382857
Ni 3.5105788917748404 7.786208789811798 7.086034330113604 -0.6960426200654141 1.0280450575172038 -1.1599740171497377
Ni 5.7145563035615154 6.773948459061006 7.043617531447236 -0.01564336296421177 0.6890607894309423 -1.5994367396687357
Ni 3.70947648273957 6.505095182976411 9.056418380317199 1.6588191953921108 -1.0123577286889338 0.9052962217220408
Ni 3.5753540399283907 7.134945236062478 11.611241666423304 -0.467349421626937 1.1326935841672299 -0.9638723794940368
Ni 0.38083399328529643 6.248483460434994 10.78963431407021 1.7441993607308286 0.4133909651326107 -1.1330347695567324
Ni 5.825154315166225 7.008824049633435 0.7785351512342285 -1.1438442014674108 0.19037553380520117 0.5768545050383163
Ni 2.3138103262949357 1.3059009091528628 9.156754872792188 -1.5788632863927583 -1.310282250620408 -1.021437322392699
Ni 9.011249075711076 0.9786790208428119 13.632111063347741 -0.05074843419746098 1.5243057628618522 -0.513195019206142
Ni 6.411642720761996 2.5417816069247143 9.54919621865397 -0.019134663946921884 2.110059370162011 0.3693950191676348
Ni 0.8076143717216613 7.302907093826223 4.975716786380742 0.43538366735361794 -0.8618882870500512 0.9340437261683785
Ni 7.845342499133704 4.867879576949362 11.116575052242409 -1.4851671449891777 -0.45833179150935904 -1.1124430614483098
Ni 1.5889038725031046 4.840999780163287 0.4019479077360873 1.66783142619305 -2.369301387921623 3.6755812022508567
Ni 9.105835356514206 8.454922088182535 3.0446338382338802 -0.5329863429004563 -0.2800900648532144 1.0428124456343655
Ni 7.648841597868692 7.646297419572069 5.148947674268947 1.3480576695969688 0.9832788090451064 2.7127092389968768
Ni 3.884895732684363 6.743870003329537 4.539670436843773 0.8260445378785645 0.6536538706865581 0.5996398783639479
Ni 8.371535722706938 5.1822883934032244 8.316367613034336 0.3632493112812131 -0.06236570672141518 -0.6583841862826918
Ni 5.169788734815461 -0.3965378416408378 4.394946329326261 -0.5114811218388288 -0.17716006355619165 2.396022348856235
Ni 2.045952598239455 2.8421697886352235 5.511681129498983 -0.6556485325190837 -0.10421015356102699 -0.42422867917806295
Ni 1.2819524482302895 2.142456230802358 11.220878066170435 0.16978973923404952 -0.2576618177566853 -1.2962666530676064
Ni 7.350536692589478 0.7404840150362719 4.407655237360885 0.18749615537487707 0.19458391545959391 1.1371552194830092
Ni 7.158064073627456 9.178252257594934 10.938729614878516 0.3767470886573318 0.4463990446275151 0.13623812853084924
Ni 4.2892633752134355 -0.003155334170052694 8.847731233732848 -0.785886220492124 -0.7868084751960772 0.22175481944743097
P 2.5906556407243624 8.820131508233127 5.244144189141772 0.14091008008522182 -2.0592456299442534 -0.9589433176235355
Ni 3.8877256701374927 2.482988964983154 10.02667488047296 1.0260761067162911 2.0707986248891754 1.527872654277504
P 6.14847697369558 6.339013804823215 4.658436551305869 -1.1046665028266847 0.2387135587889566 0.11788045195926795
Ni 4.582231036892123 5.451353684345872 2.466939440228615 0.2718039135850222 0.2755474397878545 -0.20633977044394142
P 7.568414222368518 6.102801598841326 1.0938058541762594 2.324209637789307 -0.36228154805130514 0.8880189226988319
P 5.639788802967598 3.39451458404731 2.54102204065065 -0.9940460748639396 -0.45851768226791995 0.07264163472612652
P 0.16243933161335541 8.60768340242768 10.76672656955955 0.259950613790862 -0.7646005716404704 0.06833195160717909
Ni 8.691770338738579 1.5019593446271566 2.614064846464499 0.9044184471027779 0.059919816284083896 -0.3240692986476419
Ni 7.479303455725517 8.91524321716273 0.922104238677222 -1.5948977141478016 -1.264352320857513 0.9583997864152397
Ni 9.03859899239979 5.562366507629379 12.901099503447742 -0.5378236163880996 0.6444511211413675 1.0757719312795215
Ni 6.666484580140543 0.619024390073183 8.686318791475449 -0.22073254883050372 -1.7490937127086523 0.3093098809502802
Ni 8.030947680302303 0.5772537758220093 6.943104974459689 1.1908899900023038 -0.2283934078098712 -1.1517295177527582
Ni 1.419550091106061 6.074963126175363 8.166287825841685 0.49473064185336735 -0.47119347796337563 0.049344868981715015
Ni 5.998370454194738 6.438264412503487 11.484003253872702 -0.23127921399809845 0.3387281862113973 -1.4735100203662237
Ni 5.667673365820095 3.160763594026287 11.768026653952784 -0.6075020547208441 -0.8627946009144044 1.2738052387402965
Ni 8.812821604648985 4.1757248097079165 1.6231525683120847 -0.7334691403429884 -0.12708474416635532 0.04495702432666451
Ni 3.1810248400262164 1.1289699010897856 6.4931495284307745 -0.18123834739062336 -0.933703054999508 1.9236549051894163
Ni 8.213169841779374 7.261785429401435 9.14350670957513 1.2602789221190875 3.2187581340765403 0.38000544769362943
Ni 3.30569879459812 2.8506596009946112 12.421813184512926 -0.5154496195682736 -0.14620475282525788 -1.2227680696578231
Ni 7.393492746438282 3.1780474139761816 3.931107597309862 -0.03884499789165568 -0.5361994505211152 -0.04555352026008284
Ni 6.838668298990716 7.884851007029836 3.101122892652519 -0.8946675383636011 -0.766739472360344 -2.225377717821058
Ni 4.266070793350004 3.6554864382347536 0.7209279488902982 1.1998667395796174 0.6257771988809482 1.3087007650659008
Ni 0.7400369402269014 3.6418068708717435 3.613099137287768 0.04354240336732501 -0.15924435961803543 -0.010716872196871865
Ni 5.717902451103814 1.0091354161038522 2.7105694008311323 0.8940545873699506 1.9595449342178057 -0.500396324779577
Ni 5.909665281193227 9.26523365762011 6.619834858742982 -1.7370972024684084 -0.38228164532231584 -0.6260484502644638
Ni 0.5451501172942778 0.44996005504756686 5.289543022876827 -0.48945988037273114 1.341790091420702 -0.7684633970299862
Ni 3.4478040577168243 0.42285810356240205 11.173738866991892 -0.24372952394630926 -0.251832869779734 0.8999223590046371
Ni 0.04356997513342408 3.4558237501735753 9.330296408537626 2.3958958505806995 0.14968088429931642 2.2591522431683413
Ni 2.5654074365415567 3.3773229444704818 7.897563602279382 -0.19002663510621468 1.088891242270299 1.0373707057935038
Ni 0.5388071858235992 6.50588793418478 1.6889370915507087 -0.6957490000843953 0.6955032026221762 0.2964577075779604
Ni 4.820203887999574 2.017542607260482 7.967625294828273 -0.33901126466945486 -0.45276021095885255 -0.49077037165403864
Ni 7.989060918781065 2.994765178208849 7.606497621697048 -1.2386140355511444 -0.42109347598319086 -1.0724775767989658
P 2.001033102444343 4.431368638332139 9.941476248862884 -0.2688510016042853 -0.060980653448430455 -0.7652996545900239
Ni 5.289457295129876 1.356563242189993 0.272771863743635 -1.598679292677421 -0.1756225438657427 -1.0910738517439145
P 1.2061709635326465 2.436087591167121 1.6035494901758471 0.3059185958805441 -0.03885579652493308 -0.19696424276631241
Ni 7.949229779579202 2.563619137304074 11.170500570486078 0.3762266973774876 -1.7413454362218013 -0.08475487304989274
P 8.82765342667532 6.981160719676299 7.0024009212381895 0.49931569012088844 0.079804728133469 -0.47336477458308157
P 5.808995095767737 7.946104864932261 9.528621559385616 0.40097973595245134 -0.06334632546712961 0.7265083927544391
P 3.530406890021359 9.017056439214242 0.15927662301345746 0.3141319849292719 -1.6300323530674057 -0.11074512646606734
Ni 1.916144196887769 1.0944206972646102 13.239008784211078 1.2559689818898239 1.4757612782942455 -1.5079931417447576
Ni 5.605553012410848 4.227189111990722 8.023480148280216 -0.6839923737690994 -0.5977367478039641 -0.7339887602918842
Ni 1.351428795410211 8.863465501611502 1.3550219863523278 0.3080675239027469 -0.21720396685195495 -0.2816795208275213
Ni 3.0093296771532936 6.6006954478832665 1.02627082565311 0.38481855281155664 1.7361392094305135 -1.096869632490085
Ni 4.504098952681295 5.62153708910051 12.902192762672307 -0.050889844871331705 -2.1557856685545325 1.1349641253689615
Ni 5.390274969152272 8.48082477301411 12.606201584757052 -0.04725173389811217 0.6561925779480118 -0.8287601370375147
Ni 2.020861100690862 7.938997758168864 9.466412712818224 -0.7949514160181858 1.6979750396559659 1.4591167277590291
Ni 6.444449715536222 5.996831041964534 9.024618917020584 -1.5537050419595757 -0.2746300701799077 1.8756439245277763
Ni 5.2226910509180975 4.478417500745078 4.607546532747267 -0.3489195249221023 -1.3658856989173251 0.4588686378494355
Ni 7.8916907907113405 7.372475621379211 12.380421431595055 0.13052410886520746 1.4618832347605726 0.4002521137578075
Ni 4.426529168746169 8.437306418889602 2.343883251204021 -0.8257989975266617 -1.2365427548444123 -2.1466572238907027
Ni 7.192908254646443 4.8579240966582224 6.2574249566224065 -0.26307527546277276 0.44887835940594306 -0.968527618877861
Ni 8.991135318308054 1.1496367407312058 9.175697017653542 -0.8322828054787924 -1.7847081194781524 2.240933920388102
Ni 2.464681942892226 4.969213461060928 4.874853943975544 0.22034276959125276 0.6030422191772775 -0.6480380671616774
Ni 6.265112799736119 2.4550030037202855 6.134949503948129 0.10954262151753393 0.01787045252251761 -0.7230016651527612
Ni 8.03176808562259 5.428926199578889 3.918817188168958 0.48564102084727334 0.8647080158870334 -0.5732552177228321
Ni 3.7225476596403433 5.464286590687046 6.895048580569138 -0.4574653297440057 -1.0158433732446892 -0.38382353588813894
Ni 2.2452004746218357 1.0845758334211506 3.598690423173805 -0.2834996047553956 0.2926223929922702 -0.3952533749916354
Ni 1.4184254905546547 7.523706741431458 12.682442127712562 -0.37797119087242 0.609049601713622 -0.26835349314257656
Ni 6.853472466905132 4.372373199569834 -0.04506145356963362 -0.12907092135844866 1.1970380118815707 -0.11764725290253933
Ni 3.5183496972243127 1.4853576594379516 1.5592835532257738 -1.826173071491158 0.2582421157401875 1.528462208232387
Ni 0.4402580707823595 5.023765805841448 6.074237666639333 -0.28360244888184705 -0.6060087580047693 -0.15713091281945843
Ni 1.0571706085085981 8.8484032286525 7.466630498036389 0.3400882997837175 -1.4950923745226896 0.2326843218757412
Ni 2.290442601722679 7.8510208101145755 3.153037956959617 -0.14096304481034433 -0.26989229838460616 0.7990764939301529
Ni 0.07590039737889827 3.3704370706024442 12.725817602258818 0.6965218736946779 -0.6933321631127866 1.4289911120182421
P 2.3180967136425097 5.616236717649209 2.7696487237329284 -0.03308546970005915 -0.7669191924713179 0.8932894270691519
Ni 7.123846719145318 2.364140809989028 1.064053716965444 0.958164530475982 1.4321270865440627 2.5247369153165296
P 5.278202071578504 4.590020278416209 10.345345195573667 0.09955722817004789 0.4874513345831347 -1.2039226548165458
Ni 3.3125293602423183 3.346433301456031 3.1531458079961046 -0.6227679797409791 1.008948703007385 -1.0373961597148005
P 4.120084736525217 3.2860367210231205 6.383274210950904 0.5775823843432761 1.0918726934961258 -0.5266274905619639
P 8.946013025692196 2.864919904707937 5.49729914769321 -0.07833071469110381 -0.2171725993933873 0.4681382360768196
P 7.0537435454285475 1.3868076225929813 12.772741099364387 0.9028012232143291 -1.2954490422623173 -2.9753409991643274
Ni 0.7839654970115525 1.9224677704801036 7.404609699430054 0.990461442836475 0.7852339316201058 -1.8509772750190314
