# total energy = -340870.95329731674 ev
CRYSTAL
PRIMVEC
9.18527982918700 0.00000000000000 0.00000000000000

0.00000000000000 9.18527982918700 0.00000000000000

0.00000000000000 0.00000000000000 13.44358549233052

PRIMCOORD
 96 1
Ni 6.187415633592162 5.230236011837305 0.2224169540820569 1.1395034080002115 3.249318523361901 2.716851029079392
Ni 5.996784339738521 0.5776190663666966 11.447804162936134 1.931426578715035 -1.6619952791272472 0.4818602136486024
Ni 0.5109936404262807 0.9759175922406154 9.293321501763286 -1.847659009279076 -0.07798207310243344 -0.8561009909443127
Ni 1.561754728310061 3.0301870153773254 8.684193252085636 0.18855956364238494 1.7760226758890123 0.04010406710973738
Ni 0.8228274548440044 5.42222672707913 7.370311561879314 -0.33393693547034103 0.46125205047994755 2.266007318416962
Ni 8.423066773975084 1.6107949363607785 3.3716644828091122 -1.307925063242141 -2.0820554287499173 0.10872423938129663
Ni 8.904035572281831 6.430053980823433 0.9840557500104103 -0.06823322124578572 -0.5401658913680311 -0.5455711215440023
Ni 4.911672143020113 8.877370705458224 0.1481337604975348 -0.5226757050030675 2.571783989403003 2.449630106879362
Ni 7.399312245317884 4.185888086205072 11.533856455336048 -0.8451848582524412 -0.15921324926978386 -1.1237893396990646
Ni 0.42315297407853336 8.223002197921012 12.858144148857722 0.6749683158936182 -1.9062297677344335 1.139710124694379
Ni 5.160234995625558 7.047745666718669 12.46350779398021 0.9197525063566869 -1.3716871360904506 -1.8575780681650012
Ni 7.790742937597587 3.2971387978418325 1.8459114580867617 0.6125910392079772 0.9170903861434916 0.2785371185437977
Ni 8.525932720774106 4.288092692869304 4.548717654710973 1.1878110939666642 -0.29432729149851894 -1.6968717792894583
Ni 4.40245860978998 8.088199033779352 8.970178771040628 -0.48235849344125964 0.4484620978041309 0.2727174265382271
Ni 3.970263646424103 0.9967130653679472 10.715330466952084 -1.2126849743902084 0.10076281844237486 0.6396822389978145
Ni 5.897316946409954 6.235886354304586 8.486760258651257 -0.419604035921858 0.36067229458265626 -1.37131458324238
Ni 4.024631316671752 2.1259421602447355 7.1623118227357105 -0.5876688220450008 -0.15658326784610452 -0.03839608327969516
Ni 0.8508985879820076 6.448341872606348 3.1129831261413576 2.1506339491502637 0.29910131584839456 0.9229581577781782
Ni 6.144217263398769 8.980337690333396 6.6487802895421675 0.11825429035891892 0.6021279348931243 0.037555332545954674
Ni 1.0817503843665506 3.1820839849474165 0.70453023823318 2.1904801346129243 0.8108765718888745 2.1043499784820594
Ni 3.1250342130420026 6.960494695324443 10.899010341166695 1.7154600838146066 0.4868023881452261 2.9424136523086872
Ni 4.694366797063215 0.5586183968829516 3.5027668977798365 -0.19074680110169084 -0.7572942677870442 -0.300707741103566
Ni 8.799736721857427 2.471878162418575 12.837602189448727 -2.7856174971208283 0.10214427217093378 -2.555951650356437
Ni 1.5579152814164106 1.3566015073299562 7.065397018621845 -0.7918231548018492 -0.6174193138345561 0.272385240009789
P 1.556638527545077 7.400359367197971 6.034556965242729 2.680800306103422 0.4374719173412143 0.2035850905169397
P 3.0808989443243213 0.9182680215740637 8.878829327866626 -0.6249166506528657 0.09410777501970244 -3.1586105180523667
P 0.3268049017190658 3.3883118836465576 6.793285864577999 -0.13272085940621012 -0.2571519679998023 0.013037292799932387
P 2.8429542749941397 5.479873542161786 3.5428284949727944 0.7495796727516059 -0.3750347339519154 -0.677799100474194
P 5.390675291481786 7.00262757307845 6.223586346325431 -0.07285452206788097 0.9485280358274825 0.981474408846516
P 8.661112481381414 0.2168479190303337 7.209068570265468 -0.5942894126853121 -0.3683313537898108 0.21441097748785007
P 4.646382896172234 1.7830464856350072 1.3448562902416528 -0.005589578272635535 0.29997831913670914 0.5046183332807245
P 2.8942540618387285 4.5107071304638335 13.026511243368015 0.6751241247451921 -0.19915919353510217 0.5683058441373569
Ni 7.817067949074148 4.8739481994980505 6.706292081013971 -1.5969700232957982 -1.3783131260474004 0.6965565835873552
Ni 5.882032641072549 5.124127661321873 3.1909018534113027 1.1790780849690403 0.16064663928220074 -0.08551514825468498
Ni 3.307821278074645 6.647175621187333 7.264133403238542 0.327234840859817 -1.2991442317257174 -0.5786686754289195
Ni 1.0967775018737569 5.6313663594272825 12.435410023531222 -0.374468062815168 0.13247017684798476 0.47090628574025994
Ni 2.7310591982992825 3.7317311191963287 10.968083644133804 -2.3957927493439315 1.34760464121995 0.5743132266737012
Ni 2.9617658672653575 8.498018655918116 4.3657101429667335 -1.375459201538373 -1.4452335420190336 0.7997488374068291
Ni 5.845181299117225 3.792363150165197 7.985314716421028 0.6156784198840494 -0.7148738938393043 0.12195642180085449
Ni 6.241204631221869 3.0414849093466794 0.13978525982375745 -0.6392479796738733 -2.8979402524866607 -0.556435575062332
Ni 1.9806402214632592 5.337814007096718 1.3427896023204295 0.9200952344080864 0.09641893965138233 0.7766775574096624
Ni 7.997476026677472 1.9623982560785946 5.654949564928353 -0.3295177233567228 -0.3813043690107111 0.38656973117470844
Ni 4.936398915837595 4.59317257116047 12.09064973715257 -2.2153280468945398 -1.0573111534711725 -0.6160067497577455
Ni 7.588574932503694 2.113597144395295 10.412675502488487 0.774317284707602 -0.3752573914856827 -0.3003704123688053
Ni 8.075302901150918 6.324937640510188 9.248474373872739 0.6696846988971757 1.2728608725491564 1.2102102875974705
Ni 1.697853016882356 0.9133245040664975 3.293799030161136 -0.6190537641141854 -1.1891025590845778 -1.1709585411856993
Ni 5.0431869770471165 4.9184968057999745 5.952402905526222 -0.2200285807849436 1.2346470804835963 0.6786377943254054
Ni 2.5548671640552545 1.065216880996764 0.7734547396699611 0.7794000985471481 -0.6724398930448097 0.6363002098994589
Ni 3.6847116726685853 2.39316031581909 12.547718437810325 0.8896726562521711 -0.04423068768360124 1.8900359315833903
Ni 2.9256860888006226 7.188914229657698 13.328266050425924 -0.9915153380222859 -1.1056239816439475 0.7598864539942526
Ni 4.421159839157139 4.174020704897425 1.484507444982522 -1.002944920015466 -0.027728062042887726 -0.6060172426452014
Ni 2.320164898441481 5.832064719777194 9.355471859458278 -0.7055184207663333 -1.7340830982324327 -2.609674336690873
Ni 3.337746919173959 7.669405393422652 2.194463427904887 -0.0621762164184284 -0.32360984251272007 0.5089249310758784
Ni 1.3172885104284635 0.9832841865198204 12.032680518754201 1.302860761345356 0.5089727535946783 0.5700390247783795
Ni 4.935856984338251 7.176716178282655 4.084590985170249 -1.5306301624179834 -0.21213143742505403 -0.7307525127427736
Ni 0.3683159360407755 4.864459805619722 10.291750377369832 -0.21550781009645462 -3.0181511523513183 -0.48593926881398253
P 5.2014401601349265 6.719463772031901 1.6565321178493986 0.5901553359122804 0.11054535175043544 -0.7284320921397132
P 0.5800430616663003 2.960332963639976 2.9553306603426504 2.7167461280704117 2.251523265868174 -1.7010464794924383
P 1.3799872293185549 8.282853480119641 1.5869076981032963 -0.5094715476079678 -0.20504856243634365 -0.3943203216544048
P 3.3092174405814268 8.880613109174632 12.237400194534832 -1.186501374016305 0.8740552614298882 -0.7588490138686738
P 3.2042756205815306 1.3359621839566724 5.167969919618723 -0.1943005798912202 0.11445111456274483 -0.8676534716686025
P 5.605316906340218 2.6777937616096192 11.232787788667986 -0.6969530476948256 0.5002513145612804 -0.6005274231752239
P 0.7584882450084441 2.5381132139738707 10.734796830114078 -0.6150096759517989 1.4333578736273702 0.06915419039815832
P 6.494084565262758 3.842404553697752 4.914866783282342 0.11904156214690464 -1.3354227544417776 0.2114974033854809
Ni 5.387019550181134 2.71729046410411 3.333592417188318 0.2884685187248967 0.9764612719026408 -1.471965558697239
Ni 3.213791570298808 8.96926024307564 6.6309140020951824 0.8513920155044176 -0.9595202731729283 1.4953258306897346
Ni 1.029532069556974 2.36596270277579 5.009295132194985 1.4483826291709765 0.8963600955746757 -0.16952722960128222
Ni 8.427788007715122 8.54904288437321 10.969978567325576 -0.5032278806911011 0.6764194465178479 -1.1033652675167578
Ni 6.635997135853428 0.7138027780397355 2.1368845838916397 -0.35227995675390295 0.47895075331129133 -1.8513038051205148
Ni 3.55405106964902 3.4283597029200408 5.163627119400259 -0.47311332069390777 0.26476371890878914 -0.3256705816964907
Ni 5.475813648556539 1.1817872650334107 8.90611971223439 -0.9215515072386387 1.3250336978979695 -0.2766638127804848
Ni 5.579322564931053 1.846801511684835 5.4497871586686 0.2759971257307634 0.05066924422009338 0.40635951220712596
Ni 3.931630360216701 2.9927202596854587 9.296266302419037 1.1643132679550399 -0.8765353475392645 1.0586406709158735
Ni 2.8651367253486035 2.8789697565013253 3.020679332411733 -0.12847956763135293 0.8280705671696577 -1.3668457488377492
Ni 8.581898629680834 8.176451200655412 2.686055002126723 -0.9017714963982341 0.6353818118502477 -0.48195354469335705
Ni 7.10963608099957 7.044595115798758 4.770805775781565 -1.0905681157520895 1.1027399752279332 -1.081405732526531
Ni 7.208194131642799 9.148290528731481 9.012216121886276 1.5838373425685819 -2.5985861971975117 -0.013551513432189567
Ni 4.542497383332074 5.184722951172142 9.991111581789385 -0.07889250073184478 0.7691650510827012 -0.6935823314503796
Ni 7.092174864385146 8.059568517110671 0.4432898626549687 0.08243650932936125 -1.3713811748142577 0.8029061520888882
Ni 1.784562056777238 5.069603841320176 5.43848099794756 1.1417330686616787 -0.2918448913962974 -1.6249449112421692
Ni 1.986316724286886 8.804558993673615 10.213938199343824 0.4217992438009639 -1.09766358914629 0.07839396382887144
Ni 7.663637037802527 7.14535763355796 7.160308513244072 0.39051457475506934 1.7386807449054444 -0.35860769874414367
Ni 0.9458541719465531 7.772023337671128 8.061835444128262 -0.27399397925780555 0.65348572053981 0.8058942881829346
Ni 0.11467362378894627 0.8000929691825827 0.9505625462950823 -0.6203711973740283 0.4796812037194126 1.4278189460870119
Ni 7.541215630628905 2.037689993368674 7.964719482390064 0.8478315518466689 0.9329682337160127 -0.028205773010254648
Ni 0.13907707476275158 8.75439818150561 4.917582870474813 0.06885979908619108 1.8011043014479886 0.6995701736026984
Ni 9.095502726583613 6.516184348100373 5.3331102253880145 0.17324581610345002 -2.150124099393381 0.026504216938115648
Ni 7.651833953452428 6.510112878251801 12.027465116969 0.2605813053963254 0.3591571434897105 -0.1614259406503865
P 7.575283832850316 4.2690516081551 9.244710246272218 -0.5362837827048055 -0.8442564329009008 -0.4783637704595697
P 7.1715724216787216 9.184508086390965 4.05463870675995 -1.4695834316183076 -0.4696292188000493 1.8127470278932392
P 5.9945523167836 7.4256280715147955 10.388543935792319 0.7809718139096421 -0.10955059193733392 0.13784995310265938
P 3.7590113997564774 4.3934111093348465 7.78397063091173 -0.8478927441019074 1.3017001653783515 -0.8341553399111569
P 8.0068174560814 5.947082791553012 2.936468688581619 -1.2045721154750868 -0.27444366520071445 0.5586045576891928
P 7.682613825559181 0.5700007954250847 12.879774563905228 0.642858322732951 0.25400030974469806 -0.6815583104063101
P 0.7596281382129945 6.879673419685136 10.582131971165257 -0.3020300594594153 1.8354308426440005 0.39901721290944187
P 8.192837739550802 4.597636617070313 13.426565994710991 1.7653633964029534 -0.07941751999737937 0.746990828978507
