# total energy = -381173.8355997496 ev
CRYSTAL
PRIMVEC
9.22766271192828 0.00000000000000 0.00000000000000
0.00000000000000 9.22766271192828 0.00000000000000
0.00000000000000 0.00000000000000 13.50561712534810
PRIMCOORD
 96 1
Ni 6.699513674442055 2.0371172312209316 11.024135222518407 2.6931655125369938 -0.352222106932774 -1.1130398144920444
Ni 1.1762132296083894 5.195247814910329 11.233796942427498 0.5193103880752604 1.178357661863248 -0.633844806380431
Ni 1.4100606529584263 3.541170854514906 12.731664340774199 -0.3832290968372497 -0.3307767925748045 1.0012775596153725
Ni 5.650254625657981 6.754150664168814 7.3196661156139395 0.17217418030582607 -0.3085999993674492 -0.6738552853350975
Ni 6.3730758854581175 5.162222010783986 12.965783980168304 -0.437911318871478 -0.9212355186601165 -0.8149715678938545
Ni 3.2032538533674693 1.9898346885153206 13.073504944021249 -0.7577604087901852 -0.1491625499020012 -0.5996216235315028
Ni 0.17280182200948882 2.0009447941783876 0.9107712125874429 -0.23027365555171958 -0.03815851334759234 0.027349595657546445
Ni 8.440552126339757 7.301738612887854 1.5957018445855158 0.13227400167677864 -0.031007761235424015 -0.8436841053371985
Ni 5.603322734127782 4.5758225135443 8.015421718503493 -0.145327235316311 -0.700610956162387 0.9442155244950577
Ni 8.249963984840598 4.207140485585679 11.522465908754512 0.17404182964218412 -0.1397682531712948 -1.1111883631056025
Ni 5.00886748751612 2.9239878751390136 9.74320832426936 -0.13348987636175075 0.2007190818230543 1.4395922845728564
Ni 0.28442885540327767 5.419110907423623 5.492437604799866 -1.542969914930259 -0.5835954233065755 -2.236472799292955
Ni 3.1595793267036023 0.8191488287509323 1.8322935747662805 1.1033531833319 -0.26273820383832813 0.4266807402629813
Ni 7.7606025865650405 0.29893474087033856 8.708570506733732 -0.7303401077957036 -0.6192640803527786 0.015694527917121354
Ni 8.257336887186769 0.4130061820632524 2.4041216701350794 -1.483574346580761 0.6896192330375737 -0.2286615738695933
Ni 2.040226953487089 4.314624298512094 6.579760761441208 0.6053148172615382 -0.6796952890556424 0.8418501374522535
Ni 3.6528532538837606 4.490171350118562 13.142085854568158 0.6164034709755319 -0.36450812338897864 0.330521739141205
Ni 8.087907775824997 6.746814672472687 12.242031649220822 1.2229624450568164 0.03934893411126772 -0.573539067511838
Ni 0.0750873353833131 1.7177109210702655 11.982088396290091 -0.30630194736189187 0.19931268839383093 -0.4483194015786795
Ni 6.618033414471222 8.643892897428913 4.273258533008443 1.0511165946246865 0.4082235619990582 -0.17299513354522464
Ni 3.0774439026944997 6.607292415308589 12.306818144943268 0.40362462977446617 0.1098069309225141 0.34227939389776535
Ni 5.345114281749093 1.553015600576561 2.8610570623474985 -0.2190525900249195 -1.1208415699246503 -0.8300279480063447
Ni 8.912870031957768 3.2491061083838977 6.519215299408748 1.31710467285888 -0.4391163949231728 0.7760568931065279
Ni 5.439817782097978 9.137526703446994 7.525478054723503 1.4460490959417933 -0.05735642643228187 -0.39704311990220653
P 5.200147703703593 3.0647835497296088 12.07533115766351 -1.1744590981397902 0.7742450367087698 0.8399776030198889
Ni 3.3198176862045643 0.39712537488207433 6.538014816242109 -0.9885215455012848 -0.31292922287042235 0.12709837101311014
P 1.728092041394975 8.574491647684788 8.129759839142972 1.0061024918078414 1.0111775923379036 -0.09494492620901714
Ni 4.492358306133634 5.933331628503418 3.5066390958667926 -0.5837769431897624 -0.12595525854760245 -0.3018045737121705
P 6.489971914145603 7.318293039432324 0.012263563476923646 1.208103268556797 1.6705547386614843 -0.3221972784359096
P 3.155943627674326 5.289757534346486 1.892433942414514 -0.6935332233799991 0.018232463847626664 -0.4333661227029569
P 8.606917653747924 6.109109371672657 10.072691241881879 -0.06251405937382137 -1.1177811858317717 1.2320176132805492
Ni 3.4035125851780013 1.060350699122119 4.241790358313931 -0.11539676630546579 -0.7465198028793595 -0.4195677833672839
Ni 7.194734638412003 2.2498148520960934 4.00653571643099 0.6730659566645828 -1.4129487138433987 -0.8313667214224262
Ni 1.4757062440606346 1.965399838186582 5.461779618873807 0.9537625447535445 1.2527823566317264 0.996504049486129
Ni 8.769813580052013 5.0660605397583875 0.2897153832557453 0.28390198240013687 -0.5999432685369798 0.48389627024202464
Ni 6.646879087480149 6.615237432730433 2.910270954816631 0.5619259087529419 -0.8173488098767795 0.5724448060063948
Ni 5.0545075062948 6.334393524212622 1.0175241946429991 -1.8124487799265303 -0.5866712340184219 0.9907352653231518
Ni 2.735549779004885 2.0951869114017296 10.519498351722385 -0.28402513824156245 0.6469584609442536 0.4747531702901759
Ni 4.817522677691073 0.6965482590992371 11.608523089330728 0.9317724136356984 3.5288102925094837 -3.356205709534459
Ni 3.248330984732986 4.077796340171052 8.813562850782219 -0.701391028861521 0.5060440099836575 -0.9252590379972129
Ni 7.276297947345432 2.8946162253669687 13.278735540392628 0.11427216578271933 1.4114860132549434 -1.2593134728820248
Ni 1.1081038526157834 8.758260546588424 2.4094017386237896 0.12147768239222305 0.21602228783902797 -0.40206165616272044
Ni 8.8572918206549 7.3947719063222745 4.140430022229718 -0.5364174800691924 0.05907366623370471 -0.6314505951166416
Ni 3.068622257334124 7.5992569075627765 1.6720358371740454 1.1153754046037565 -0.25518430275047016 -0.016146527852875417
Ni 5.544791670821441 1.3328343454050975 5.2073203657732785 -1.558606335915935 0.03557506889113228 1.9987167193212612
Ni 1.3615231481513395 6.579923168301399 6.839311838715226 0.9035990365252761 2.3711227574010776 2.340895068864788
Ni 5.262702027864665 1.4843156531832604 0.529174148178632 0.17886496206244035 1.4346441965389616 0.0107801213346395
Ni 0.07277949698934874 0.618735994976469 6.973219986007721 2.142521861566091 0.9246589425193688 0.7663532926655189
Ni 4.460439821508594 4.7814056066235935 5.752960354936277 0.897036809926726 -0.7240846138042949 -0.0885297667112927
Ni 5.992730092085779 8.739666806629057 1.7137005789430488 0.18659755482000767 -0.8182363546880552 -0.3854677563597813
Ni 4.4772064842908135 7.194965329974774 9.312487798484023 -0.46635183360035815 -0.11854533923677649 0.27804860894315336
Ni 6.481353277360467 4.362737330843682 4.2037179455604035 0.2955477941691813 2.4241445610137475 -0.1837901672781996
Ni 6.7069142597757585 3.352372879542854 6.293320275610565 -1.028469546649132 -0.5611923730210271 0.1516639761676162
Ni 1.965021504023637 2.2068693107705832 8.033722018795018 -0.5473955763472509 -0.3755096167058049 -0.027849675222416555
Ni 8.906973555613332 3.574916416317096 4.1758420998813675 1.8657662604027478 1.0320762901637839 -1.0409180568251297
Ni 1.8624375798904842 8.399230653616156 4.658182169752417 -0.28171217383766967 0.8071255894868745 0.6382161959752493
P 6.984380843814598 6.371470272181229 5.670117169212592 -0.18057088900995355 -0.8357864477566768 -2.1093173497896642
Ni 5.966514302892445 7.721827948694437 11.344528892557733 -0.7265078785338068 -0.37905362530332143 0.2101095218990188
P 2.0901024693582495 -0.04372712434017914 0.260049371049604 -0.9623857676461814 -0.44355206209702325 -0.7520685006117305
Ni 4.377390858910917 3.369933121301007 3.7738878892073635 0.9796119017164806 0.024320064802603278 1.8153227590402157
P 4.532221808180519 8.283257391179756 3.3216521455117216 -0.11961568948281981 0.5640864067393705 0.11720502315879815
P 8.696831997253677 5.296549093954474 2.483034794395392 -0.15658712450084644 0.4455963462205616 1.2020866300490716
P 7.355498974676084 0.9963384042843316 6.234381349621245 0.011884667252727918 0.15718799130963898 0.3639543077680377
Ni 6.13293519627568 5.147836084929566 10.380754909274202 0.6256938951385224 -0.18933475124551263 0.15324597594275544
Ni 1.4889110291136651 1.8621884330026912 3.08508809831849 -0.6951931275809253 0.40258436143540993 -0.3379044047585213
Ni 7.103851390342611 0.6128192177745101 12.919607834197745 -0.8291560869243526 -1.2223294394585078 0.2973689065383201
Ni 6.826707774491652 7.1008431723640735 9.11120018230353 1.6045347230169333 0.7019438160411975 1.3019194804780094
Ni 2.1387968444280205 6.555829741485562 9.169138829676674 0.9316058061508472 0.26898932695436256 0.4835725683540188
Ni 0.9950188485452797 7.71427972076056 11.350255579911968 -0.7287663355506805 -0.3831169967394176 -0.7342201595764001
Ni 0.7312424246075422 4.6478997854165724 8.6504694525004 -0.7769734913835264 -0.9391879893734794 0.773925448585822
Ni 9.158907197484641 7.444942707393782 8.563208984732768 -0.15105925270408177 0.5855808291677205 0.5546368312906964
Ni 4.708322519537639 2.243244756388366 7.638236399541122 0.17481110370804087 0.3159078458827721 -1.493183587535751
Ni 2.33426641939542 4.131492108321706 4.2868582620169375 -1.157990925281438 0.1954110393465796 -1.0977597484045225
Ni 3.433982326788838 3.163971694058768 1.7985295576390694 -1.18234030066008 -0.465077851983941 -1.2073121401140692
Ni 3.2090211424367525 8.391793157632408 10.97637930072599 -0.4377909912435298 0.4651012490227087 -0.707453175895201
Ni 5.613556211852318 3.9823823098088322 1.7718422348914313 0.9862733728970562 0.2959020921848065 -0.2388269444383693
Ni 3.6229094890360427 0.4912835203765673 8.957262470764979 -0.5408714020754879 -0.3560203976329417 0.6993200052651053
Ni 8.046124919975854 8.966907223621321 10.981795015853608 0.36819997041826913 -0.28509446004634126 -0.08764556433412647
Ni 9.076614903212855 8.924552252696508 13.406498987219146 1.5165042645395626 -0.23423058331693852 -0.0540589866279327
Ni 4.828023757628423 7.6325779968894665 5.475447632584884 -0.8017848940002513 0.9357062014724659 -1.392990268443601
Ni 4.21482712845722 8.765633448934597 13.130984976567603 -1.3500309912732555 -3.246610123291802 3.546728567550802
Ni 9.138467925023102 0.8306603377332213 4.5487457834387035 -1.9203554085025378 -1.6765711200588933 -0.3078106706969344
Ni 0.9219606761481032 0.4824701799124516 9.989834214664425 0.26521160507948516 0.3893267250945553 -1.4171884629563594
Ni 7.96061217148778 5.376995855724091 7.384965669371991 -0.5682369385726342 0.12389709046699307 0.32857952781316957
Ni 8.270597038214866 7.887473718426759 6.420799510431748 -0.7794096116288448 -0.2012127336300212 -0.3110222356556966
Ni 1.6064622218394216 6.4924080170484695 3.1379764459994437 -0.732610391887119 -1.6345914331929976 -0.4664572488299708
Ni 7.433749552768117 2.539415812336704 8.491386396345794 0.05417288649797767 1.2492036381415326 0.2652203468302336
Ni 3.8285202651028687 5.171661909532589 10.69747504686796 -0.02968390021767791 -0.1687096187959933 0.4817905367529315
P 7.129402787835163 2.3368132542484155 1.6940631903537025 0.42088958750250094 -1.478021535083332 2.0964631195348153
Ni 1.1079100717030554 3.9219595756877665 2.0107436489986625 0.015490896546747514 1.09306054315664 -0.21490334374323636
P -0.09634510150956516 2.6563948899867875 9.992049776433282 0.16859520470531608 -0.1455177540605623 -0.435767790165914
Ni 1.2824789910833725 6.996173796503467 0.07087859851211302 -0.7033468670363112 -0.505177033997672 0.9401873771722711
P 3.678404651376312 5.8419408589959305 7.42694138336761 -1.1781018370987002 0.3928522217493105 1.1606448179645172
P 3.4475100800297485 2.67135293091688 5.902441105482086 0.6679180939150561 -0.014605665728316779 -0.2714637566367841
P 5.803166221125325 0.13315609279785998 9.7376311250478 0.2210235977083613 -0.42443436743096585 0.0654237768214486
Ni 2.8351162574969884 6.414923334944837 5.167681095925407 0.005609375766977436 -0.6570374424468104 0.1295342341481124
