# total energy = -340889.6130496445 ev
CRYSTAL
PRIMVEC
9.06820344670093 0.00000000000000 0.00000000000000
0.00000000000000 9.06820344670093 0.00000000000000
0.00000000000000 0.00000000000000 13.27223237229752
PRIMCOORD
 96 1
Ni 6.5239375907319275 1.5522225168268844 11.284941169370544 -0.2651439850663434 1.3841197054268484 0.7842857087742234
Ni 4.853755883740273 0.31694821886246893 6.130789258481192 -1.4215719367360355 -0.33277531106207203 -0.9724122986442478
Ni 2.582352289608066 1.661657595771261 4.8942553870609125 1.0059567102585965 -0.7820941004395434 0.3170180482278153
Ni 3.4106329223310046 4.337013379715881 5.009537643574342 0.3209060704283118 -1.0525795523234582 -0.9115134062763464
Ni 4.623885995095841 4.49867224219031 2.6329982057420023 0.956694630798675 -0.21893663327234553 -0.21262251812885963
Ni 7.054953446948766 5.8785626211104205 2.6245711242982663 0.6072138340564639 0.10465572573887781 0.6650076051364805
Ni 5.3170503967721086 4.237426369692087 12.227813968326199 -0.7685734402452892 -1.3289230056500467 -1.2006802366198484
Ni 5.603832330117809 7.900545280011845 12.469779933520506 0.6411873627884312 -0.6779487386781808 -0.08820297949949325
Ni 2.0744694203308285 6.447429158427179 0.4462154586994005 -0.3722764544804879 0.13469752351660674 -0.4237741081391476
Ni 2.8237206601966043 1.4741362171260206 0.4111940570683777 -0.915160001889998 0.20783409560128077 0.17019031710657787
Ni 0.721937811146811 0.04901091905623737 4.759276085885975 -1.396995275837936 0.14679559233172138 -0.6215567330416972
Ni 8.533814198059707 2.6378134217611824 1.2846615474628298 0.6442976262826388 -1.8988609860741879 1.186127278506338
Ni 6.88029984896495 0.5686761050448131 4.706744890259782 -0.07299850384491299 1.6109791930906963 -0.41926927829025856
Ni 0.6971825226143072 7.381027905739112 2.2929904523876825 -0.42168405837933826 0.6174977324809753 -0.1239639391491865
Ni 7.669913662279633 3.62174976629057 3.702581011168469 0.7143360190579633 1.147033912049302 0.24763760075146388
Ni 7.611133567672619 3.6462973929646187 12.729424361293706 0.20727102400895916 0.1776863683733069 -1.4240828760833475
Ni 8.134523064808233 9.14029564318731 6.725438511778615 -0.27126475325210053 -0.10263278177157809 0.7118466769772064
Ni 6.842186189965678 0.5530053427044272 0.276151278469458 -0.25865092114283195 1.2221170663373855 -0.07406036945052406
Ni 2.0612661161426438 6.311052447104301 9.540041093430423 -0.04928316250584416 1.3301823319784447 -1.7137965800692552
Ni 9.306878540122028 4.845703319098028 1.611129566281862 -0.40797159388925225 0.594625455868492 -0.5770578792983739
Ni 6.430761800530281 1.941293784817312 6.9526722736871225 -0.04342798927664778 0.812357270199459 0.5517224858573789
Ni 3.313167871908883 4.2698996061604175 0.5909630286047729 -0.5152914967238544 0.7777417370081185 -0.41373060786021654
Ni 5.7465567838388525 5.326272759656301 4.700188579182821 0.7010850675853281 0.4914699688242245 0.7940178484603229
Ni 5.2844683418626675 2.8981434057133835 9.332556064942953 0.5909240957575049 -0.9732646193422141 -0.21502649958466194
P -0.08388541579175972 5.447260729765339 12.682985184729068 0.7727630528466046 1.1773749862350045 -0.5062887790046119
P 4.138637361569777 5.998643770876863 12.416107051082987 -0.9787130440512951 0.8367138446669526 0.900219835640398
P 2.3990204209456145 8.473220462767502 1.4790575311252838 1.3419430720587986 -0.17798461634001606 -0.8660349622285731
P 6.479956804116065 7.913920880065123 6.054964568714761 -0.20094842422504103 -1.1569830528422138 -0.7458875686119992
P 4.601396850599482 1.2263294221050574 12.42568942164319 1.0071453312500591 -0.6430858653627246 0.6103855469162262
P 3.957581611967239 6.183889030462191 8.183804216326564 0.43484527835164466 0.715227163413665 0.5499430253594528
P 4.8597408980014 1.086860453413931 3.8113069566049362 -0.06330133116180711 -2.176301786230013 -0.12545595031368073
P -0.007954628045244216 5.910319469508101 3.62037321301051 0.05915928396897554 -2.084929922084235 0.7124398304765149
Ni 1.3222256733344893 1.0381279282028704 2.5376242830299054 0.7789087607330263 0.5462650622872335 -0.5486901267889582
Ni 1.656651947480136 6.781220658333009 4.8059020674411865 0.7696589599999841 -0.3286265790010211 -0.36572965450090567
Ni 6.404609101849839 5.636278361975862 9.279267674330695 -0.5623866504394444 0.1304801430011495 -0.6759728458987326
Ni 8.657196173873196 2.2582456309611514 10.307985527838456 0.7506927033101265 1.8492546359009698 -0.40948828764409473
Ni 2.4222894309366048 5.097890056373725 6.965280703730564 -0.9677429181930366 1.363208152085162 1.2486397952182624
Ni 0.8388196987445786 0.37019942984068105 9.011686754919102 -1.2391238853080273 -0.9883873339162654 1.5107411368035402
Ni 1.7047859712650841 0.9276590740679354 11.524080575556985 -1.2220355623671728 0.5630980746841721 0.0006900840884891341
Ni 4.175091539342099 6.938553987773259 1.808859021523696 -1.8205377275822519 1.4310222835156579 0.9937172307696113
Ni 5.682671290703027 7.805646531159267 8.242494535719661 -1.1076258425653245 -0.17959592669119392 -0.7694758974549005
Ni 5.602635327265584 2.8450853474681446 4.64692739318084 -1.5666801140630051 0.6031514910616322 0.45272575817649124
Ni 0.7648376679142999 7.710702441289561 6.847410381959368 0.7667970650711569 -1.1642980984463884 0.5391724171065102
Ni 4.937373787530967 4.574836082764872 7.105940327531519 1.148775577330757 -0.04763431404851151 -0.0809421841720219
Ni 8.317564750961054 7.556289073352468 8.724581993531439 -0.4389094211186893 -0.05243327809905163 0.7583833870861648
Ni 4.6931580010666805 0.11523963595732789 10.573642174483059 -0.021971104954452484 0.4033027276586731 -1.6560899693864057
Ni 7.949676806173648 7.659185977626733 4.186898340202688 0.09221827130647343 -0.8994461906991672 0.42204401282191834
Ni 7.218362472684404 6.027825249501574 6.928702291571306 0.010042728947982705 -0.0770338502565512 -0.6158098032555911
Ni 2.2106375629749087 5.387446859967767 2.8211588927287727 0.04404094027029835 -0.3250501745036724 -0.7218498109365052
Ni 2.236908148299889 5.188499545005827 11.600076654368168 -0.3809485283331891 -0.3899643586785542 -0.08199839335067814
Ni 1.1603038329607083 3.36968091565941 3.7555901011152084 -0.2791451844414418 0.16764235387374354 0.20408234186833238
Ni 3.500616704926716 2.428845742013568 2.9252265020653287 -0.35810633362769295 0.6774728274830268 -1.4995915479446238
Ni 0.9020323311861979 3.4500342662167616 8.21553839421568 1.1149056640561894 0.06762155580371579 -0.13074316685454904
Ni 3.4391161492919164 2.7359585874402503 7.273235985255518 1.1260999901101123 -0.46589906233365563 0.4974966346342787
Ni 4.0082184598977495 6.992963208328964 5.9790745878836615 0.18607227844415697 -0.3590908090281493 0.5247117615964899
Ni 0.8450604363423181 7.302016649288801 11.432567893863657 0.33830138308662383 -0.46762504388582693 0.013660271095911957
P 0.2536022838304883 5.818113977073032 7.818990392500555 0.3029168329397428 -0.7343705691113352 0.47216741184087074
P 8.480039751743817 1.7789094660688076 8.067075581366694 -0.005860572545835068 -0.1262074837677246 0.10819099258564593
P 1.6579214959597692 3.4626118643685553 10.257404902769187 0.5617438746491229 -0.07178365760120542 0.9530143537336103
P 3.858402671097613 6.113247725774032 3.883667592662655 0.3747138602773869 1.4392734677808567 0.2906940656213058
P 6.892940924540725 3.892381229334651 10.430554085804637 0.08231978124583887 -0.6178368609879489 0.7955877640506039
P 6.6764466359495716 7.626223058173401 10.290081266994257 -0.1983616373344713 0.2458565975916411 0.5533697916528146
P 2.478167700447315 8.632875252284796 5.783601301654205 1.1499899093538324 0.1152890370830079 -0.15881447116946842
P 6.685451361951541 3.930213774027719 1.482839878774248 0.23969057799024523 0.33674869388752326 0.7720984226794122
Ni 5.022433535666387 2.7602523044183727 0.7213021300866518 0.4640193288124396 -1.363694347692961 0.2902675196068485
Ni 1.601308701971557 1.0952666779897877 7.100764197015985 -0.7316431428778433 1.871646887553241 -1.7378664765342653
Ni 6.957406782695811 0.6206341902144845 9.094504843167627 -0.6226070286830826 0.1962358492407201 -0.0370789071301684
Ni 2.9564700901491006 1.6587739070818088 9.484230835445409 0.2828159484248097 0.5453302091777898 -1.2901628541627135
Ni 6.495209522278515 1.8628628933862619 2.528373808715093 -0.4415810544135814 0.3816812927341556 -0.1954714602708698
Ni 4.510578793288583 6.75700855518572 10.433115853272469 -0.577403949783883 -0.28447405285352295 -0.5195255894098602
Ni 7.998255171926467 7.488740026032558 -0.06883310492502366 -0.9504190822026084 -1.8768870529062578 0.16985118859960424
Ni 7.695059790379795 3.8915832274331676 8.142912966617923 -0.9475965251521488 -0.21556643124853198 -0.1597462389551184
Ni 3.3223267573690936 8.320901849821803 12.495023998217668 -1.2148200184553402 -0.21033757874942483 0.16929737297866326
Ni -0.24664606498244124 5.409482594292827 10.00127712428457 0.40852438106892874 -1.012676031260301 0.3490020573335796
Ni 8.535256042404432 2.247889742648715 5.863711624359741 1.3400175729013115 1.5996959068673935 -0.3746218147842129
Ni 3.454015207520754 2.842818296611657 11.499804994985713 0.07499496544965148 0.36554813461771885 0.41384425061994534
Ni 1.1847245047867945 3.2083303721014635 12.748032314723757 -0.9656371847039434 0.20300170720964394 -0.8671888733273582
Ni 2.9905665350306765 8.513900423336318 7.938586393383709 1.6635867919840832 -1.1466374479418315 0.5310215058646016
Ni 5.422431988785085 7.786177098403751 3.9691934464541694 0.5739141914630697 0.02174021989056901 -0.3136121078700599
Ni 3.1733543114875706 8.52749366027182 3.5095633944267592 -0.3768458190187252 0.2988249222585563 1.0349443557401983
Ni 3.57917455120573 4.394442312012428 9.39129897991592 -0.6524626785919344 0.14619986772925145 0.1791254148126786
Ni 6.8403997538907655 5.804711172409476 11.688390073892817 1.5913966429730788 1.1821500390261448 -0.2676271564995133
Ni 0.6774619006238917 -0.34118661979969334 0.19220147843337404 1.1078814102195564 1.9820485146369609 -0.08839092714058325
Ni 4.6287102793184465 0.39342037835351373 1.550886770462242 0.41177476968542637 -0.9151713147439078 0.3598904221113092
Ni 5.691159129109717 5.844701949517919 0.7680260482388643 1.194791124828923 -1.9927167929840843 -2.8275678734106853
Ni 8.373760407591671 9.027187941855422 10.967681911130567 -0.31275670184830007 -1.126399266518086 0.5119855722790732
Ni 0.2607543758725358 4.933120800124195 5.664562088461404 -0.7348883892880184 -0.6852221324111425 0.2307058579931317
Ni 8.136844524885277 9.26969890607563 2.2085391807021435 0.007224028552264978 -1.1409997900400801 0.30322716509131004
P 8.7013311199473 1.6974497946934897 3.7400354117786745 -0.9280813379373565 -0.5807700380426385 -0.7170963554119199
P 1.7448674304077876 3.118292180285196 1.5648889833722528 0.0862031754606451 -0.05624828096976764 1.0322830068579512
P 4.889883606189261 0.9925874105977445 8.159967536801108 -0.7620019576753586 0.3073450439144255 1.5567397150208413
P 8.59682914366664 1.496580020605249 12.511614276385446 0.2739451282977411 0.08165489396833034 0.36092580535435903
P 6.38570189770673 7.734733180368331 1.499563459532387 0.012122237184830735 1.1658716135810954 0.6545588989993308
P 1.761788698000612 3.2165280279985233 6.084004583366026 -0.9427962755500279 -0.03945537778214496 -0.740860547711053
P 6.940639674561228 3.8537778873503776 5.952940932430413 0.24886787361413915 1.7883719414829844 0.36374090620565097
P 2.530745143910979 8.658919132524128 10.07018640211837 0.16853452667070976 -2.01630280783414 1.6639917407319857
