# total energy = -340886.1608944375 ev
CRYSTAL
PRIMVEC
9.11288543817595 0.00000000000000 0.00000000000000
0.00000000000000 9.11288543817595 0.00000000000000
0.00000000000000 0.00000000000000 13.33762898334806
PRIMCOORD
 96 1
Ni 5.202500802856761 2.986183244005511 9.166965981259802 1.2678803886154293 0.25742939003090504 0.6560462821781347
Ni 5.121268540958049 0.4777667190846883 6.010308898336519 -1.562669193131399 -1.1861599315164861 -0.038255443936772826
Ni 2.9547437888169816 1.6297849054311468 5.087051478250254 -0.4264467698753043 -0.180389883347399 0.5139956607305664
Ni 3.447677994630884 2.650409862592011 2.9287565730601317 0.6122010028584102 0.5456012034509894 -0.5396853521871866
Ni 5.340442551607132 2.7698160021094917 0.8554529950630019 0.4655421932148692 1.1347586942263748 -0.08604222440274858
Ni 5.472834553050309 4.580755959625504 2.9622874354851163 -0.9568506967605651 -1.0122535990109018 -0.2534210402024603
Ni 5.402628882681489 4.415612247472884 12.168212825099122 -1.8281643908895742 0.4523624612998016 0.5587053449331152
Ni 5.688463651215816 8.06132235824926 12.935672708465043 -2.395654166883539 0.951006579274962 -0.010858025760426462
Ni 2.3343385397633227 5.357984856313775 11.570326427557458 -1.0893463275298465 1.1199761366005614 1.835312314788265
Ni 1.0611135077123537 7.781338062245666 11.664450688660578 -0.8131885078515028 -0.13522717076783164 0.8005471649384084
Ni 8.191281219247411 9.56661613401939 7.11024967756243 -1.1523195859282735 -1.4470991344728625 -0.23666901755510206
Ni 9.013454867526939 2.7691416485779117 1.464324976149529 -0.8555065518934233 -0.7127630181438886 0.9458900839840032
Ni 1.5398133862785799 1.057267870005235 2.9999528140895313 0.5737763803336247 0.4851669094243322 -1.4809541353490947
Ni 2.2720064025199767 6.821177100787961 0.45839272438010437 -0.5466445571138392 0.33023454691808934 -0.4092466039469339
Ni 7.673158997740438 4.004393286492474 3.905738098687979 0.8656040453387415 0.008429875934908064 0.38001136123090035
Ni 7.744786278256915 4.519353336709471 12.720497432000519 -0.18406116155139912 -0.5538156209409817 0.20806112401042232
Ni 6.774063482432975 0.9390646313819241 9.24909859625203 -1.1917194278821346 -0.5981108433139312 0.20585100373298099
Ni 7.085678604221898 0.7238556372408211 0.6240367339500726 -0.04626468739449452 0.36866919674520376 -0.3858601067021935
Ni 1.836328456691446 6.610368719084696 9.437625972756466 -0.8989815923579227 0.8595125877290231 0.720789745103107
Ni 9.421812382440914 5.2444109635559055 1.260633758070102 -0.595353335173452 -0.8908533068238335 -0.019476877777689038
Ni 6.14399857468371 2.3229838843532047 6.868505783242207 1.2076741514391782 0.673262131835789 1.9468190020107052
Ni 3.688722930628509 4.854497929019201 1.0893707432626707 1.0141508160336146 -1.2735072478839036 -0.7877502702840563
Ni 6.112759602977542 6.07095879690514 4.653339181837424 0.6946935622366874 -0.21928090398564173 1.6198034762505458
Ni 6.402121058224323 1.7217521465217684 11.544251728099212 -0.5998450523962185 1.6394279353496928 0.7512989694355577
P 0.23486731087521803 5.945365008091135 12.324849658579717 0.45633507279430446 -0.1432189307240566 1.5830423574711123
P 4.079410560437975 6.281940323434082 12.79638772038285 1.2091548497497626 -0.30894015631568733 0.5648849913812658
P 2.500019912164095 8.75641681736819 1.5330406897289812 0.21903176408931313 0.05090192905618975 0.2458936214771636
P 6.699119111571969 7.980974046250051 5.802255341938615 0.0015082091144103056 -0.017308409371460512 0.27503810425160374
P 4.654770816159197 1.3164838998132742 12.673161459237825 1.3553994546740205 -0.6911667800303516 0.7105546976386602
P 3.6988200078310864 6.353576716836121 8.456149971969493 2.1404197276214236 1.0109760178500589 0.7038068373918652
P 5.03282798657988 1.126252413708763 3.931852894842695 -1.6250811797097173 1.6461133177896683 -0.62032260352428
P 0.40736876683051065 5.543195142473683 3.805438946328119 -1.387641859647494 1.6583566539333958 0.36867819560626824
Ni 0.7476657846369344 0.4772135669310814 5.082156947414962 -1.1433716327063663 -0.4547810980436232 0.6741265367186131
Ni 1.8909875442916788 6.659724107287907 5.131145997618584 0.10016709383990491 -1.681845223973639 0.893885665892254
Ni 7.7899770777583415 7.302455925968203 9.17828965285901 -0.4250439759905067 2.225906079520702 1.1198910330859229
Ni 8.40003920169925 2.5345304097869827 10.469611964347342 0.9494340925815197 1.0379954838616963 1.3499731414521265
Ni 3.308624473841962 4.44385307982919 5.377505568475906 -1.050867197618042 1.9830178205287652 -1.3522999898130903
Ni 1.4997349155773754 1.3878560195340182 7.407812729814913 -0.42380084761202497 -0.2622365816115612 -0.5802241928414975
Ni 1.3446700548562085 1.3749339478072544 11.529220023364871 -1.2054822859941818 1.3924148555561051 0.038619769254727036
Ni 4.276540500912839 7.250084172644005 1.9369438261803038 -0.3335291585089611 -0.06672346946947863 -0.19855935516757414
Ni 5.765239712074762 8.208395218332647 7.894742455332085 -0.3566066091537149 -0.05304082977606349 0.8691066591753612
Ni 7.155674678222796 0.8405980803085605 4.779005873735925 0.5791697834350541 -0.5526195437503515 1.0763563430280818
Ni 0.5367380241328087 7.74601651780777 7.186861706481261 0.5569040300583183 -0.5820370776805203 0.08130368127649867
Ni 5.0405830521930515 5.0996527764052395 7.213923331445859 0.05179461607378821 -2.077216098379745 0.3154504466303793
Ni -0.020279815529436127 0.4149087683444207 9.4622344089278 1.4754964546686333 -1.0454514259191092 -0.2270358653407122
Ni 4.507488359707887 0.6027362752377045 10.30214446637644 -0.3665737476687557 -0.8704989115371976 0.6996380507261564
Ni 8.54341223024451 7.361407182668087 4.690496972716042 -0.5954134989874261 0.17222148860399372 1.276308978998757
Ni 7.063105986685089 6.280582503485359 7.190022055194126 1.3467201817324677 -0.2362861802943866 -1.1194320911716333
Ni 2.2438020217059185 5.754368039599424 2.6293536292127015 0.5180520901881271 -1.2202224204178338 1.2012993582610858
Ni 3.7000684731530655 4.574212907792066 9.94701713860659 0.23063001044987377 0.4806060295265272 -1.4062232221941071
Ni 1.19109059448163 3.5847084548250656 3.7590908103603327 0.24637698887148535 -0.993526969135676 0.47620867178977994
Ni 0.6600745511931337 0.49127292677596957 0.47270997888639404 0.8414423604908736 0.16934133884272123 0.3742963131239941
Ni 2.2989623180120553 5.222494473779554 7.465591158142982 -1.534500444006667 -0.3690983138628224 -1.0857804645554592
Ni 4.908118147665379 3.0278838083367328 5.056402110239941 2.000422646268774 -0.4011183184128447 -1.427704789106651
Ni 4.236662513693997 6.9815000964783405 6.274968054690677 -1.155461216881049 1.3031682652834462 -0.8239048658277422
Ni 1.2086511249593972 7.712490211825567 3.167247167234758 -1.4686658049000447 1.1702630577805715 -1.8212010721978635
P 9.142411311113282 5.9387217145165145 8.408348330754585 0.6260577062358443 -1.4671398551738217 -1.8089333105741041
P 8.305246966084443 2.1580588814540698 8.371389200781216 0.3106769365011359 -0.4941251470588845 -1.6417822945144822
P 1.7474869353485538 3.5803616084120424 10.616859791833516 -0.9958185933833301 -0.9453691784835265 -0.15923150410222897
P 4.048180701617369 6.131778195145213 3.9496184652456052 -0.24602988994471173 0.2494949656751768 0.1337816965705567
P 6.700795882515358 3.9567875723171464 10.650017025950465 -0.12803373834318596 -0.15832313335534667 -0.6760366092571325
P 5.8363840096564585 7.854514533307666 10.489725014070995 1.722546301237427 1.4973171500881506 -1.176906017018386
P 2.3803677247364434 8.55694486530392 6.043960050850921 0.23432108614821578 0.8852488161528625 1.3688121285355006
P 7.170720052285482 4.189694701508001 1.5555814121663227 -0.17319285137832752 -0.44424137485456394 0.371790773093321
Ni 2.9457220321107074 2.0729900947338007 0.35897023161129826 -1.541248818474094 0.4722023788438642 1.5383380725852023
Ni 0.8256246980418146 3.6000636669968546 8.652026890679597 -0.14048224851918387 0.5554307879469015 -0.5885458253333155
Ni 7.917165621545678 0.0038857344035910686 11.569992895945893 0.88760728908271 0.07241023544161077 -0.08491659543873761
Ni 2.8611362283252193 2.193134377981795 9.245964674907293 -0.8286606353451728 -1.0960756758338799 0.39505128628315833
Ni 6.680556163682394 1.9076732377555043 2.7671714427194307 -0.23690504482530814 1.6250274436536467 -1.1629323284471134
Ni 3.92637787319711 7.110839281258285 10.829314871957816 -1.1944044309134654 0.08201690529343938 -0.46956519833133326
Ni 7.194367990318592 6.937694455582322 11.770911062948834 1.8731535540057547 -2.245844984536474 0.077099413387164
Ni 7.441892187950724 4.158473955572957 8.532854952321056 -0.24630088421791133 0.12456917683335321 -1.0873166986943275
Ni 2.981963977990355 9.10282493623242 12.44147363413515 0.5743589923099721 -1.2603581120964553 0.3221054900530517
Ni 8.515162285002642 5.259310531449601 10.419288787697457 0.513657046444225 -0.17900431585378204 0.18838652839963038
Ni 8.390762284197244 2.4651813506609788 5.997865253101755 0.8953378249577484 1.1475681872862173 -0.4464934041135342
Ni 3.479518416784137 2.6616460504898245 11.43993834964934 1.5207573833889616 0.3632925058143227 0.6619526203602405
Ni 0.966512642694345 3.6243950714471085 12.855580468550125 0.4258268769031182 -0.4441529289058157 -1.387795354506223
Ni 2.9878873536055854 8.701174505091997 8.373376721122264 0.5036937645839261 -0.8118152816530599 -0.975193718044127
Ni 5.629685539341607 8.277243068752746 3.7446058787597036 1.3687951592546361 -1.1401991485156557 -0.7428122721207853
Ni 3.2517053906223805 8.32647087655809 4.05390541632735 0.8520743862834228 0.9043287156024491 -0.252102835611669
Ni 3.6613478224005833 3.1077491374011608 7.280811911470151 0.19830712994745203 -1.0057520504469581 -0.2213516704717414
Ni 5.812016153663958 5.857252517593193 9.461527249008197 -0.3746017601795549 -0.046310453030765406 0.3902551504460956
Ni 8.210418278927387 9.100674295239813 2.7582882018736976 0.53924415088471 -1.2135486079420843 -0.45054957646077887
Ni 4.65329452869817 0.5581715309743804 1.5997688829673844 -0.14995573522725786 -0.24473971037837855 0.3270738898019206
Ni 5.951461528532041 5.865536130568954 0.9185487921164349 0.07337208513424784 0.1886446671570235 -1.6326877884123818
Ni 9.085319083068024 7.478097682288123 0.7803236326250895 -1.4639851115949238 0.13761135472929203 -0.2673492202477783
Ni 9.132113750428344 4.769237771702133 6.089214640551281 0.15793052590261833 1.0553769125629373 0.09905869126707456
Ni 7.648754690205689 6.221813504496713 2.662643911458852 0.04247668110697201 0.31238414900022976 -0.10288192166790669
P 8.759934391195081 1.9583317685940662 3.603373467032934 -0.6250863434615105 -0.32824708417441534 0.9444029579155155
P 1.9179343468981958 3.6663963610018717 1.582269408822882 0.8383732346472466 0.10056072973389778 0.21028435691398625
P 4.659710000133743 1.0962163428967644 8.180608207677324 0.21352009024246454 0.5368779646453786 -0.8134872700388441
P 8.502613841583916 1.869052828744203 12.793786902843486 -0.12130953224547493 0.5035983766566424 -1.6774928605422144
P 6.628002152646959 7.918259167813106 1.5432835731005485 0.021919940001542893 -0.29162994717201385 1.03321220354044
P 1.6838243168131708 3.2652835901096005 6.341135805467024 -0.4569331113896195 0.1111657589432537 -0.568644458423698
P 6.720926246721579 4.3015006944668635 5.990943105228941 0.6991587970968927 -0.1458712807452391 -0.1109454154023315
P 1.9784074554869158 8.945509192777465 10.222239040615538 1.0648542559257532 0.14729798588943663 -0.6862384894907988
