# total energy = -340863.2684853644 ev
CRYSTAL
PRIMVEC
9.32944439761162 0.00000000000000 0.00000000000000

0.00000000000000 9.32944439761162 0.00000000000000

0.00000000000000 0.00000000000000 13.65458491059934

PRIMCOORD
 96 1
Ni 5.563511576914487 8.476229441910306 12.270173977080006 -0.7031884870815761 1.5540004617128074 -1.2384440856321832
Ni 7.483809787998221 8.50513206083223 4.491266397411165 0.7180594906561375 0.47869621409832397 -0.8167803389678192
Ni 2.7420170198007123 6.067721402490784 7.236097177659538 -0.8812682342385598 -0.3845077064393571 1.5549147459969608
Ni 4.671588698672823 8.90039263406178 8.125242680286917 -1.3213421079789953 0.39935197054104127 -0.9408538071116765
Ni -0.17660265175740725 3.5836821807627115 9.548078120024286 2.121828851993113 3.556337551395475 -0.2355423601498266
Ni 4.131273923055259 7.810741510038562 5.553701666069942 -1.0705397363463047 -1.532332746931387 0.6177314457583362
Ni 2.023771079535334 8.582099977586868 4.123616315046507 0.9091904145701244 0.7726195852902048 -0.09391879893734793
Ni 7.277759677762712 4.8771070305743915 0.12202073697279948 0.4974459839020014 -0.2633215871456239 0.5959665432774188
Ni 4.588855185244928 -0.07594261080902243 3.1272279154632194 -1.7460533832204317 0.544368616595469 -0.5726049857333428
Ni 1.9351506866562653 0.6934464110148113 7.9152079643246305 -0.43662139641546094 -2.1372405585624934 -1.4726913811196702
Ni 5.883418227280131 0.7213657064911667 9.863580339662674 0.5162168367516012 -1.797808918526168 0.48112667791668756
Ni 7.768786998323942 5.36584863724412 3.8471932723416744 -0.2528713383465774 0.9420002620112938 1.3568611268212116
Ni 6.193771526523745 5.8687430111522465 2.104321502960734 -2.1164423908702195 -0.6961896871662397 0.5017276419964908
Ni 6.274919034394272 7.5824033569998 0.4732090145964197 0.6830598346525011 -0.7399138675270676 0.8296044873156809
Ni 0.9654109122145477 2.068748331253408 1.6575707928389996 0.38962214484778707 0.10499099759110951 -0.688062430073415
Ni 0.7842638880630575 5.142930891433776 3.6408586140502845 0.4587598801857132 0.5736298274534315 -0.41406048039580945
Ni 8.968329648583873 4.647238848644992 11.91331153133879 -0.06408860294979285 2.762614351357436 0.5710073022289198
Ni 3.9753229295436787 4.006296685134636 8.288879270140615 1.3754789990327152 0.5315737788236459 -0.5757314471774666
Ni 3.0329090979109714 1.9210538960845978 4.473474213890829 -0.7237431713044762 -0.957214507857887 -2.3085845296575402
Ni 5.450933170674703 0.20893104268324655 5.112263141620946 0.9295473809599217 1.9782887904842121 1.0818261078934013
Ni 2.5390549556798434 7.7031170388044385 8.994015475057676 -1.0361507173434736 0.485998404186692 0.6143483882187162
Ni 0.77698972022141 4.574114663005858 1.1732186897853991 0.7077987321600777 -0.7289617393909381 -0.8819511192381971
Ni 3.4439364322696524 4.414562503934605 11.038734889172508 -0.11730581040272055 -0.46865091404718 -1.8170628816597738
Ni 1.0089514294865354 7.330685616156538 0.6699296803768212 -0.29454429260533144 -0.1490586773342852 -1.5759409705396406
P 7.648735707075616 8.71982123663317 1.6203080587408538 0.3833666508563785 0.9729152064225954 0.09081702008357262
P 7.9132347868223745 5.089473174706009 6.036623565288574 -0.39561512920642833 -0.31066099566153593 1.184975681400398
P 5.259567606011533 2.1693104130350145 8.117964780667487 -0.37041600423298143 -0.6751755468084178 0.6904165321278884
P 3.0709359135099907 2.012631722855935 11.305040149365775 0.2678513566951774 1.1075070575992734 2.8755775685207445
P 0.029497837478159615 1.9922095689437043 8.099872189035697 -0.3633565262830387 -1.548499072278604 -1.0115894830643417
P 1.404762439938936 3.2934058459864892 4.439747339241169 -0.6147211981771026 -0.7717423248915741 -0.1906069330897169
P 4.6077846280443415 6.290937690523692 11.9110444763362 -0.8235621377763429 -0.11551066617551073 -0.2784103631579463
P 2.6454665991348025 6.128241508671068 1.263366312721769 0.1277354903764768 -0.6031607470330128 0.53254179916387
Ni 6.058615864702599 0.8198249314925915 0.8306470870605166 -0.4020274604906753 -3.1415047116100157 -0.39196287716582173
Ni 1.6653058352367294 6.409365658436829 11.417008409938196 -0.33612828669470496 0.4088604242521087 -0.7375417677504653
Ni 8.662295882122974 7.194718292667798 6.185486046903163 -0.30559592243380274 0.3344629831771401 0.1771783183886368
Ni 3.537352159598646 1.1438178785295727 9.600811871862337 1.2140155202761738 0.26575925005283907 -2.7332256137826736
Ni 2.4677686705983657 2.710791369209467 13.49507219148003 0.1640248117258143 -1.508259508032267 -0.059401224776452544
Ni 6.348826893367636 2.8957942527542526 1.0088851904309042 0.6266089507536241 3.3886018664769764 1.9514325895233167
Ni 5.7085098026357715 1.8105746148472117 3.3650083992349953 0.50446123887757 1.8997552157536832 -0.05060908040611929
Ni 2.0725547445910917 2.857272976599113 8.471987343516568 -1.1789065923881825 -0.9706734615762702 1.503792473399849
Ni 7.8569036012024345 1.939535525550166 9.76896764461009 -1.5639791701920742 -1.7782253399672856 0.35471196323416326
Ni 6.790361511094519 6.49992657576256 11.711414889774696 0.523902378321317 -0.6789051890541791 -1.889533538025675
Ni 8.599256825939811 8.73980490665601 12.968264585544572 -0.014523133316839505 0.015284694073212386 -0.20054218992555783
Ni 4.043465191843786 7.864451121766617 1.5172699424008622 -0.3817129173030394 -1.7432891902117331 -0.4366298810558932
Ni 4.466574156771831 7.687732784897966 10.18559637741962 1.1205289237802378 1.8375334908093 0.41507580903420127
Ni 1.5789431679157973 0.34585183539529857 -0.3488269952320324 -1.377678577787195 -0.6105603819311937 0.9753389853727396
Ni 1.566124511234479 6.704875811552366 5.442690606498615 -0.31918394553088253 -0.2545189012523294 -1.7710697027591114
Ni 3.7411072264981993 0.2936974420579099 -0.19512159900079606 1.8099581522941923 1.9316507789106991 0.5007169413437893
Ni 3.8963491822311918 2.032997900101435 1.5645562316215758 0.25914200184663755 -1.0300363769156196 1.049712000967676
Ni 9.106620003741934 2.648703916360725 5.927933671497678 -0.3786720735941866 1.2637450262908172 0.1020231732120372
Ni 4.586401541353235 2.5100870306467344 5.857216482527962 1.4692859549825472 0.43643447721563544 1.726665208501807
Ni 0.32712017681833333 1.3808510738004949 11.606847677488512 -1.0482230751269754 -1.6191077357351018 -0.6635451616583411
Ni 4.848838813875415 4.173424353103436 3.8588812003550332 -0.877729882067998 0.5996247088552964 -0.2812195504719673
Ni 2.3912019199552965 3.7377579559388154 6.306807075541831 -0.20959735814929062 0.24024413650087012 -0.35247484637352844
Ni 6.318142350554786 6.656903808164203 5.452972587232589 -0.6791178192856175 -2.2031474456679474 -0.37460793082714194
Ni 7.666582934318237 2.785781443739623 12.458811612184505 -2.2718390946073908 -0.3398098493113503 -0.9959918857364009
P 0.0034714862817455854 7.457836614635201 3.7047214601788334 0.35201307624576145 -1.591315653223498 1.7038091298392397
P 4.428575329506177 4.170168376988603 1.2832949390223243 0.996799983459993 -0.028425602330544596 -0.10851495158396794
P 3.4069638438940606 0.43991036144724915 6.038275809901574 -0.693556877529083 0.41761811584008074 0.6609349777290037
P 7.011618615791853 0.790840213459463 12.353016645008028 -0.8697954577122696 -0.3906169046608886 -0.9686787997437445
P 1.7150504330713638 4.879262132243522 8.774190440084201 0.4964303981532934 0.8314194290372328 2.1264874338110475
P 5.399873121171898 7.33136666560176 3.5979151812234234 0.08265556731870281 -0.3566161222354116 -0.5847110249682576
P 0.4433184075067 8.277428310016417 10.619362366748733 0.9030565337582447 -0.030395067352089584 0.2369585237710629
P 2.485447967840795 0.07949526325752744 2.00259510651113 1.3360102515141312 1.1366695380958425 -0.5674735780440485
Ni 9.359391971808623 6.349629225590775 9.403816920414956 0.4664351373427838 0.45088870496775246 0.37775213288307846
Ni 6.9577970507303375 5.640992613114157 8.512704770896441 1.5664975657385538 0.890848164617511 0.8686387184000073
Ni 8.577565867581686 6.168768615384057 1.884045855820076 0.2998502781992772 2.778641837133944 -1.2052118059416146
Ni 0.4752167110431589 8.953924986345186 2.3150941779794185 -1.7812373873207326 0.18078840433739832 -1.6247885881699629
Ni 0.41533847064138646 5.285708709374744 7.203886337733833 -0.9779784798781157 -0.6647934322431455 -0.9934336380909213
Ni 3.3100402454499465 7.519056429149619 12.939794852845365 -1.0899695629361421 -1.50467436178417 0.2939930480875517
Ni 2.7419143959117065 -0.28603237049359337 11.156437959251484 -1.8238320820628076 -0.4454073701382071 0.6946917624644745
Ni 4.961650456226578 2.5744228796091573 13.037247430790083 -2.09459264198498 -2.4862130482097182 -1.2838975899792922
Ni 6.7804256527498294 1.582040543474893 6.601541018878702 0.8254899509266752 -1.3133732308409056 -0.43474757643151574
Ni 7.900686684030255 1.6618352818994295 2.2038769376856338 0.5342608387375057 -0.11835430627189293 -0.14612402018599352
Ni 1.4409140372024785 3.4139889155687566 11.542220749859089 0.23463193252041528 0.018660552523980762 -1.7933282570469955
Ni 6.729029743246641 3.6656040325230124 4.972795410572649 0.3359112855878924 -2.0343702068588123 0.8633502163075583
Ni 5.275520956029768 2.9573126094912334 10.300499681217616 0.49015202134374936 0.40942298162379814 -0.11508257749915664
Ni 5.578242769709102 4.452076200088594 12.270118933357722 0.7277420080512241 1.0512880872055441 -0.9614758542374022
Ni 6.431691019017903 8.333181070080139 6.855721733058113 1.5420345476001829 0.3116755529689793 1.2819852034479278
Ni 4.883404405581589 6.370891029503966 7.623122650268563 1.3764575608959004 0.688876184223962 -0.4117814545536457
Ni 3.3513603549416184 6.345561587808348 3.7890652357196806 0.1347862265756711 -0.6838687037070416 -0.75493090976119
Ni -0.06033071845784514 0.3372165016076509 6.186755784293505 -0.23588663086312278 -0.8141665554940558 0.5977848274330801
Ni 2.6864228602927254 4.867385749452169 13.046846496189943 0.47439347295791207 2.3447555802614586 2.277934408871851
Ni 0.3829018581598679 1.3118411731660629 3.812032462079264 0.7855121249821568 0.8867117738516341 1.9852734493321615
Ni 8.316611976727868 8.854780980120758 8.497207630712062 0.5922597838497928 0.06047825989071519 0.3701663501160206
Ni 6.788598246092503 3.6412168647173604 7.558563827583662 0.3182748034530518 0.1533735026595552 0.036904072115200956
Ni 4.927103523409314 5.592190289169488 9.830058712791027 1.7120202048951225 -1.5260818809256684 -0.07737863519047965
Ni 2.754733052593024 3.8289626049319483 2.6510922541412327 -1.065160217201946 0.7970304100344016 0.35073472375397013
P 6.593771457536489 7.677946197664558 9.208324009524846 -0.7330783326624729 1.0222760162439102 -0.4201871621188376
P 7.640992268177877 1.4611496022256072 4.368511433159748 -0.32714922312454625 0.32593206288799353 1.4801246974692637
P 7.339809812833633 4.283231914340054 10.613121901352713 -1.5509799297189288 -0.1349878010635159 -1.0679881735690446
P 0.20734783595921477 2.8525522777048287 13.24098757057851 1.9599470547522309 0.1346098488988069 1.9664437182201682
P 1.2522073642090144 7.731637150503703 7.271285043310867 -1.6229188819510758 1.5019150538714778 0.24594350087849257
P 3.994327007898733 5.210541375399942 5.816989783926428 1.1546256083536308 -0.5519561991347398 -1.6930151245475296
P 8.064856918106786 4.124640688047678 2.1549803863519688 -0.3357418498895637 -1.9115365246593274 -0.40769211497562047
P 8.156901217100879 6.660374361501503 13.268624183887873 2.402485587983075 0.5644113941789569 0.9156328277613586
