# total energy = -381172.2603889291 ev
CRYSTAL
PRIMVEC
9.18938829168960 0.00000000000000 0.00000000000000
0.00000000000000 9.18938829168960 0.00000000000000
0.00000000000000 0.00000000000000 13.44959864248742
PRIMCOORD
 96 1
Ni 9.079538235402845 2.247191364735936 4.182784360311775 1.675660435319166 -0.8803804323169676 -0.59448147409146
Ni 8.630296615362747 5.483877670103895 11.244079323893509 0.36668250533247815 -0.6831984171128943 -0.05700187130634054
Ni 4.8533018530737735 6.942141680662186 2.6596451070681257 0.5362873822492312 -1.8382150902573566 0.5417337500757832
Ni 4.973333641503494 8.444698542256402 7.169469684440572 0.39973429358112444 -0.14586999519365845 -0.39078325503542377
Ni 3.867767538748075 7.1713801582435535 11.611993020647684 -0.23824818911676385 -0.03003845534361924 0.7829500206819354
Ni 0.5701179132437199 7.165535707359974 7.395611338204697 -0.39065444276704336 0.23511452858378862 0.7399976854901256
Ni 4.012160395247554 4.2718249370986205 2.4631998801520703 -0.06313549500790418 -0.24300755817862021 0.05066384490345468
Ni 6.250189939966308 4.961415005031794 1.3841249456469344 -1.0249093401016995 0.9004586911240815 -0.15021155999180583
Ni 0.7919111485202514 1.514466308677735 13.477708070612033 -0.4887068042567906 -0.7965413862131249 -2.813267911848245
Ni 0.47000596157552904 6.601141864014652 -0.0019858267860712506 -0.5647785477103886 -1.6537824042991518 0.13593191014434008
Ni 4.596881165250856 7.6230202085990815 9.437838913180116 -0.49171602339675957 -0.6924955261441041 -0.9359208885864334
Ni 0.19374170891299117 9.474902472533476 8.136227321894546 0.4972549509371178 -1.1564611189004728 -0.6674820348189021
Ni 4.960771747859073 8.69468665835211 4.828540127679291 0.03536115310811329 0.3587833050900595 -1.0479199420642598
Ni 4.942742168246524 1.1394657557578107 13.004295602837539 1.888720040985444 0.18826902898515963 -1.0646249135237664
Ni 3.8551045618336546 2.0051888269701497 7.106014202229291 -0.5030702720673143 0.8302385213552541 -1.1154787629508403
Ni 6.983696094019956 3.0811559103922255 2.6695439160174823 0.33110357978660393 -0.8254750385283397 -1.5369813014469917
Ni 1.8001460084712706 4.274223367414051 11.029639437039995 0.010598601451452715 0.11556723044505902 -1.1729578310039155
Ni 2.624066552844932 5.058556027500832 13.252615844978262 1.757976874130895 -0.18970396165947329 -0.20840256651024108
Ni 7.07283315938271 0.8969201251504846 4.558970344307141 -0.08065782016238367 -1.0657752250781258 0.1358969431413466
Ni 2.094629142142901 6.506766847388314 3.579502864059019 0.9893599822421799 2.1903770333761567 0.9550673796078971
Ni 3.0268925731791265 0.28733103284979195 8.344157446160125 -2.890509250129912 -1.2127839618619178 -0.1237579937859675
Ni 1.2396668444913643 3.1313483486408193 6.036287632321425 -0.6800477872990547 -0.7489489811461424 0.5596327418433911
Ni 4.541505912067769 3.39710545485637 0.282229084531297 1.56073983731917 0.2771014145385357 1.8399696110546182
Ni 2.3947453707699298 2.620923782086782 1.2397100346158183 3.298502184175403 0.03356446621900672 -1.0100182819224799
P 7.016015172255091 -0.2394497257289023 12.94791503058737 -0.9426286396239121 -0.029772860387058404 0.645509644312869
Ni 6.344546577816283 6.809134476119866 5.5346977435653 0.6440428299593552 -0.43543457519621137 0.2704463711158633
P 1.1249557118188636 2.0143230788227866 11.43117710515111 0.5600492605555193 0.0812921113122729 -0.9675308021822305
Ni 7.037261037731244 1.6747659961197843 0.4613532336636147 0.795999654777042 0.23046751673008048 1.232226901077878
P 6.780527910710149 8.252686276199212 8.678434306413907 -0.6177869815866198 -0.3350067714957521 1.3034248613789425
P 0.7551517579157062 8.490075741097773 3.3971798889006424 0.09434997293749559 0.06839288675210158 1.1484888993282736
P 1.7506152061717608 0.9547131063641853 6.703091693319188 3.0784036693844725 2.554972317162303 1.878414802404694
Ni 5.258342515959764 4.955184599844582 4.372437710422715 0.2883605323921227 0.75936529138346 -0.4456215430315422
Ni 1.7577369820125994 7.955841469764878 9.628338605942593 0.6928863338246196 -1.1937341443193181 0.43943109795011415
Ni 9.619451548632044 7.1353577565711825 5.200300502326338 -1.2260012318831401 -1.168612409551026 -2.147431640162882
Ni 8.281485818760746 5.258756038427941 6.04092735441438 0.24819527302714675 -0.49204409616013967 0.2841027855570333
Ni 2.4666707120683085 7.177674889148036 0.8267949849969062 1.4301835896644466 0.9451511489354496 0.8623580275976181
Ni 7.1563830767309735 3.929024000367469 12.864823663709373 0.181607557804584 0.6010200465409262 -0.049037622153941356
Ni 0.3760113856199141 0.139329503611348 5.660868962239233 -2.596006609395794 -0.3640144715820118 -2.873723546031141
Ni 2.757468901079066 8.278517646378047 5.706839795557142 -0.7252313258142284 0.48847283386911355 -0.7984519729722765
Ni 8.64654345366804 7.422866144612881 9.692452967286505 -1.292029217947491 -0.7295554071108791 -2.2463993143780474
Ni 7.565954107990556 1.5046428527114684 9.199404614845296 -0.15943102170754478 -1.493901439538382 0.9329620630684254
Ni 4.9845630738615645 0.6333804183031845 9.074820403510346 2.757081337354349 0.5879881530576325 -1.771639459219652
Ni 1.6462605139800666 0.3044747554416222 1.7450583831382702 -2.6097869510093377 0.1828314029093561 2.0268178484328514
Ni 3.468369160205665 3.109679771308307 9.568851101548182 1.1102031163741977 -0.3150272430500317 0.230996392650357
Ni 8.936055128333356 3.241758847644272 10.058443325094245 0.37714869497112463 1.6931992155338775 -0.465835556085572
Ni 0.4560261453346674 4.580753788991926 4.07801246989663 0.4839335512378633 0.3296174821593807 0.40039095332851693
Ni 7.423702378937419 5.193869768476765 3.666938973669336 0.12834124228127575 1.1162475227960649 -0.19490453202380625
Ni 8.46516330973711 7.756698238478667 11.860676243621585 -0.24383468206560582 1.1203137224456383 -0.07954170428006947
Ni 1.2602786421829784 2.4160831301279004 8.572733368853589 1.2260853069565143 0.003313123533633004 -0.9711979666211726
Ni 2.9962735317576112 7.004252755382479 7.5609872436783325 -0.14505932636690502 -0.738726789197502 0.8358923772069216
Ni 1.93517487841357 5.41091392794098 5.941319900157366 -1.1688121842666581 2.5186768251653784 -1.8356864102982322
Ni 2.9847408495895436 0.3330849966066117 13.558405601868687 0.5243258390119808 -0.04208124544076624 -1.0156883357240636
Ni 0.8568939070473355 5.4461827997824495 8.961009830879656 -0.1260845850366151 -0.9009788252936095 -0.05059931021410641
Ni 6.144116832184632 2.4913350299480648 7.887140684779467 -0.666709932539568 0.7761016303015343 1.0979896050271412
Ni 5.090204280398701 2.416101508904264 4.0042685486770875 -0.588427040367264 -1.0606353327483993 -0.05762176427852657
Ni 7.217538455080369 3.0784450408786164 4.889628423494959 -1.0120147435272184 2.8427047290521235 2.0482729329828335
P 4.596715756263586 1.769545345826119 1.8355472075025563 0.08332405414063714 0.24378326000238015 0.03769185812381896
Ni 7.4566555249570925 5.497156336026491 8.35116527358751 0.12361349778830326 -0.10086232013471662 0.4221702539871374
P 5.350346670435217 1.6986767841686385 10.68081026166163 0.764186109810871 2.102434763737218 2.596277603668993
Ni 0.688082089332552 4.109264660163866 13.09943793337705 -2.577576941935696 -1.087757642886488 0.3952811429057773
P 8.685552406499472 3.7029007253797066 7.793853691713845 0.447278619018991 0.42210443374620854 -0.06601281655569921
P 3.7536261481428412 6.463521586605106 4.918450939526947 1.2162007008529505 -0.17070633751104794 0.4084801580945546
P 5.398397981237467 4.573659581315632 9.070059381493394 -1.5814372177675216 1.0690742075443718 -1.2408982035996308
Ni 5.388050730144843 3.822923324421246 6.359683338029225 -0.8420144309442594 -0.26809124062012535 -1.37739267111566
Ni 5.736668549595029 -0.06341504890328131 2.4045329881222877 0.3132102444459509 1.9937688883976825 -0.4892243673231575
Ni 8.290840615929744 0.5757408998721186 2.656887371674789 0.4459138774609805 -0.012205798037572527 -0.9785261248514695
Ni 0.24501390027293815 2.820498914617533 1.619224415010607 -3.567322589652069 1.1949505332249226 2.4613327400282703
Ni 8.859608608049568 8.716244963026442 0.5576175885001162 0.48238291892129176 0.4350453101775927 0.2891840567346826
Ni 7.047755319034777 7.911300505248047 3.766775243692075 1.7150489644191171 -1.1711408323998347 -0.6953458511087057
Ni 3.4325213569087474 8.708599392059243 2.720598318877522 0.1744992288945769 0.44517674218463976 0.7754208021844259
Ni 6.593459535494729 6.622654221748076 12.631446285690956 -1.0282507457701064 -1.489338759868364 0.3292251318169685
Ni 1.5264860284194341 8.676188419942292 12.012926027016443 0.009614640271628604 -0.6930480562134645 0.3107872368267551
Ni 3.237853357667038 5.694305470077266 9.541562294403725 0.5760548919551562 -0.7647985465838892 0.7911094165642762
Ni 3.089435549143962 2.5818964504789865 12.276403246024108 -1.4380640208537878 -0.3356495472860736 -1.1617012842534895
Ni 0.0023855651719763846 0.39087246418740335 10.353474146301506 1.0321750205251772 0.7723154237862246 1.5193795292048284
Ni 4.845665471494757 8.090355733969002 0.44544364590459035 0.1845643264400628 -0.9323259721463234 -0.2883106529907938
Ni 9.137302729513182 6.64038974093881 2.527488839871434 -0.6741599610597099 0.7117834278394386 0.03319628424631057
Ni 8.18569563635442 2.0902182358156716 11.822532931156873 -1.010482623153408 -0.7801243783076822 0.8029568028211655
Ni 8.12046016965234 1.8476091984298915 6.7738904156264885 0.512305417512337 0.6487019259979215 -0.5296297677233975
Ni 5.153895929886253 5.858648488319275 7.126968764100083 -1.0716273129835288 0.3448515255003158 1.8229807898061057
Ni 3.2907290972646965 3.8156545183694996 4.779206897225689 -0.9141256470882128 -0.3078083567040892 0.14286720381159265
Ni 2.6622300819636453 1.4072537167615236 4.5667840810780636 -0.21411992860999254 0.007495537046096769 0.03074293760981157
Ni 6.119489271857603 8.442860664620056 11.037453173810917 0.221103044796045 1.2409511683247532 -0.30652254801313017
Ni 2.8289163941919955 4.416208604209918 7.492960040846642 1.6903720304977277 -1.4423667619941998 2.2074617567725854
Ni 7.440858966672703 8.695853710651189 6.748067315897016 -0.050878274907105926 -0.3731609139679702 -0.866034705118257
Ni 4.9745190725789366 4.314610728472743 11.72722978632418 -1.3337211983696384 1.0301145384517227 -0.7025182004874289
Ni 6.288647529506837 6.1019099722659575 10.485280297808474 -0.02742852852459792 -0.43460282332353534 -1.5264302654040227
Ni 7.0962017735288425 7.298432639244114 1.2180037807917607 0.08350583113414005 0.39697524277874857 1.9724374739097577
P 8.424013229459336 4.845233570250216 1.5287751050155025 -0.06337152227811021 -0.5350699649023622 -0.664020815743179
Ni 3.620885435857792 0.5230774351414582 11.001072385999459 -1.2749475798748557 -0.75839367149881 0.18971990249907325
P 5.73566690628322 1.2467794309440212 6.151039198301926 -0.432380618861236 -0.1373501306481054 0.15816886716566952
Ni 1.7353148748491851 5.0611106774153525 2.067418444797988 -0.7048435061864957 -2.039359689653604 -1.963821450105973
P 4.584787930403704 5.8375680318303935 -0.1192313927190924 1.2739620760331352 0.3384957584856171 0.9524805927173274
P 1.799217880264916 6.40406624506933 11.676914210273951 -0.752906937352626 0.32306733974568874 -0.8568260420357953
P 1.7950826555831387 2.9891977028576817 3.1593245220212696 0.44508803912557543 0.5798087025706338 2.4524508641576084
Ni 6.579987892420316 3.492399410300882 10.389182270898061 1.332354399929099 -1.03413600090629 0.09204395051213826
