# total energy = -340857.7040462127 ev
CRYSTAL
PRIMVEC
9.38516636135724 0.00000000000000 0.00000000000000
0.00000000000000 9.38516636135724 0.00000000000000
0.00000000000000 0.00000000000000 13.73613963700230
PRIMCOORD
 96 1
Ni 8.029985814941202 6.040480724976105 3.2803136439552003 0.5262320548957582 2.5071788518281077 1.3118380251433022
Ni 3.8532207961993334 8.197679966138917 -0.09625238839565264 -0.5738967079615729 -0.32297529425251476 1.077856324612376
Ni 1.8764044510528695 0.14951039151864742 4.829420744467776 0.9351945519433701 -0.379904660449707 -0.06507384968119762
Ni 1.4408858095524246 -0.19245221986010383 7.631346184361477 0.7417583769349742 2.7522864870688664 1.7454208918427554
Ni 8.466424202737672 4.955696279812247 8.468109778602631 1.8805806997077612 0.6789643244268887 0.31462743650845165
Ni 4.419615581557632 2.328253281890902 5.353413348546061 -0.9528418327114879 -0.09179969571181609 -0.42864789129168107
Ni 4.077179019281439 2.1993292526205304 0.5533578508704572 0.555313802753063 0.5525449817586742 -0.6695085783306276
Ni 4.184085448444925 0.3666549838771387 11.76463254325033 -0.3407192484994971 0.6142987659277034 -0.939943379482265
Ni 8.61640854515376 6.562934161783493 0.8677778147497719 0.5418083120674605 1.0609875738814953 -0.20115205559541488
Ni 2.200042525258264 8.203273525245354 12.122802398288323 0.10602123862783676 -0.13472194899663895 -1.2859105066442629
Ni 6.655218501873437 6.874859548463996 10.12923540835466 0.3803381484426998 0.25834290298410995 -0.45238225879414345
Ni 8.256834669239385 2.0436293439362854 13.31803898843851 -0.4582027221306625 -0.028520733147512172 -0.5415864258646415
Ni 1.2615352818275354 3.1353212714866188 10.276706403239366 0.8472103733229022 1.8114002840573578 0.9186176214212954
Ni 0.8389475224359003 7.6125993147052515 9.90915513598192 0.011369418179206225 0.8287652792438371 -0.7744298990260663
Ni 8.911609565512665 9.547905069368868 0.7728834599156992 0.8119371519429049 -2.014008355373009 -0.686760937653172
Ni 0.825237671525355 5.3442984750491265 2.3533163684575853 0.006288147001556913 0.08529017672807246 -0.1493083314512461
Ni 4.104208298185033 0.1503391017016986 7.0912129713045795 -1.5648913975936984 0.001564516273642467 0.8920876934515669
Ni 5.630283262115209 0.22979016541220745 4.0816529280499605 -0.8643555176436212 0.3889186910228592 1.1143557050899904
Ni 3.1421255170439473 8.656727219518288 9.237650242287268 1.444364766260835 -0.6579830941895314 0.5364125949731858
Ni 8.840779715552449 2.1049801759476723 10.190896889370112 -2.9968277082831936 -2.0371580540165946 0.3566806569247599
Ni 8.913355206441857 4.09948755954319 12.117637741281154 0.8048043975528656 -1.7809553373039395 0.6924980972472654
Ni 3.114157721511756 4.025081961228019 12.472002849906817 -1.1265846430560147 -0.4722982809917801 -0.8896497734340356
Ni 1.7746410930140952 0.7591679779053824 10.333491351852631 -2.179391223788614 -1.5335555635948945 0.5840147702321814
Ni 7.167761203082838 3.0559884608713133 8.23903288582816 -0.10441404204171695 -1.1950163534658516 -0.7051584663237533
P 5.445048235129017 3.160229502809584 12.74779722341959 0.4866951731434005 -0.2973689065383201 -0.3492239435363986
P 3.3839437115682545 6.964647434321872 10.72024654636443 -0.6162150091138098 -0.8436694500491793 -0.6082510170717267
P -0.08294703815203275 0.656571217100414 11.896129046599688 0.06475323311698526 -0.041408644853773845 0.2536704372091051
P -0.3501164438480021 8.583701240647155 2.889080786608363 0.6124853668680483 -0.5188900127083902 -0.24397069342283786
P 2.6452841990309737 6.335221872186998 13.853033822953837 1.6734120056046213 0.8651026802222908 0.9305022886740232
P 6.07815278244799 5.263792518648074 2.915207212515247 0.2013268906103823 0.5424857977504594 0.2151702242513778
P 2.6490664210442194 0.5418882391523732 0.6975909633865036 -1.202604964446387 -0.3304240372210761 -1.3132089373488998
P 3.2142223644527697 2.1784660279668184 10.689518573427534 1.5334501483652816 1.2968502934852182 0.5958004500131997
Ni 6.914249091366212 8.593311650923987 2.4698951499953923 2.034336011186767 1.637510920832638 -0.5848028133511154
Ni 5.488961428181071 7.101492543937603 12.45240099160194 0.5247917229048058 1.0051848650895785 0.3825187010337864
Ni 1.4988298262020046 8.11371088337834 1.5358655693996996 0.4843508412809401 -0.37018640472067854 -0.20163670854131724
Ni 0.507877335048646 2.322002761144446 8.223661860484997 0.35209792265008394 0.8823383273742869 -1.6081772048655272
Ni 7.693790388245179 7.950596693328181 5.973008887513009 -2.0229923040391737 0.053194324634792255 -1.240370870341251
Ni 4.832018558495732 5.619471550553771 8.96779010941711 -0.06227391833855726 0.7345834564530898 0.20371493122658463
Ni 0.3458480702211429 7.751668708730757 6.689184357178991 -0.08267767880588987 -2.9810439630863756 -0.05209877757776834
Ni 5.642549674450971 0.4377945443247924 13.552240182005121 1.551120054841219 0.23431440127999648 0.989717879802231
Ni 0.544774177785309 2.61762611398622 0.9573207477675845 1.5062190805634703 -0.007859605253734851 -0.71949185222729
Ni 9.213361431939177 4.3322959944329655 5.574070808645391 -5.552146610151638 -4.173774091621211 -1.7025148365078486
Ni 6.098743837279408 0.6456215435945726 6.404104300142877 2.311340752246439 0.6799140899346678 0.31334908401666034
Ni 6.9414473032629544 2.0693071588947 11.480597055221844 -1.6825301658558058 0.2130467501504718 -0.13804252872943967
Ni 7.92989301650133 4.550426029251484 1.713528644226372 -0.3714215626793604 -3.156921817496034 -1.1322513544234887
Ni 2.0553044907960323 1.8823077206467445 12.6202706454092 -0.5758453470475114 -1.1301762170620149 0.39827956341246895
Ni 7.1697602435017505 5.588725745800933 6.550037066273312 0.9105075907196513 0.7591948272438667 0.6224985281296763
Ni 3.1018725388434216 4.381765205926315 10.074043122460127 0.1142567391637516 1.0175212751677443 -1.0258794173244525
Ni 2.869167340782792 1.530683080576587 2.5284933127351037 -0.8329865164140364 1.1769980625115601 1.6216395010180202
Ni 6.77689718277104 0.3554153087330609 9.091703398407404 -0.1667041583301903 1.2907074138122738 0.3758662287142753
Ni 8.000103445486673 0.7631801364926347 4.850505459045836 -0.805774988996251 0.00458993336352758 -0.3961077525721307
Ni 4.365932430401883 9.175661218968436 1.9753944924541393 0.4226307385633237 -0.27537800408952573 0.9285572491325106
Ni 4.211903081316541 6.215288832218586 6.785941667520829 1.5177674475227023 -0.38169054870553615 -0.3920443811360345
Ni 7.80098775756353 1.692004703866128 1.9439382306134534 0.22673118961609984 1.2983932124923059 0.9333958081717344
Ni 2.9041927813620325 1.7228631306143978 8.422671496029107 0.7092534623287333 0.6359708515844983 2.404084299928763
Ni 0.44187333759267505 1.7930360189345966 5.883119641859245 -1.5118940194610606 -0.49838340811460624 1.0950130388973205
P 6.494985557873068 2.7163580633146256 6.045233373183321 0.9827026248266624 -0.29264758980325084 -0.6310127362482746
P 1.153465092044589 4.8640595161960345 13.520262104918936 -1.2498237882240346 -1.333206463516749 0.34415861319834923
P 7.324681183384259 8.075288012603579 13.701263483393529 -0.18025875708617342 0.14233729945005164 0.09831872777725649
P 1.395480375060901 4.607403373773609 8.425253355274377 0.15055428804320523 0.11507255019682762 -0.06150001628701021
P 3.3903631653078574 3.8788892259914616 3.584596689729039 1.0492435459716896 0.7792288630766064 -0.647073132145247
P 5.202573078964692 8.152068057989101 5.6753057818222645 -0.13278359432334552 -0.8497344252963366 0.9761923345119705
P 5.783937204549112 1.4852588757524916 2.408289041461027 -1.1116640171904404 -2.0031282181253958 -1.2387364200616215
P 5.460749618325444 4.242414256912229 7.5406188433583745 0.4838291644495152 -0.09038096098741855 1.4450756762849306
Ni 3.3868249576180474 3.7975761452898165 7.308821190877598 -0.7901943609491746 0.571661390873151 -0.23128949841074362
Ni 3.802972615904249 6.429326934536421 2.245981975711459 -1.2055406500359431 -0.2973100282759267 -1.8841915569874714
Ni 2.857332646096183 7.831527088658078 6.086785258397825 -0.46972023585195877 -0.016367642724746 -0.8923972542721857
Ni 6.969602802120865 5.260789265436564 13.206350817052323 0.6535003758278295 -0.12998186320849228 -0.5821463495648749
Ni 5.9203412113494025 7.981351883247305 7.735355412692484 -0.995360679910305 -1.1514721503263137 1.0336415777683745
Ni 1.3710695575510927 5.326016171124057 6.11392809781348 6.259228775860666 2.9947818814977585 2.655731278949936
Ni 4.727824442388891 4.900248717394735 -0.02789834530167486 -0.17507952687807912 1.6378914441005081 2.1941064185116015
Ni 9.429182715851347 7.6433638897906615 12.49480504991521 -2.6926551485594787 1.585824805312256 0.444575361155215
Ni 2.552511830294159 4.032637020088225 1.4221849272110005 1.1828756043382596 -0.24707787159325192 0.016926857662325687
Ni 5.1722871473598655 2.914891870928038 9.769883960881264 -0.586763536621912 0.04865684177575491 -0.05688180078870849
Ni 4.866781214418966 5.35409658865168 11.278964265700804 0.3355359045263447 -1.06089295728516 0.052946213179728176
Ni 1.8856488398445501 2.7887364657120273 4.51759671758316 0.06947557829331905 0.3514384346892141 -0.02165614481719496
Ni 0.4295271513434813 1.1099366908102595 3.446287494172697 -0.2923022906486902 1.106408682328772 -1.5903512324276998
Ni 2.4482801735221744 6.671905327529891 8.117028539660431 -1.208057760030842 -0.7100728729062352 1.2646428555147382
Ni 1.5784066511407453 7.047480911961844 3.9389345813724703 -2.4163150376669997 1.5219927984579593 -1.3962699676361372
Ni 5.653145527187832 3.488635241488251 2.061189928573964 -2.8917675480170457 1.1946767107382457 -4.378793343481517
Ni 5.404213376618761 4.662062582223099 5.49617298995521 -0.8640289875421376 -0.8390355508215938 -3.0456089914519553
Ni 5.710517048693967 7.11645249899744 3.784484776837517 -0.7442420625887762 -0.14875400160967284 1.0629889205822405
Ni 6.910495024851825 8.874819713671663 11.701679663353929 0.8395507998951154 0.7864858017493358 -0.7806650813025007
Ni 3.4077632636020465 6.026994241023166 4.4179544071250145 1.5711294080836105 -3.046848006065378 2.2140527797265417
Ni 7.176057690079636 4.3351490849839 10.351114817104424 -0.7225596925193362 -0.46100085370108995 0.24974796222624732
Ni 0.9905386053201473 5.888750741630827 11.42515793945399 1.874077351371605 -1.5137326153316963 -0.30477856873882997
Ni 6.616307602451805 2.911738455055952 3.837300738628442 2.010515768838718 -0.4794428624563615 3.5990327762711565
Ni 5.694571651174105 7.265366932456928 1.2142321667129883 0.4860045748342791 -1.8064264849918503 -1.385698362767878
P 5.263426497162921 8.760705476800553 10.089853373585472 -0.8791897544429763 -0.9302948006489075 0.46842311430709005
P 7.839588946497725 7.178704306972279 8.130311365504966 1.1705834172344678 -1.1164521826077032 -0.42182341217068
P 9.290835979629861 6.425798112012896 4.96532639893828 -1.9923810069112202 0.21237389245316327 1.1595752390494223
P 8.599984504153312 0.6159662951641641 8.24798821149823 2.3686511559321337 0.7577372688617338 -0.6762086160586225
P 9.588448987724261 3.263776042442692 2.875344657232217 -0.5105763506363722 0.5555498300232691 1.4698392563828557
P 3.4234928022973325 8.094058345175519 3.824539728029409 0.7833146031102058 1.6949725053842164 -0.802727974639811
P 2.5120523784353415 1.534530998753835 6.46447438227738 0.10571579157227601 0.5456569963895893 -2.246938474710969
P 8.222513116131593 5.905071545802128 11.372905087640223 -0.4477802412457579 1.709140569354482 0.21616986916048578
