# total energy = -340867.9098000875 ev
CRYSTAL
PRIMVEC
9.27352343604113 0.00000000000000 0.00000000000000

0.00000000000000 9.27352343604113 0.00000000000000

0.00000000000000 0.00000000000000 13.57273893075833

PRIMCOORD
 96 1
Ni 6.3159002077202375 1.2143493753935726 5.901589773504778 0.0941838796732765 -0.7704791419084344 0.15392886094239294
Ni 3.9173589558546484 8.822125616251602 11.465788354739004 -0.23171990107994286 -0.39600567977662765 -0.5088107740955172
Ni 4.609321470316436 7.366998472715572 13.389412058550933 0.26500334572342105 1.5237051531633758 1.4833077231829357
Ni 6.107913619216961 3.8315232209167878 12.271683526104376 0.09578979070781567 2.0626603120527576 -0.3836890671928037
Ni 5.270579347961105 7.388846894443489 9.055215633285215 0.42781716786026963 -0.7718513396656127 0.3791590405329341
Ni 3.8388493046031438 8.939278040567721 4.940246234543321 -0.37895695182445704 0.28038239928265263 1.0948646862449143
Ni 3.5327952034628893 5.310826440617793 13.023016066348973 -0.5111039410050682 -1.3956444182369965 0.36718361333861277
Ni 4.869332526516493 2.239722885773779 4.262043774478767 1.6301225987883667 -0.4019675537870174 -0.758083596457559
Ni 4.321897878196294 7.783518787617688 3.0182787820559276 0.5548484330808702 -0.5278557065421102 -0.5041413936443059
Ni 8.258898157149298 0.031194278866030024 4.672442636417132 0.9319989278242078 1.4906461658258778 1.1272505587747876
Ni 2.310025468591834 1.9603579857086284 8.307330989135034 1.045770756931741 -0.9125991831413572 0.030023285834967647
Ni 5.914681206846586 5.238771161829206 10.169700287157738 0.6937630800026181 1.0334770271660523 0.6102575059787941
Ni 2.6228399684755743 7.475155579087684 6.811967881170697 -0.06216284668198972 -0.5668053483324302 -0.7834593562181863
Ni 7.051503924495938 2.510203750178767 10.479091002108564 1.504112318633113 0.5308317584512987 0.6407788144961029
Ni 3.2297086298917916 5.741368323284177 9.904991263874763 -0.3679423458815082 0.7898243792042656 -0.5573061505927435
Ni 0.24674249855646413 0.35803405592349735 13.075257534499247 0.20225711573413555 0.20446800734252527 0.9273452311022803
Ni 7.671374066074523 2.7104933140495433 7.826923515078433 -1.3611196449872494 0.9924733310601811 2.011069584459659
Ni 9.067632881457406 7.317060547840856 12.031907298516506 -0.8421776959950011 0.1840022832890057 -0.2970814572048883
Ni 6.806386147283587 3.9880232060951943 0.9869236266075884 -0.6986474046781128 0.6310867840193196 0.9699221852325426
Ni 7.852105768559825 6.592705615256991 0.6864438405355217 0.59582898925829 0.7155189836224709 -0.5546152340241416
Ni 1.4678689650360985 0.05754221427068086 1.3544055484293887 -0.08506906185620189 1.1533858224092588 1.0791117942860318
Ni 8.284817655761152 5.537313708810032 2.809394516462981 -0.3327323736392786 -2.443270997430553 -0.10789711549431096
Ni 5.921441605590071 4.58388419493457 3.6642455465481505 -0.05995915416245158 -1.138508133966478 -1.6026686163424722
Ni 2.2903470513988635 6.654495103361027 3.3626186256001316 1.3518837282112781 -1.0436226002404867 2.4143280891439582
P 0.7766409136476768 6.2874583106746 0.3443593179438767 0.45646388506268487 0.8190992169089829 -0.511327369869784
P 1.1786184887561941 9.119453331633807 3.6484341887187375 0.4068279672031123 -0.21627245617662108 0.37440429945676806
P 7.656378778326627 7.99046674147176 10.282421821872159 0.2416690418728548 -1.6097126676734472 -0.22662294617300968
P 0.45767528552449405 3.9533216805833673 2.248554989701482 -0.5268527191988926 0.20454282644451868 0.28107454025367073
P 8.594460610555355 4.248887426471383 9.453711927614167 0.2849569060272125 -0.3000888765726445 0.02253366232614184
P 5.882956482427569 6.2166827781502105 1.2030226936030473 -1.4412789282466598 -0.7276957281943209 0.6484157622160704
P 4.595485373025243 3.210549530023423 2.175289516076097 1.0060567261715705 -0.6609159515656101 -1.0604838947721995
P 5.273658157814105 1.1140747641270339 11.030239696652037 0.32258062991725733 0.7640912361042196 -0.5220504127142429
Ni 6.757829977433259 0.3680290597173635 9.307451767254083 1.170747453616158 0.3661677704795887 -0.39999808876547244
Ni 2.5050754915983178 5.542479061485095 5.699925873428536 -1.9350698318945772 0.6748366754117604 -0.21887364124489403
Ni 5.805847133247761 1.5686072524853178 1.119741814431758 -0.24780677933947642 1.6385195646028103 0.7903465702563227
Ni 0.37453350920800904 8.668880637875617 9.234444097586266 -1.044473378276556 0.5143504729668239 -0.20735792729581062
Ni 4.5155290520837745 0.26744193070369804 8.981651552198183 -1.7510248682930938 0.5578378547264973 -0.5551914182425858
Ni 0.8519790198096449 6.323652873494659 9.702228451245567 -1.0625286931163702 -0.32099143105326655 0.5320628026449223
Ni 7.733404665793553 7.5863544012181805 3.390348316029171 -1.9821269332833797 0.5309631418228405 -0.14829711657791234
Ni 0.817355391896508 3.681449787630337 7.626359454907511 0.7016841346219077 0.12053537308361177 0.1341974439517366
Ni 2.6430655235641085 8.18473778849134 8.857868558469733 0.07742748615054407 0.031615570022752004 1.9225863547155857
Ni 8.132676226699946 4.948009101193762 11.621861757829345 -0.4864059240377558 0.17098607353499584 -1.545393693880403
Ni 5.2581620997889145 2.433641538894522 9.168114292301421 -1.0091883298220168 0.886845214105705 -1.585546869060521
Ni 6.4337759668813375 0.14338907743692533 12.766979642386856 0.3122702491301848 0.8769413247284317 -0.03608106199327334
Ni 7.33792597606149 2.2220197291190282 3.357746316272522 -0.49291441458023494 0.04101423762883259 0.6229556702717529
Ni 0.8845392887098524 7.470917578777981 5.181284588700446 -0.25093452633518076 0.8694169913269285 -1.6349660429235973
Ni 0.4791657492393814 7.318776149716775 2.332434938500795 -0.9061256596018716 0.8600288652438092 -0.8507556674719994
Ni 5.925967085133036 8.660339722590637 1.5400716928507792 0.43461259351554826 -1.543180231168852 -0.049035822381728454
Ni 4.756343914320848 6.005895585503542 6.7778867543912975 0.4524082269360725 0.2968449157140501 2.246805034456898
Ni 3.293389916821165 1.04885407227116 2.914026756494353 -0.6612841335383063 -0.2171175777857358 -0.7687657587617535
Ni 1.517278299062559 3.76683111990917 10.187345020613472 0.004226636486837881 0.24457978776174652 -2.6652803560909515
Ni 6.287449037150947 3.565706938909569 6.150880636361255 0.2428916014260462 0.7357728487755005 -0.3461411908460168
Ni 6.718519510665585 8.357549901776455 7.125402779786865 0.758691662355203 -0.013948234649975978 1.8659945743634703
Ni 4.459405686932096 2.9004892666648066 -0.25328589684645486 -1.046186761423237 0.6689488491724157 1.1730557900343606
Ni 2.9452340182934984 3.585422450197154 3.409512980011732 -1.811344748229074 0.23674229399519872 0.4899908131755368
Ni 2.092960100431669 7.478113833133187 12.4221779773647 0.9464099610432152 -0.17879554227708563 0.04476727691336161
P 8.217705165079941 0.6325887792695181 7.410335503453646 1.204230930085584 0.45309291170792293 0.016165296905952805
P 4.525414628298528 8.276341655141747 7.038740773891467 0.44360091305708765 0.5198960853754014 0.41300195722430805
P 7.693862360934539 2.662076247054019 12.611626792084401 2.009292952175211 -1.0516385285664276 1.1236492145767745
P 1.9004602964299295 5.6365033178090975 7.98497867017355 0.5682634209351954 0.047922534712891665 -0.5141550691265661
P 6.261260606353138 0.3159999552587568 3.595513898637018 -0.5696348473614254 -0.5735457523800574 0.7391340519382497
P 7.769525040424383 3.994505399129071 4.498426819761778 1.2386027226972345 0.671564946639024 1.19801631663444
P 4.616805203904904 5.932115431315382 4.50300052162774 -2.4170328896696307 0.8812731193345661 -0.3169637979511122
P 1.5066137468609018 3.341862624958611 5.366837596133263 0.4113657071724657 -1.1170846739853795 1.9334243258713542
Ni 4.099815533739523 4.164962037406168 5.708178382127889 0.4384664200439997 -3.312470730540353 -0.5502723836744137
Ni 2.790941131744653 1.7673203173349792 5.065034478235825 -1.612441636568836 -0.6694980368076663 1.494059562382801
Ni 5.762938539302485 7.505136881059821 5.269914436315141 1.2017798974419303 1.0090404913902429 -2.0241814392512683
Ni 9.464372770406362 7.129373702615342 7.360537608786099 0.4989176833515215 -0.4330413923736865 0.9283376769225367
Ni 6.602470635664247 7.215932772398184 12.016095013334729 -0.40267280738415806 -1.136226794131469 -0.5875916889501622
Ni 2.8585358456558523 1.3305559002970215 13.10195508174564 -1.2943519525433966 -1.4218796977844415 -0.2925195488658188
Ni 1.2121422767640122 5.252301232839829 11.978010506394062 0.9131344868195371 0.10600555489855293 -0.09689022286084605
Ni 3.4715899473490306 3.9858253809892874 8.37997235461853 0.45203490275705377 0.38305631870481127 -1.1886819266073916
Ni 0.6426561165478825 2.6127411012167876 12.044598115636479 -0.9856786767358509 -0.7325697684571706 0.6154719603001981
Ni 1.7341674702733059 2.8644245331758977 1.0305388630552703 0.9162768891032607 -0.14972587860463893 -0.8073323061810419
Ni 8.284511629480583 2.040685247596241 1.2381239079843454 0.36313952517622616 -0.629921817176941 -2.070446640866395
Ni 7.618329510775845 6.149347722901313 8.660479752797807 -0.22681526468947388 0.27613956484589863 0.8502139360359164
Ni 0.7566305043079065 4.864686491166031 4.372946771204714 -2.045202521587626 1.7539623536548634 -2.0323354358169707
Ni 4.318457400920803 3.8667904313714856 10.879772138610306 -1.2624167943976967 -1.2771505010634456 -0.36374681974292195
Ni 3.813143097035323 5.291342767421549 2.0086702618868664 1.6403028817554781 0.41364910389000376 -0.1813548183638296
Ni 0.02778069480913435 1.8638947926637255 9.241746070111123 0.745335295652955 0.19428926703731056 0.0753880871230121
Ni 2.6858442881782345 1.5890553721415388 10.739281037315136 0.06408551762599932 -0.0737415526585246 -0.792476472115132
Ni 0.6042155062989177 1.9205003810453913 2.958938431548811 0.370051164694395 -0.5764498134007298 1.5442143288603212
Ni 1.5621343329750945 0.23998302716534417 6.895915526692682 -1.5130738987017747 0.28168877679890203 -0.2729575675734912
Ni 8.551394366707969 0.6174516066097223 11.112394770051777 -1.235796363596691 -0.06060810060036013 -0.6219051175200515
Ni 8.383923803047335 4.958043053786974 6.699735061152822 -0.6619443928301245 0.2715691718663968 -1.304941812244101
Ni 8.784104169271782 2.2976174939432976 5.928395820977917 0.7756799693830834 -0.13504025156800614 -1.9151278415550113
Ni 2.5956499971231755 7.196226534634253 1.1894184344031942 0.46279651214893197 -0.03350095997092295 -0.8292370766739331
Ni 9.123913896511196 4.3761201709989805 0.049745962935086756 -0.2816255276611343 -1.0181329406098143 2.0043404932659414
P 5.8612749841254175 4.423684073818372 8.189058323161559 -0.23179163485814275 0.320288491448971 -0.7390276082673725
P 4.244454682164955 2.020969736308656 6.672453281916252 0.28315790514526074 0.1913584665437608 0.5652809412681039
P 4.222281687109162 6.59224193907431 11.487301074910661 1.414868299463615 0.6755216172939269 -0.8375995897060156
P 2.623924970743047 3.4365453014620195 12.031323993878695 -0.12587452590833806 0.06015198689954802 1.778580666424176
P 8.029471181958865 7.292114769212631 5.780453443427066 -0.2634467998695786 -1.0222104531132976 -1.0188533637156065
P 8.022219286461738 8.911819137029367 1.065500974581764 0.8876363425484326 0.10145573074434139 -0.3201591649599583
P 3.5908103674399046 9.31219424725054 1.0677553681819578 1.6117986036681984 -1.3468615924063385 -0.37823755715992924
P 1.378787496819473 9.046424332861589 11.161921877828638 0.5888134771724053 0.613558545327569 -0.2700833313494897
