# total energy = -340866.6241906376 ev
CRYSTAL
PRIMVEC
9.25136650108522 0.00000000000000 0.00000000000000
0.00000000000000 9.25136650108522 0.00000000000000
0.00000000000000 0.00000000000000 13.54031001679517
PRIMCOORD
 96 1
Ni 4.805751834426025 5.180358165720549 9.09877721149984 0.4442362326482414 -0.9249602758098714 -0.3818926374140133
Ni 4.4667817667921375 0.6401196239824551 4.146029490020277 -0.46369434137285304 -1.3168046251199579 -0.21634598972703387
Ni 0.3400543277847248 0.13926544522725764 6.809273089887979 -0.5519687975402301 0.2542808170995943 -0.14187038711596214
Ni 5.0964667745277525 5.919792133945814 3.715907558784229 -0.8560243720701064 -0.03610188792887976 -0.12590152249153155
Ni 0.7304795706143794 7.281482262627488 2.6478613528301786 0.9688695755983119 -0.5663155531802054 -0.43763441106100764
Ni 4.18329214390717 3.4216548961425683 7.288423562893474 -2.931559226092687 -1.217375180777026 -1.0922277628426995
Ni 5.687601338163191 6.885505274776352 7.608815036372821 -0.645951616946294 -0.251140985919032 0.9882855182310786
Ni 4.2685989941706 1.475435679488407 0.9355768145391254 -0.621104218885311 -0.18805279920929546 1.655822317547316
Ni 4.36348100873537 5.419135934433175 6.169263557166573 0.8458039798936788 0.0864083494929157 -1.0582447210290356
Ni 4.233101501007084 0.6479203761939425 10.588955868602367 1.489640607379499 -2.9600344507142444 2.6656719351024156
Ni 7.869341842530876 6.057600488953303 11.534692533804034 3.372136264721786 0.2876300819840014 2.534485767173177
Ni 4.244804479597611 7.169059657226643 10.20285378932635 1.714084543623319 0.12574854185343504 1.5934005607769848
Ni 6.33233831915318 4.581267426916847 10.969438667881636 -0.7583173097349198 -1.996109877826033 -1.131540187289077
Ni 8.778945445692214 3.8602344266098085 0.2553090354663106 -0.5864593751179319 -0.5128147530485877 0.46294049392596404
Ni 9.24076440874396 0.39399997083548793 3.032271357177968 0.401514782520315 0.35235271897336734 -1.1134797302429404
Ni 8.716174924161212 3.103463397610911 7.162688241135501 -0.04318810535169982 -0.18092467280494648 0.35649810860030867
Ni 4.354359161391292 2.7815713524893644 11.270791754292645 0.15747158398832878 1.4705568512751708 1.4804900512284827
Ni 2.1840903514522645 6.053964701928736 6.479580292554945 -0.6080810671527657 -1.2379121243881133 -0.7429030320623786
Ni 3.728411705711466 8.906318259316214 8.54978539756671 -0.7409993872817625 -0.7145563625988854 -1.4304491846210075
Ni 4.511724905126347 3.828918551092868 0.2871050569032895 -0.03849867029583048 -0.9783841999569666 -2.8609032543380213
Ni 2.0226355037353816 9.404846644539667 4.271155146727566 -0.8776998001610111 0.11983114792773555 -0.9395556571255432
Ni 5.147608328400026 1.6326071445274926 8.893857593811408 1.2336831739084302 0.42198564878015715 -2.374191111913756
Ni 2.1106252502764815 2.348690663770554 8.267035883999721 -0.27591227932644097 0.2679755409778675 -1.028421981240648
Ni 6.433594525219035 2.6663178289472533 12.844636069245988 0.3027767078174527 0.5709931611615329 1.2145767920962824
P 5.912039488839994 8.653728200456824 9.113996634487407 -0.7068283978270085 1.9695352126612984 -0.952943905506991
P 3.9869688959470526 3.8436004696882553 4.389605942523343 0.7791321895977421 0.320638418589222 0.4656393809143658
P 6.617326663407053 5.340813865858162 6.142791697135798 1.1194603733064075 3.3292510353224856 -0.3956958618456927
P 1.3734023586386759 0.295668121712294 8.8956717867771 -0.8071893528452744 -0.026828690157069922 0.17840447748625404
P 2.6903621304150604 3.7049779944309904 12.468878867962008 -0.3645256068904754 0.27270354258115614 0.47687098796412714
P 1.2329018559870426 7.515144025679593 12.344200052255449 -0.6100032238761429 -0.09392676935714792 0.6313413232322869
P 2.7288755690493365 5.969166676821415 2.525511106065306 0.39165743011026094 1.8051956979085426 0.28505152262354777
P 5.980111043361013 8.033895898016791 3.5111516902824005 0.8019389030796125 -0.06639411115451792 0.5810348616682509
Ni 2.222724057850712 1.4793397561407402 10.515188247742861 -1.6242764244202348 0.45881001669735816 -0.7100821288776158
Ni 9.143218000634471 5.5822745308484585 5.460671794494744 0.6677540575333661 -1.658773172645524 -1.3452669942257087
Ni 0.936145773577321 4.843506661009374 8.112283651293776 -0.31312514093131233 -0.23823250538748003 0.17076624421470593
Ni 7.5006471344137 5.607077444367193 3.3830193394708257 0.6832894341648039 -0.3328064214103236 0.5637215672007839
Ni 8.054822488982616 6.912047445192336 6.846062073811367 0.320370509639816 0.42195119599779585 0.9958314488991364
Ni 6.087917216890973 4.255647081105987 1.9895045101161002 -0.2761135967039696 -0.5831609068723183 0.28007900910962086
Ni 7.444223050284359 2.250792703735025 1.7416224716556978 -0.6750881293009341 -0.6377698524664499 -0.9983308182822226
Ni 2.828318507286145 7.207499084929122 4.437145939427007 0.7433401195997972 -1.769839429896436 -2.1390061351033487
Ni 1.1963312043124588 7.483809647429703 8.045936551483646 -0.29587715248414204 0.7784819576082528 0.6625385747706977
Ni 6.436083142800736 3.82298842518257 4.685150095924876 0.6559573220087541 2.5605426121612287 -2.4654465050863283
Ni 2.83502574798032 6.091330971120146 12.149462488509098 1.530799341005996 -0.0666015991796337 0.0716576735463024
Ni 0.5309109432949283 2.209698133854301 4.954290849407546 -1.397068809388349 -0.9872377936928545 0.3446787473678774
Ni 1.8973720016676188 3.8088245831097676 10.387151186005973 1.3801771758393329 -0.6803822878203379 0.4038426593225432
Ni 6.637698172384395 7.31260385944846 1.233135915558853 -1.0728804686643394 -0.23805072839397712 1.3069238756711363
Ni 4.547268655122236 6.06705538549047 0.6865531574557423 0.2893136403340114 -0.8873596918482782 0.5467389165998584
Ni 6.642564391150101 4.97200814134329 13.274256576419106 -0.38944679561218737 1.0100478496088345 1.3611479271220235
Ni 5.817888332226729 2.0656821119422726 5.575195385222 -2.6876438113878165 -3.810257642721541 2.0052691757277983
Ni 9.194942390594653 0.7915348888009678 11.36111932114191 0.34221794453221066 -0.34531740939314076 -1.4044044238178135
Ni 5.065160150377285 7.875114695211104 5.540844136364702 -0.4856528479218151 0.1973825612506536 -0.6927786046021618
Ni 1.6237628381776565 4.954023484916427 0.7928106522378322 0.018534311358761626 1.5120647407109702 1.2475954131141482
Ni 2.3713935170995266 8.30814340579351 10.676832748472476 -0.7293324924667955 1.2183938518495276 0.5685254163473304
Ni 2.488552822135431 2.4079086605752624 3.3534612235840826 1.6368735443589553 -3.013319021069998 0.24134688264674567
Ni 0.058622208803736066 7.815924452505819 10.44297763186105 -0.4493013058759746 1.1889071552443202 0.7209193287024358
Ni 8.175885870670855 7.857416831144956 4.001391776281147 -1.4459470231462903 0.007850863502986478 1.1694593309323538
P 3.813801818273169 3.3083534109266237 9.303641320989422 -0.946009383170687 -0.027007381826779295 0.6688591176720868
P 7.250064622079327 9.271256912644652 0.465475103082558 0.7155524079635677 0.7777461078834927 1.593614476560004
P 0.7502654680938715 7.618759330196502 5.180237897956378 0.16860985999333544 0.29826545021066053 0.48272950362743317
P 3.3948351847323432 6.581200077323256 8.32517794688342 -0.7352519432750241 0.2660140463761225 -1.809665303644122
P 8.743253673832728 5.65375983959865 1.7001615476625747 -0.06568577223358366 0.19360201116229883 -1.5118994187776993
P 1.4956961720680524 3.765195138814969 6.403659878716771 0.5376752637356933 -0.09845036825911432 -0.5826099194648547
P 5.144999443054154 0.9441019487455836 12.669410562531478 -0.4473999750882037 -1.0946253165405986 -1.6088996848538486
P 4.26342748031123 0.5578157672767207 6.516300816366419 0.9398577617469942 0.7278042287477271 -0.035547300976990395
Ni 6.25460833803255 3.647101445765117 7.149839018238756 1.4078049648589304 -1.7435334450120552 0.1236366377167548
Ni 7.888926985357867 0.4902363854521568 9.01715610563994 -0.09718024329743909 -0.48022113538328265 0.10637322265061681
Ni 3.4012001248669534 4.022864197868982 2.119775776856631 0.849117617647944 1.0328206245289762 1.606047560117034
Ni 6.819626294109844 8.807495162633211 7.006947962490054 -0.2025029131963545 2.1520891935395516 -0.7426371799955016
Ni 0.44723880948758205 2.641727696857437 2.4629552162365176 -0.9303824752667075 -0.31950893297046906 -1.6028293102900526
Ni 2.3326857997692816 1.0163828750126023 12.672903878512335 0.41827271870494415 -1.0783116669822397 0.8514341815962627
Ni 7.152240672975595 8.368194025580943 12.128163992610988 -0.44716060538388797 0.20487809829675036 -0.6292458741558389
Ni 4.3317673244600154 8.014005460096135 13.069039064730188 1.1007118890543108 1.6987473990456166 -1.7440065279937318
Ni 1.9177805161108599 2.699724513287481 0.7158318820749487 0.3707900997429485 -1.4116410507755688 -0.4785769149116403
Ni 9.263948333129619 2.337098701577725 9.551320754524028 0.1698848700510171 -1.2706499809407663 -0.5504778148170004
Ni 0.7616751783671487 5.055797767504865 12.222986798430318 -0.597976374618596 0.032609301394589 -1.2336034697104303
Ni 1.9587178127615135 6.028273657228427 9.875069548897052 -0.26614285864450293 0.6094998018771632 0.6701063598156266
Ni 6.6212122373264375 1.4234985080993063 10.926691803948524 0.5726687490917428 -0.4799370284839605 -0.9887231199891294
Ni 2.599078897408959 1.92112951077471 5.823172712757091 1.6362485091804466 -0.043420018856847806 0.5991894210900907
Ni 6.771944751299116 7.106224376130317 10.063496755570991 -0.45476669986592 -0.3487356910460704 -1.8176753184327923
Ni 7.243227862254505 5.085818451715345 8.587684545467065 -0.3397738538670923 0.0938267534441739 -0.21375457485077382
Ni 8.926662014194132 4.429443251700151 10.055589612645047 -0.7870262476338381 0.6557328647027739 1.9530197315047781
Ni 2.50786042396818 7.3209115865427625 0.7469636553990426 -1.9147637733473735 0.8387853824840006 0.3312064239130554
Ni 7.3759109602349975 1.474825089301075 3.9301969604382614 0.8680792463521114 -0.21731889516326447 0.42639226248828505
Ni 1.8100483535126988 4.4175829998795555 4.178580422961594 -0.19247612508797174 1.3909873790809593 0.6440343453189231
Ni 8.646114325848126 7.3548548501385245 0.2925383844338949 2.3806674636667196 -0.028643888988937764 -1.0391522231739587
Ni 4.418165835967463 7.917920767889651 2.1332485418537717 -1.0714468215416062 0.699453445519176 0.3036686235041028
Ni 2.632309805786168 8.403228950420722 6.328293621730431 0.17330443725552735 0.923129650359036 1.1870461907761813
Ni 8.864354060986866 1.3934685725223523 13.411053757070906 0.13003097127887284 0.48262537394940097 2.1465260976294775
P 7.858943306613286 1.461188575117332 6.051637983260342 0.05874765035285367 -0.9193059057375715 0.3271497373451785
P 1.9407609104340742 0.5199878548982216 1.984156295157062 0.30725968328947084 0.21198334188296394 -0.23860248713238907
P 5.490908035544084 2.049871526636969 2.9907299462965145 0.6279037583056477 1.2204381359730658 -1.0837369517628692
P 8.89601223706337 3.806363719627491 3.890239383497281 -2.427674685654193 2.400088548505808 0.8340882341186473
P 7.037930788813905 2.770025647128909 8.906856688845043 1.3394917823048287 0.16945729559529524 0.9857907768336829
P 8.865945296020518 6.381703610662308 9.076016074562075 -0.514336846120069 -0.4856911573589183 -0.8940149923812667
P 8.287475853088976 2.87021794605017 11.685870038504145 0.5316341997479359 0.3208855016030216 0.23105604224369886
P 5.701755928869518 6.520825659709208 11.94907974093987 -0.8276306514187618 0.15375865391311586 0.6816506130098002
