# total energy = -381179.13900676265 ev
CRYSTAL
PRIMVEC
9.08695448227114 0.00000000000000 0.00000000000000

0.00000000000000 9.08695448227114 0.00000000000000

0.00000000000000 0.00000000000000 13.29967640824699

PRIMCOORD
 96 1
Ni 7.127416206944952 8.1713982115468 4.321251134908637 -0.36199204183534434 1.3693610590604353 0.8788223438012285
Ni 6.064397033103141 3.2880326276646588 8.303439835656098 0.666124492349743 1.0572391625826567 -0.5088390562302914
Ni 2.5124519919605612 4.319374678847514 0.7249862916018223 -1.4111355718940601 0.3178048057951688 0.5742805736635529
Ni 8.221976199131351 4.469727424548912 9.121941791259022 0.6362305330037881 -0.05149533966581454 -0.559902707675326
Ni 8.003180513708998 1.3131103298428908 5.945101679778042 -0.21638532760540152 -3.072750070643121 1.9693495790130535
Ni 4.49692467874233 2.3885059354292504 4.5581980115275655 2.1090841507329356 0.33171473100804166 0.34111854082044474
Ni 0.4491636071344879 6.999535499205573 3.6196528462613813 -0.1418549604969944 0.9709709382120312 0.3323189402509438
Ni 9.138931669697188 4.094454386232925 13.214398864938751 -0.2748136469456235 0.1422658227821679 0.6865801891009337
Ni 2.6551989569202648 7.218576532393787 8.959407074634907 0.6090154060415769 0.019378918747244043 0.030147984338290013
Ni 6.811135675887122 7.411556180674977 11.455250840237529 -0.5731022370847356 -0.8588957800806305 -0.538442480919021
Ni 3.5158334847895425 9.345569010277979 10.31161129922919 0.040891081787406997 -0.020774770653506157 -0.8958034517402572
Ni 2.8420449110549284 2.6471388284640134 9.764648437840753 0.49382278532711726 -1.246859049168756 0.3155674318242178
Ni 4.922021487436702 6.581735514806995 7.9183083606296405 1.0090713446281783 0.3121401513102237 0.8704030093892816
Ni 8.50567091210111 1.9267341792157895 12.257194547731116 -0.9196676599523645 -0.5012548161251302 0.4564456302302397
Ni 7.685055330930065 5.212804024753559 6.927163360449123 0.5024748045751605 -0.8488581933389704 0.19127721968386413
Ni 4.407554483288851 6.8160517181586355 10.718607803671016 0.2730704390022716 -1.4042799824248073 -1.7088173816871084
Ni 0.9044763562377982 3.473797234238675 11.094603254853151 0.5355332776920261 0.24833282704627554 -1.0334310044194654
Ni 6.888311178681875 4.605486521658721 0.7898916800172322 1.1600956303292667 -0.3536099884192362 1.1346499365626523
Ni 2.3198903435767635 2.1222400007899207 4.003654812869448 -1.805462064196052 -0.08448233611479644 -2.387741596904682
Ni 1.4954673285577251 7.200575275943016 0.7999754731941234 -0.2534135840032926 0.37705330704384094 -0.5120346803494535
Ni 6.838378364851996 1.6997420610228176 3.9449103794634395 -0.5706694592735269 -0.5847603901489542 -0.46571882800204956
Ni 6.78641916021519 3.2104845597439686 5.739661091077394 -1.2366764522087992 1.290483470726926 0.9073549040232824
Ni 3.291222148620853 4.463866339031119 11.469242023759614 0.18633375963565973 -0.21331800153398747 -0.4960547599814295
Ni 5.778648668463583 7.25788669665731 0.8388185680070809 0.05147837038495005 -0.13137565823222536 -1.5858577154327205
P -0.14352026476988064 8.187945555310987 11.73992967035702 0.4977943683803555 0.4422132886809417 -0.18666774593631077
Ni 0.43985129637691556 1.9611010403449258 9.23667821961625 -0.8152988693262863 -2.002358686949222 -0.19146208200116058
P 5.107995093959414 1.4546032951104155 9.065524526846977 -0.15144980327428112 0.4347673739258577 0.43264904203127424
Ni 2.7952107486383317 3.6588712322865633 5.6589189587233655 -2.0491095699515163 0.6677910814188887 0.40428540328691664
P 3.3836546476704488 3.8091331084450495 2.8614782715019853 0.2385022141090989 0.43340623191227295 -0.004188327049734723
P 8.249482409770668 7.131696162416085 5.7536659050309185 0.9425299092625188 -1.1916194119691605 0.997803999244475
P 4.629385211444449 8.089279405617662 12.301628845519419 0.32006403414299067 1.2532693235704737 1.5759669386815696
Ni 0.8716351947341464 0.2421146275243068 4.930256085415344 -0.5826271458560354 -1.1619931044622955 -1.7310162863816507
Ni 6.685463098040493 9.26169642217065 2.2213123373400614 -0.24640809921973691 -1.7797438334943412 -0.3930064879389877
Ni 3.348115569437754 6.16000087920035 -0.2617061009760301 2.7877309439194056 1.3225878074606383 0.775952763428496
Ni 1.4534583388697304 1.2619144293665416 6.795416153658859 -0.2678600984459258 3.211985077018765 0.8810561182277536
Ni 8.981073099751299 0.9219532954259704 2.856610390088215 -1.0107875559883366 -0.38060014385483487 0.7090598582606885
Ni 1.3212885887049275 4.363573624519677 3.5152773631869243 0.3813812449952335 0.2305482493693449 -0.2282496831431553
Ni 0.9862344100815783 5.630822096055124 5.606890693233947 0.35579799720949046 -0.5315156718922007 -1.4017034799468828
Ni 7.286328863588615 1.3472136692975836 8.241064255315345 -0.01620951988032692 -0.22377133565682752 -0.3390590871882548
Ni 4.349298019328277 0.7141092073153136 2.7849125033401694 0.18344178279984535 -0.7649983212995212 0.40570208112878514
Ni 6.985850546043098 6.40994664393277 2.9083069817460068 0.5527522126734739 -0.9331942336838895 -0.8796741502785625
Ni 2.874585294371543 0.13045776797634995 13.451425706755442 1.7079714887470456 -1.0009556574995793 -1.1203440614629414
Ni 7.408157659770087 2.6425953513184375 10.399548481990953 0.8502499314801745 -0.2231874381288995 -0.3112664904560188
Ni 4.738692184612715 5.272096401503325 1.5967859602086385 -0.12078065632519844 0.021617578269775676 1.119781246980936
Ni 4.816858165425202 7.240103527109525 2.8984249189543796 0.36583301284798936 1.4072128398008863 1.6742149611218908
Ni 9.159922534109748 5.537008379953273 1.8375102837263992 -0.32999183477966393 -0.7243759197924685 0.0755922327140182
Ni 8.126254222628358 5.064168713413189 11.381463862697947 -1.3803944340564613 -0.6344731839930492 -1.4081610626467684
Ni 7.307038032418149 2.0926619645722213 1.1088537712863806 0.9993641446427434 0.4606954066455291 -0.8940820981737764
Ni 2.9645461418539454 2.0698627962557214 1.3874352550765088 0.9758339227312871 0.1760516609833613 0.6994310769216727
Ni 5.499561041319436 4.537906842595424 3.9486469350679614 1.1210115198436112 0.3301746402144314 -0.32846819904628594
Ni 0.6052929296787707 0.45043487203982 0.48081619501685696 -0.8520692440771003 0.08546244063987862 -1.440697344711577
Ni 5.170813208974147 1.2881484664050968 0.5517026167467031 -0.37205071162292697 -1.5847588259415868 -0.6712384165375408
Ni 0.1830612376723986 2.7116198561140266 4.966843798173238 1.296783701913341 1.5776499828109476 -0.3336960231041285
Ni 4.0233762297675355 4.5458397536916 8.95356779780741 -0.7773720123735257 0.7303784172328066 -0.06284367479909822
Ni 2.0243098943941775 9.0852095959279 2.365400536753139 0.5642679266225572 -0.8114856662277832 1.811070154411449
Ni 4.018024013690047 9.244703817646196 7.660985806403662 -0.2585254513085612 -0.7349524097567341 0.01552637777037326
P 6.45490889376539 3.025810387684891 12.43821576416515 1.2980905936502225 -0.2647557484889892 0.07781726538979501
Ni 7.792090565525542 -0.09949578862010841 9.968014474876728 2.0405642514846662 0.6821740896134381 1.061522620449359
P 1.8966200126949124 0.16451294657329954 8.487680559995487 0.03211436403604147 0.01419583188440781 2.2631716487403795
Ni 5.950882800098073 6.168878833542805 5.8164267722336165 0.5796960882521693 -0.4182886595445441 -1.5532255312199958
P 2.590372625007188 7.837643467387085 4.425852883144944 -0.036539489686930625 -0.5438803641051408 -1.2706875190469213
P 1.9634727354149162 5.239437887780926 9.840403649679796 -0.005017507819249423 -0.26540855158163973 -0.19442219307074904
P 1.5506705758764723 2.39086854354495 12.981893691577337 0.7004924283066516 0.19395913739140141 -1.0561806394111553
Ni 1.4807373756517683 3.5849397721737524 8.181442022124811 1.544488408457314 2.9217049590064263 -1.167172848891022
Ni 5.855288040955156 0.6262737984416111 11.161673155780713 -0.7803863737198173 0.8383624360139691 1.1295334412716935
Ni 6.601545075161706 8.203593290600352 6.98407222908832 0.26212525284467764 0.6495833001616103 -0.9737803826363682
Ni 4.520550759899324 7.8716195894817025 5.612103878910781 0.09010842405232224 -0.025673236396388046 -0.29157826799847203
Ni 3.63762593315385 2.0928527906123358 12.064562021103848 -1.6064705065870655 -1.2196151258511385 -0.041362107886554575
Ni 8.146917956686437 3.2980464512935077 2.930530037160448 -1.036159459094222 1.0721903845758503 -0.6309541150961973
Ni 5.178864250476107 3.054961337050906 10.624259774656846 -0.6989883329572995 0.8577758075435743 -0.15591966612017663
Ni 3.6040132892308803 5.723390899419088 4.554566864592822 -0.926005172134618 0.5756183186383699 0.6919070006304858
Ni 7.007813714564812 9.00671648476093 13.188331119163724 1.7744478752027246 0.1687931796487351 -0.12752260303472232
Ni 8.380607160191989 6.439088506344495 13.016619487400975 -0.5513414483688762 2.1030333165531654 2.0436868562740482
Ni 2.7863873160216235 6.3484007025188 2.5460237445892213 -1.8892910829975653 -0.024415709840203113 -0.7868601543696191
Ni 1.319044110995013 0.9179005138121168 11.232999386098252 0.2841904601748332 -0.5271049444190148 0.2649550089839888
Ni 0.4410798525970792 6.916326258761496 9.762813781769369 -0.11204044823872317 0.16489487303559344 2.680053143524752
Ni 0.5543423769682827 6.369064436576879 7.611152040375557 0.2285008799220129 -0.23647464215610883 0.6729566847802281
Ni 0.7222829227002047 2.6303097891168 1.6116413130838136 0.2942866680685706 0.437027373604628 0.7009032905918251
Ni 2.3502407709092106 7.72241180002099 11.66243248938036 -1.0308593870375473 1.0335898985948329 -0.7196551172780316
Ni 5.763073628808548 5.339894167469609 12.282383585026189 -0.6185655116238573 0.22283931076086141 -1.2032297425145795
Ni 7.398116575278364 6.938643818500565 8.871362665812507 -0.3642985784813339 -1.9280445496166796 -0.30953253848404755
Ni 4.109275208681793 2.537695550981381 7.212481003455283 -0.11804783077506767 -0.11315425012819223 0.20510435537494354
Ni 2.046609280224664 8.061691412389724 6.608968208122148 -0.054425625938732076 -1.38780152515381 -0.14837707788622834
Ni 4.686705719113035 3.4969326198639474 13.48839870637528 -0.22881018363231564 1.0011294640732822 -0.7920905495306229
Ni 5.455870965087579 2.913522893509128 2.297718175106353 -0.1320999379927596 -0.17005636263187485 0.5231652430449765
Ni 1.3398714102303328 5.7684985405203655 12.084258903225347 -1.0947970662317725 -1.0538887580531848 -0.7067780042050472
Ni -0.18799636254792315 8.59316919497061 7.837512615245293 0.671164882987128 0.4896385720424406 -0.4200033282428057
Ni 3.2741477615077783 0.6565606170940201 5.393457219538802 0.48534302999088025 0.2786502470828943 0.03629883443103425
P 4.715166059952922 4.45637868869521 6.0904538745330195 0.5845187064517933 -0.6027411429970909 0.8107045650873844
Ni 5.689078560015699 8.43261179960025 9.177813838413599 -0.7691097723647334 0.19796825855079453 0.4532808593490129
P 5.838695262419513 0.7630288257417293 5.6863433867740625 -0.868156636557266 0.04116670404629685 -0.4127062803607602
Ni 8.06031019533747 4.8142502095436415 4.515838265403933 0.12406935437879923 1.7869118119976901 0.18771058537852833
P 8.731527161007689 3.155572094962539 7.288621502156273 -1.6110298438229738 -0.8131792518801221 -0.8091482763438582
P 6.098200503066225 5.15387512617544 9.386791978419792 0.16188359701309538 1.307794708311864 1.0269148005675022
P 8.798688840173591 8.107189792525523 1.7032232732117578 -1.5571829732058473 -1.5318768903408908 1.5688370125050077
Ni 3.01665073775941 5.881076817233445 6.9339985674669276 -0.48489051583449394 -1.0785006430645943 -0.2752769597352872
