# total energy = -340867.6421315005 ev
CRYSTAL
PRIMVEC
9.30945485754513 0.00000000000000 0.00000000000000

0.00000000000000 9.30945485754513 0.00000000000000

0.00000000000000 0.00000000000000 13.62532819813526

PRIMCOORD
 96 1
Ni 6.950141040720864 3.2687264550273643 11.593369395200206 -0.7834580706666054 0.6574189941559452 -0.5654339219062003
Ni 1.5362276098864076 7.9431805827501165 8.103050918845684 0.423732970488567 1.7252667854923835 -0.3928925880689427
Ni 8.445453596822528 5.626457593055041 2.558387126486462 1.7895636477982404 -1.8152201720240804 -0.12647770670997574
Ni 7.997100944870987 1.344331818381308 10.735872722019584 0.24704984656879386 -0.2048742416420085 -0.4904528404136199
Ni 1.3056510337452198 1.1402499505612531 2.57656290601077 -0.06696643871822015 -1.466029138608146 0.3130451796229964
Ni 2.2919598399641488 4.7625960456371885 12.49382640938207 0.7414516443278327 -0.24825903638554664 0.28349317699749244
Ni 7.055049286704999 2.973486405942188 0.3183228422272169 0.7902385839235487 0.7658012768167909 0.4853905953993641
Ni 9.32556014284206 9.492757950799737 6.243166149139644 -1.2790549171750099 -0.126004366617983 -0.08317158772317289
Ni 1.9368879249689512 0.929470860968105 7.403731191935043 1.0609338378254243 1.9507864712988854 -0.06732279361637439
Ni 8.75311245859231 4.8507472730064105 8.654685455030233 -0.8453152131827184 -0.9884207582573621 -0.3423081902531718
Ni 9.173490198911734 2.5656112634004464 8.326819490701824 0.6928539379247873 -0.6146386657656253 -0.516737999362394
Ni 4.270209672547574 0.9355629681801041 6.17067901039345 0.41902630904151705 2.2366018686716513 -2.007664158322536
Ni 0.5477953170307778 9.082527516197121 10.591267098936722 -0.016692373054016413 -0.5745605667978169 -0.6116523294437917
Ni 1.766431807836153 6.104637738141125 3.01901801835534 -0.2728691216247429 -0.19203646644739183 -0.7932357188786597
Ni 0.2405069715614804 0.745415492283827 0.5075663700637674 -0.9716692498306362 -1.046292947983798 -0.27264466431876266
Ni 5.3673009907206435 3.223519742586246 6.9186285362700435 -0.9012835010182219 -2.5528074483005 0.2011512842644665
Ni 4.405122291307187 7.199392383162892 2.9418854616709003 0.8657662819482186 -0.048030521045665665 0.6407870420262191
Ni 6.18732431555093 5.101804649676936 1.470676945901308 0.9959090962146074 -0.8103047585458045 1.9395432942848987
Ni 6.333268638232027 2.2852011757894672 4.828924980042403 -1.777965915658312 -1.3528507201102378 -0.8251410522276885
Ni 5.504345474626264 2.6909444531852014 2.3260203421899144 -1.0458368342829858 1.3008912963238113 0.12935759936093208
Ni 5.137962572066001 1.3537157488056586 10.451198904116588 -0.2038504283631844 1.0291758286875372 0.1993877646061405
Ni 2.8650684955037082 3.280838055704031 6.123454008154714 -0.7567378810629419 0.17433750650573202 0.7450018235729362
Ni 7.334621523385231 -0.10444463513578872 4.456382011250203 1.3826377215646832 -0.3082199903202111 1.532181308955187
Ni 4.747384396516763 8.828193211441903 1.2945588183676267 1.1277318692865803 0.05002184044408159 -0.7284341490222422
P 4.055580192454911 8.660716119840643 10.784992198307284 0.8756863692754079 -1.73003412497404 -0.8508788233134249
P 8.470914955662408 4.769140592351791 12.716818572709052 -0.028596837801086232 -1.9367143094765353 1.8426445867836199
P 6.781965740010651 4.841298176398558 9.673274795719832 0.31312256982815106 0.24660530283220755 -0.2959303743195807
P 8.657094741928866 -0.0664983664823207 2.5843027867199018 -0.5709329973475586 0.746166790415315 -0.1253050265581132
P 5.7169361841207795 6.891891782124473 14.102351245137035 -0.33143216677061627 1.9401207640549232 -0.7845209647134812
P 4.5421667752128085 2.949160800586208 12.473456391364687 -0.2294421607893597 0.6186138483632895 -1.8547305714138766
P 7.487287272421865 7.626230885103843 6.202181274444006 -1.0508312021737838 2.2601423749957528 3.0748254651149107
P 9.500577892820028 0.38277778338399693 8.431939061309603 -0.3597893777570707 -0.41699205222030766 1.1246452599414567
Ni 4.1554240950354275 5.104634723931899 7.637704788127665 0.42491464950149405 -1.9523206485552247 0.5223589450935971
Ni 0.20327753092653916 6.828550251760106 6.424247147019776 -0.2217170242309601 0.15612843969687304 -0.28456686967764544
Ni 7.533611119437311 6.80206485289376 8.995714057480654 0.6086698497767 0.6557932856270642 0.28924653454150184
Ni 3.0400583171173188 2.8905298543435882 10.496625319690656 -0.38284137448052774 1.336669482364685 0.32623262484754784
Ni 0.2979742359558422 7.594792856291311 1.5262683551562781 0.802360049777431 0.8479842753744492 0.9409450812739021
Ni 3.414503207522311 6.652946006130614 9.41209059413303 -0.9953838198387567 0.4947612379809866 0.6187465172864118
Ni 4.84942533042679 4.511948284977251 10.429030299434539 -0.9432747578483432 -1.5571660039249826 0.07608151364561092
Ni 7.219696304051293 4.356247653680361 4.484436053248001 1.106125089650082 -1.7586461322837779 -0.31155753933387637
Ni 3.0640208537366425 8.290367389541519 5.612967262124559 -1.9682545461766618 1.8199718277764527 -2.8606818823558346
Ni 7.922690472765994 6.460500956793139 4.701024242627652 1.178701418355912 -0.11978306829861952 -1.6465516908786673
Ni 5.531975936431297 1.2150886575864068 13.34392392789873 -0.48223328071730504 0.3484006763041548 0.5250750584731796
Ni 5.916354015093018 8.528037770229686 12.034857255192504 0.8243095574653287 0.41949502114781945 0.27967817412677637
Ni 0.5567249460615686 6.287028576309655 11.798525574102573 -0.2259313194226238 -0.877698000388798 0.29605995791890943
Ni 3.833270412163746 8.85467861030825 7.794613786655785 -0.26569445825317467 -1.3930509464782075 2.3552801339418665
Ni 6.959208449682489 7.307093465582846 2.540265341799913 -0.6444691188634964 1.6123665603565265 -0.1381001214402525
Ni 3.3428483340339907 0.759224206567993 12.205132768902454 -0.7799837389647599 1.2383224724526543 1.8235382049714723
Ni 5.509335342391593 4.895190610155073 12.996805080127267 -0.655628992135058 0.5464676652163426 -2.0147202938383693
Ni 7.417661860076906 6.05358468809436 11.51378379717964 -0.08974178474152286 0.12014122296898663 -0.734609938815651
Ni 2.717811539697777 2.9420856149488004 2.7263604120278173 0.7561367571438333 -0.03477288470481109 0.2411363092978363
Ni 6.524577934085604 0.807709708984762 2.6453029892055744 2.220863374890472 -0.7091063952279079 -2.214193161959148
Ni 6.741357898233848 0.2658119315609546 7.0750199291120595 0.64451205628629 0.3224232784037866 -1.1409321700269381
Ni 1.8575620607369154 1.0059610652723063 4.9910938205246485 0.6371383895300382 0.5312045684096852 -0.7683214721354832
Ni 5.400675386128675 8.062136796006419 5.21686578705075 0.2936359218584491 -1.0193693841200768 0.20039589415568068
Ni 3.4332152116422963 6.166983156843384 0.9836369926953291 0.2607959925102928 0.3662119934539628 -0.5990536668431747
P 7.687133338314261 1.0996700371488082 12.886249718869907 0.587445393180285 0.7113905632763942 -0.36039075878649546
P 3.292456255277036 1.1556291698678278 0.9699474394324248 -0.536528808836076 1.8104361203718757 0.013844619192576155
P 3.5002805239210883 6.88073905529077 6.869617980603341 0.931473394338041 -0.8751551793622863 2.1997566748188437
P 4.080185081454474 2.780454860953189 4.484844738313109 0.34742879930918874 -1.5031018750907275 -1.165421156307238
P 1.9893560121431977 5.188903908655334 10.347155506482078 1.3600958317084253 -1.0936665521717552 0.563231772048559
P 2.6499363048525977 8.163498139717063 3.3477562785972026 -1.958652247200207 1.3843032821925643 0.8606428446787242
P 1.704626337511486 4.864087721714839 1.086471092153129 0.3634714545943482 -0.6939582267325597 -0.14230104689547748
P 7.6202169773120465 3.518061582562467 2.3747720950135647 0.0012238451047720859 -0.149070247298511 0.8375206568389639
Ni 8.673060456886963 8.237545543085401 12.484125026549515 1.174072404224333 1.5982982551889184 2.6545614270115507
Ni 8.964120560773196 4.279677388064999 6.399844273189071 0.19739464543551166 -0.6564915972456693 -1.1081133237247043
Ni 8.80791721891786 2.3259952066619918 3.9920031328844567 0.1009080857709875 -0.44149209424420094 -0.3593031821492715
Ni 1.8439237094753345 5.686969049164446 7.5053755430711835 -0.41659455967157283 -2.4082780262951364 0.3542388802524867
Ni 1.526983321283848 2.4426799129504952 13.374935583682062 1.3788805685150962 0.5463375673963817 -0.2906608983905252
Ni 9.325187764650616 3.9176326914350414 10.92467870548119 0.9350407999743251 -0.5150562407845969 -0.42902327235322885
Ni 6.383511765712404 8.996014752870245 9.357548360432448 -0.24406942378423127 -0.3270461218877787 0.5505878580323034
Ni 0.6592881403850942 6.4794550067375605 9.504456211683902 -0.5806872485208451 1.2241649500053498 -0.32804756656909956
Ni 4.600695317452781 0.508084906695351 3.588557428929923 -1.908901915249958 0.3159924351767784 1.1284972866976952
Ni 3.0016661255795984 5.708315628988887 5.082233382880197 -1.3084696228917014 0.7793571611243545 0.14956518465705854
Ni 0.45083734543394033 3.3217903473079184 1.9058427551483912 -0.5714862987478674 -0.02762753190928145 -0.4785540320935049
Ni 6.744811705959477 2.9071937784106394 8.748863623427953 0.3800303873942939 -0.5463686777446332 0.6134379605893048
Ni 5.370084517701676 6.614572433502467 10.819164413990482 -0.9490504839898558 1.4255417200170613 -0.7495004827742382
Ni 4.955348306982605 4.659382120424117 5.132170229298114 -0.03798162145009588 -1.0689165989205849 1.7090127855273665
Ni 7.257995401041154 8.816007135126947 0.6317814943287162 -1.1218594696662034 0.2294233917362823 1.1642723874147756
Ni 3.719778848866862 7.626724286207504 12.69233377567623 -0.3140893046167946 -0.3333646079066388 0.21746082005776737
Ni 2.4372152629910766 8.50953988356978 1.1167901245003764 -0.03227300110109281 -0.1697894821237334 0.5465437698699168
Ni 2.6035938389275795 0.6716352702678484 9.951857437356306 0.0042194373979862814 -0.4926256796952226 -1.8947266521908404
Ni 6.538998279549214 5.1138510841701 6.9788932918276165 1.5536147962386146 1.150381488365296 0.626105014534012
Ni 8.093463111361517 6.600282420405862 0.35521900438081705 -1.835316428553323 -2.898564516334221 -1.349977769437817
Ni 3.752464344620727 3.7582175876785127 0.7549018267108244 0.021415746671614732 -0.7842437997926945 -0.7198908874379215
Ni 5.426881501351441 7.052628828460622 8.29079376257072 -0.280071295800137 -0.06243769760993118 -1.41351049988414
Ni 0.4382612029634489 8.136798623390638 4.151786891050513 0.8775817865259081 0.012483991399623662 -0.3381139496661661
Ni 4.278867465498612 4.8893628914589975 2.8226909263720743 -0.8011151216267365 -0.8812895743947984 0.8540718763294259
P 8.031154930478403 2.082683296373471 5.991970061592808 1.0851631426864343 0.036320431697589056 1.5725797673768918
P 5.081230754599739 1.2036473376543364 8.200853257991616 0.9336583178045017 1.8613943565872975 0.6335812683063992
P 5.9503893817908615 5.962352031190951 3.9412079547352654 -0.33340548844690326 1.6913161395785516 -1.146740034957967
P 1.39855939251012 7.6987887757064115 13.054222073465782 1.0564709169580642 0.5975503428247708 0.4656146983240175
P 1.111930589102052 1.9168353593597733 11.212064367563364 -0.2651303582195886 -0.5312557333625948 0.9444991171737476
P 0.8791206747576877 5.093193403999829 4.724391905086147 -0.9636260678111854 0.5814740060881985 0.8473114176771407
P 7.740941986977701 8.114763143912027 10.798099910646059 -0.8959160660587216 0.23604398237659346 -3.9328717527110526
P 2.356818811458644 3.5237868972558952 8.294499856521051 -0.27035458273300533 -0.3965006171351752 0.14220257364440025
