# total energy = -340885.09831969405 ev
CRYSTAL
PRIMVEC
9.12725672619393 0.00000000000000 0.00000000000000

0.00000000000000 9.12725672619393 0.00000000000000

0.00000000000000 0.00000000000000 13.35866281603407

PRIMCOORD
 96 1
Ni 5.310283425708552 3.1101308821289617 9.306659041498872 0.9560955637620953 0.03433708271897312 1.6150001413246318
Ni 4.598859423479535 0.12437438515843406 6.286814067223515 0.801340093153349 1.4927069050096486 0.7272200741094831
Ni 3.116264398448134 2.6003462288927404 3.4040942553355866 0.9845057394736721 0.3015572335880548 0.1787070963283374
Ni 4.92619022073323 4.597371680681879 3.2097393696974517 -0.2637285927760555 -0.32086853232215706 -0.1614339110701865
Ni 5.212995999449536 4.666848356606791 12.284786064821787 0.27532889601914523 -0.4802404186569923 -0.6861675270435473
Ni 6.334279451548254 5.779752987305213 5.082917991749657 -0.6354496889737056 1.025586825784698 0.6805609794900472
Ni 3.6207004794179345 2.9283615703784855 7.718755557260108 -1.3319000860004997 0.604372765063243 -1.234670477522364
Ni 5.6818905438912735 7.991971763881747 13.04080675468043 -0.13819139560247812 0.598702454151343 0.7267374780461098
Ni 3.1447140567321528 5.400022610902159 11.55994499564458 -1.5267071732144932 0.8255776255444749 2.0522180336735105
Ni 7.965785665191709 7.78502035164824 9.711560565677246 0.1290611511664358 0.2048351608739569 -2.498381822361768
Ni 7.72606740238405 0.11063512605835914 7.392416892780065 2.803255779027882 0.1273451969165936 2.2642126884103844
Ni 8.432562686142305 2.582529824346573 1.8688504770543601 0.45644511600960747 0.7884434396963389 -0.05320589459901805
Ni 1.0542802626656167 1.0975069491054992 2.896919084711942 0.9585957044761297 1.3544491749456093 0.519519418762273
Ni 1.5310607566605767 6.662313047546855 1.2240873921424211 1.6976402820243666 1.1334638866743512 -1.5506148330700262
Ni 8.037644555044157 4.301046173511859 4.19822671713223 -0.7906376191341803 -0.29183306432175543 0.22537184737472798
Ni 7.6724082618477185 4.129645425062841 13.308420651306966 -0.03460087790332106 0.18295250186825265 -0.7384041157507606
Ni 4.590188529873562 0.656676892726546 10.977333963374614 -0.9101905736998647 0.14302044156000532 0.07701096743841576
Ni 0.3949592037520704 0.21374756736930467 0.8223703677315483 -0.537394499270481 -0.07348444234239603 -0.9375483968875272
Ni 3.356000915768647 4.255711090837261 9.772943190602392 -0.10361211496571186 -0.6101559474039233 -1.554349360411794
Ni 9.113574669955423 5.168126406852732 1.692996540194443 -0.5260605623149004 -1.805326824169768 1.197878248394679
Ni 6.2433719775319485 2.0923505179162776 7.32578335723227 0.9792804865189909 -0.5310287049534531 2.2705409446212577
Ni 3.1811865734158036 4.47878123792145 1.0895662360137133 1.2922359346416583 0.2257487710981725 0.06592077106252518
Ni 0.6169888436035434 0.2007448778629161 5.1700294398178315 0.9337189958391081 1.6446588447313286 0.4586038142238231
Ni 6.839911203110036 1.0517246308659616 0.7397668716128357 -0.3998888168811177 -0.4964674220388159 0.14355214569375924
P 0.32143458960163296 5.837017394130344 12.936796191337034 0.19081339267356817 -0.8046958969994593 -0.4057401334555722
P 3.8793669265687503 6.383977362795121 13.35546983273862 0.37361419945530494 -0.3495473883140883 -1.2513237698083286
P 2.2865602801772185 8.682567366943573 1.8899965047452214 0.44347621455376524 0.9162884590674866 -0.4968492308582669
P 6.615417204023182 7.980599202373281 6.31792614620739 -3.984480992246912 -0.2555635404667599 -2.327062790967386
P 4.649378787804863 1.2909500218265433 0.039337562476192696 -0.1986603995218127 0.5892896454778755 -1.1010993543007166
P 3.6739397661586084 6.373024655082313 8.91577150683904 2.177347710996025 1.4346863626308066 1.261999761464936
P 4.90789919885284 1.136215643613848 4.190906657477504 -0.2245516654662778 1.2464227329622857 1.3118076861259989
P 0.2755600860721794 6.1013609947789655 4.0447628530142214 -0.3928352524684461 -2.3956639370755513 0.6224751310909087
Ni 2.89430777664808 1.806256665201305 5.72701843784497 -1.3391143443607518 0.0008106688267534425 -0.7095545385089199
Ni 1.7665804815116581 6.645902240490497 5.4809786372357365 0.897966520829847 0.2216170083179861 0.13188267977563095
Ni 6.551845863006759 0.8874276260943423 9.462702268283248 -0.4990554944809663 -0.30556352653397056 1.6572968452103134
Ni 8.404578517936079 2.5537424575747423 10.75134491968496 0.35673902096652116 0.5244577366041548 0.563845494373158
Ni 3.53568921305369 4.485973515986194 5.509633658789371 -1.0654371250124168 0.8526549413772412 -0.8635605325461514
Ni 1.6767043874716412 6.830218056784202 10.077107185592212 1.085686362179756 -0.42984551114420805 -1.9380389418252297
Ni 1.4170613238831 1.3781792115026315 12.022515264107815 -0.23294014664028917 1.077182438473803 -0.00942926373369989
Ni 3.849456907256357 7.141576155290051 1.9681851469300298 0.7487972860596265 0.3916576872205771 1.2392976918817302
Ni 5.354404583278314 8.026363266099965 8.64593968690066 -0.706335260240674 0.2084817564876087 0.06894721659367481
Ni 6.873316961634101 0.8752336115074161 5.415040598627704 0.14503387244560828 0.5348858739160143 -2.248864745199404
Ni 8.465302154947173 7.571168733555663 5.496234846354036 -0.27855588759687505 -1.6499347484182874 -0.41477113330958887
Ni 4.954420824862993 4.9269204012474175 7.375437457648285 0.7269809615154834 -0.4896252023060019 -0.31952024582437877
Ni 0.815937477401559 7.86901849254905 7.6471129833849885 -0.010117033829343867 -0.505827008876845 0.056507962389057524
Ni 6.093876644508546 2.2739007755124976 11.961239428082868 0.6840286263236736 -0.17378394799510716 0.367699890853399
Ni 0.7889354019869163 7.857737203604858 3.18169952522702 -0.6516980325117679 0.9369472729684186 0.06975222899347343
Ni 6.9495021710331075 6.581974936473409 7.717966962304787 1.311336402916535 -2.1884844443391342 0.24438489814212103
Ni 2.3040207217227198 5.284142963300651 3.1463660901455013 -0.014352669177246249 0.3841222980754804 0.7636695751857686
Ni 1.1951777201344644 1.2806544765765036 7.557783612004969 0.6714466758936048 0.3012443303333263 -1.421642384962655
Ni 1.0922496494033511 3.8899545440244645 4.665606137007031 1.586494320575455 -1.1425486225844388 -0.04594484216123055
Ni 0.016002818694055232 7.4080281521733875 11.489411383425383 0.8090060943390389 1.009608448078571 2.2681876138977324
Ni 2.3887125341120075 5.321692496242727 7.765376670365319 -2.0198378175705924 -0.10181028587028274 -1.2351589871230082
Ni 6.4591677012435476 2.5058334885876348 3.302234986332115 -0.6825587266463664 -0.2958198168836454 0.37012572668607224
Ni 4.205182599255506 7.006839595909658 6.341771103623816 -0.15096977831406902 -1.0780717830572917 -0.11806454294561602
Ni 8.047748427909221 7.182767463546637 0.2900094457223013 -1.0311805178223918 1.2352212078195115 1.2202435034637567
P 8.97276848505085 6.0803683049960835 8.777937156627207 0.2793210478976738 -0.751903435788776 -0.937595962296011
P 8.211418390164283 1.813339416188921 8.716380201104299 1.4436489711407332 1.044825362299336 -1.7003371121302395
P 1.6143469715600542 3.505094649509246 10.890716299879157 0.8984185207656012 -0.18470959376867543 1.0843074795543584
P 4.28611398199673 6.418624428193304 4.154289930142301 -0.9888578457947809 -0.6587343705332591 0.5508976759632382
P 6.7389911287929385 3.9360563162389592 10.798795700399415 -0.048627274089400124 2.0140695476282473 -0.2306251253538673
P 6.418204574397646 8.329141743564113 10.898170530203366 -2.1290749920325656 -0.06517772224891355 1.2858997080109853
P 2.475028998145362 8.651607713142036 6.281750265357627 -0.8932223212766424 0.33009313624421865 1.073141692745526
P 7.003206947851576 4.3907853587054655 2.3242467219657055 -0.8751343534266799 0.14319296258212758 -1.619729685589817
Ni 2.5097216998256813 1.8365135202579372 0.8225638655678078 0.8404473435674558 -0.7815911926611958 0.3732128502518282
Ni 0.7498205445675507 3.3688429655619143 8.975311338691506 -0.294031614634971 0.8375376261198284 -1.426002975924196
Ni 0.63884771002138 0.46520348194252187 9.566979347514323 -1.3455140772395084 -1.5058295584345356 1.548938730919184
Ni 2.4703649701109915 1.822037691564176 9.682451919479172 1.3851136939090016 1.0817605447627887 1.122652912101776
Ni 5.37301505913366 3.3745383735725745 0.958851145815206 -0.07272750957171345 -1.6609622098770427 0.3647073838839784
Ni 4.283750022582049 7.4177943165506415 10.956333971786588 -0.24730130045796767 -0.5016386818271102 -0.16050754260117517
Ni 6.79879291290487 6.261361799950236 11.61181701937244 0.595523027982097 -0.19224421158282376 -0.005266647715578027
Ni 7.563949073721638 4.084885359543165 8.292843557478225 -0.03822793313294707 0.45026958332651484 1.512066026262551
Ni 3.0730012029825424 8.501674271810122 13.025470225705572 0.08068764495905457 0.40680534149529296 0.731744701452714
Ni 9.0082735125532 5.086282298468773 10.83073562154125 -0.20256307701032855 -0.876319889094349 -0.12623088080649228
Ni 8.551463455621262 2.607200798469673 6.514124737643848 0.2899677289782425 -0.4701120719737388 -0.765585818371875
Ni 3.620983424367182 2.9214431100065616 12.031479142645106 -0.39278871550122674 -0.5900110970249323 0.012629515838552442
Ni 1.4755487830694947 3.92201859585371 13.08778839441452 -1.7903671175361422 -0.18399791241363153 -0.7381899428574255
Ni 2.947090700567387 8.859344069428296 8.857928431956415 0.5069184421688109 -1.4323492298571978 -0.5466093330005295
Ni 5.66996121974074 8.192150751846167 4.069769710173848 0.3416846977365599 -0.6931686409517288 -0.14654182444970246
Ni 3.148036378071705 8.851312083772235 4.1612229941245085 -0.3260742448928126 -0.42897802093759024 -0.7427364245775273
Ni 5.100183110007612 2.803473320683192 5.655991041053054 -0.7315678095552175 0.20615927900201916 -2.550905860402413
Ni 5.742477272055956 5.450843174689588 9.47332183113646 -0.3627890838153429 1.1731221244959216 1.4711101526754793
Ni 7.790834413992455 0.47674763587182145 3.039523339132702 -0.01822192232466539 -1.7235495456909606 -0.21604259955400215
Ni 4.634309687443324 0.6468824338543674 2.151840149858394 -0.23369682230065558 -0.607103790841161 -0.8488450807128478
Ni 5.85278016598036 5.684427921178075 0.91387385159256 0.29233802898263206 1.8424293854490206 0.8012457336673298
Ni 7.976637973083816 0.46512590026288947 11.898641052601599 0.14625951732259326 -0.8198497219217622 0.012781468035384439
Ni 9.050468819016794 5.006473568268112 6.485696984775255 -0.21614415812887292 1.583575604266763 0.6306340127526171
Ni 7.450898875612604 6.531136118173124 2.9729701234414674 0.09824082335146951 0.16057079173894284 -0.05628684751718693
P 8.701990168620954 2.045135220417648 4.209528086040563 -0.5495568456646277 0.2997245512546903 1.2440418914349352
P 1.4684477775690243 3.2567785111470338 2.191956267307839 0.41504906956132387 1.2118241690518097 -0.27080966799255296
P 4.563491304823593 1.2492384599535993 8.555154518120478 -0.539120223712336 -1.9607574664686682 0.2739916652649604
P 8.755229455361627 2.2538481931416317 13.02389394852057 -0.41748030471063585 -1.5709890258510042 0.6099898541397042
P 6.451053570279643 8.156673106113098 1.8947262490258692 -0.028598894683615265 0.09681128999379457 -0.8438090609508371
P 1.5461663660478244 3.5191232426380674 6.83958170915301 1.0190492817764965 -1.1964440870513138 -0.8481488259767717
P 6.818735968198608 4.0088005499648585 6.2705693762341355 -0.15648402326407887 0.8992682703604061 -0.23608486291685793
P 2.0995975595195855 8.751158698995035 11.058087364615504 0.47027533702448043 -0.7027637408393316 -0.7868784092020642
