# total energy = -340886.5338546172 ev
CRYSTAL
PRIMVEC
9.14528631617303 0.00000000000000 0.00000000000000
0.00000000000000 9.14528631617303 0.00000000000000
0.00000000000000 0.00000000000000 13.38505094342968
PRIMCOORD
 96 1
Ni 6.6560397664177 2.30311225114153 11.593474519989165 0.39662891518292337 0.2759873555387505 -0.9906519615807261
Ni 4.953141782317696 0.721615195424396 5.840071740555034 -0.6492714253481463 -0.42419834016075975 0.04205990528452756
Ni 2.8964126819489073 2.091792126984827 4.958505492570775 0.7411464543825881 -1.1352981116696124 -0.4225201811273885
Ni 3.441700361130254 4.714833919104152 5.006543850997674 0.5393063715812131 -0.7538361340351146 -0.5211662103370766
Ni 3.351344935213077 2.915069065437879 2.4825784295480173 1.3256667034962784 1.0140227750961828 1.2202082793504472
Ni 4.970398937044995 4.962607153352542 2.595575754603429 0.1683643196414326 -0.4511435012910359 0.25481637788809014
Ni 5.240358635187623 3.3787990838571424 0.1445174678657496 1.349301826416715 0.15259342996042108 1.3634876309987938
Ni 6.02196050522928 7.81954878082184 12.100420587514868 -0.29382592638206817 0.4088861352837216 0.9847160557122653
Ni 2.458179720964572 5.456324564644521 11.60435649582913 1.0995479506531969 0.1741899251842742 0.5429802208883745
Ni 0.5577856270617534 0.10594448047369782 0.4739059781781744 0.3251039105597433 0.8847824180394054 0.592132000022677
Ni 7.77443508486542 0.0568736192546898 7.0832746064295655 0.9746530150493086 1.8072494951137779 1.2415538349057584
Ni 8.583353924260782 2.740229487230936 1.0308026834383943 1.238321701121706 0.31811128129199406 0.8921609698916635
Ni 1.0739766642291235 0.16790287875773485 4.3136668023751135 0.9508646543804593 0.9002434897894819 0.9696938712718203
Ni 2.1095065460133267 7.061587475152238 0.5960037773560737 0.7799132907381406 0.05478635171226049 -0.07288306131297126
Ni 7.833220983427729 4.418791865221061 3.94668933744682 0.3335168172137869 -0.915977612695287 -0.11782440191035191
Ni 7.62131556096549 4.180922975736669 12.84030532082942 0.3066845275122912 0.5831367385026022 -0.4310924961774318
Ni 8.839915778378241 7.5800886115692725 9.759763279130386 0.5055745265464067 -1.0322243857058737 -0.8128226398716517
Ni 7.228964499963593 0.9651751964015263 0.3956991502152862 -1.2084812207215057 -1.2531988753438548 -0.33696389522212294
Ni 2.2426893463809234 6.767484221906235 9.782410665440233 -1.8630504041334817 0.10307218330184185 -2.7853752992030354
Ni 9.180769733778964 5.240889061777015 1.5085085279595432 -0.7202323299377402 0.8047159516041174 -0.5836635575403496
Ni 6.135810170942129 2.3781218871104253 7.041580332917521 1.5344119980579187 0.9690827200503827 0.31355065850450514
Ni 3.3554786044959277 4.627642762151281 0.5656752653146632 -0.549611353051647 0.41052032845303493 -0.5850578667847149
Ni 6.191322057107844 6.307878727483799 4.960673839887067 0.7089397877430565 -2.187697943882097 -1.2591093272910185
Ni 5.168741900333634 3.2184822198563205 9.4181228291316 0.6202058754407577 -0.45153816562629334 0.1514225495807715
P 0.38947578307595027 5.883766088120528 12.073663309665834 0.22947687068203704 0.7847631626312742 1.8804786269122584
P 4.162632403688657 6.562748703686816 12.867718315686378 -1.6963089648074525 0.5918558635431549 0.4938454110349366
P 2.6733591558234053 9.077757232004561 1.8947212729821283 -1.4351018529016701 -0.2217404212697278 -1.760680646215303
P 6.583764570969982 8.185726033223034 5.7226846782081 -1.088733376536196 0.3953001690691708 1.693502091486277
P 5.173616337784429 1.3392448306414362 12.835554344739949 -0.5807003611469677 -1.4832187630135552 -0.47758395487075167
P 4.2625172176428485 6.522317394174687 8.28779565600836 -0.8849261427061211 -0.7116679853074969 -0.06636711457132441
P 4.794315599938787 1.563340919373675 3.6215396672065214 0.4659039474296621 1.449979027123819 2.3187018205972003
P 9.28959863746463 6.008882746214953 3.775560916308418 0.6347580622233197 0.6550826327132847 -0.5224743876255389
Ni 0.7107277324128171 7.7094852635229305 2.571308738138729 0.1252155521681005 -0.2684727923292602 -0.8988628073918713
Ni 2.0106551493798475 6.820892692286429 4.882384704349963 0.010659022375742934 0.48957249469119557 -0.4706419763352798
Ni 6.2595733267049996 6.001136688952619 9.2341187598 -1.2014937336600793 -0.8316037771338969 -0.7757876986055413
Ni 9.000507000959784 2.511286396905974 10.345011285593625 -0.8015871761671486 0.7012226216044569 -0.17421460777462253
Ni 2.547437712558869 5.5392723088822535 7.033322139637843 -1.0518159346845564 0.4965913492111899 0.669063520373409
Ni 0.8183339113570768 0.49419845333684087 9.427707088884759 -0.7338748604218394 -1.3485631484784775 0.45493279313013907
Ni 1.833392070376543 1.3301452710475503 11.798560302663304 -1.4987595389616317 0.52697510370937 -1.5154174592332867
Ni 4.562564906804456 7.508682218293835 1.9175021804679266 -0.6920342702369695 -0.2988570610480724 -0.4033076127546796
Ni 5.670626052045049 8.247813380040009 7.96889678876547 0.027301773138746526 0.3909467771964816 0.5353018784075104
Ni 7.30758652391197 1.117178995406527 4.91642254440271 -0.964608486329113 0.8509947800659989 0.42654035803037504
Ni 0.6535285409756727 7.980048550543143 6.662823739590308 0.19253937422573936 -0.4897756118409371 0.3037951217796381
Ni 4.979096104053825 4.799180892103558 6.983128237295087 0.9620448393669947 0.3514695450374657 0.07926299669738607
Ni 1.162704229234028 8.002911765603157 11.999095391011897 -0.38290899449366955 -0.8147093153714032 -1.9642333408324106
Ni 4.876312234430023 0.46481007669869817 10.607759925706324 0.04574661010749541 0.2673435638208234 -0.11312082578709551
Ni 8.333193770360127 8.095352316733809 4.551948144259187 0.13470600815703898 -2.180991221285882 0.07272750957171345
Ni 7.745920083042569 6.8661892939633296 7.463317026971754 -0.7693591693713783 -1.0665465560265117 -0.7841370990115012
Ni 2.3119374521546954 5.645622840055418 2.550441024489152 0.12889917166727477 0.5636081815513713 0.8123708970462138
Ni 3.1955366972220896 4.563159350396016 9.152844602904661 0.8675922794133638 0.22911974445293445 0.6113090871717601
Ni 1.4415257095339173 3.769924676531823 3.916907713509645 -1.5385609872292858 0.17794296446880323 0.2893604344115468
Ni 1.2951736972917522 1.7264379503257947 2.481682191517665 0.5137704320936377 -0.8157285006645371 -0.7048910715949795
Ni 1.1907711120417017 3.4590398234317696 8.330922081311764 1.4734735107013333 -0.5759278794589888 -0.6030985263365097
Ni 5.745279021859008 3.5451701272058562 4.758171600514712 -1.0424113535412047 -0.8694691847211026 0.17302367279031494
Ni 4.386957124571496 7.255979674878506 5.966078234979593 -1.459212629906945 0.8261106152298096 0.9739408194736324
Ni 8.052067677982189 7.402231088974407 -0.06779949246756956 0.7677365461662906 -0.2649184993190986 1.2222487068192434
P 0.5183859058131315 6.22562602498389 8.088251002136166 1.2045883134250028 -0.34302809913833177 0.3491799776723406
P -0.38344903958613047 1.876384059975394 8.129236515981352 -1.399348606561461 -0.05627244933948373 -0.38585573582681937
P 1.869854325754254 3.4329940488354005 10.556227153489655 1.6984278109226685 -0.6005760170249722 -0.23435913847500284
P 3.97495284390401 6.488424964169721 3.8643707888875385 0.5052575095266202 0.39265167570273024 -0.10411939361943359
P 6.97643571698272 4.2049293515496835 10.243056893412202 0.5773021340986961 -0.6572696130622745 0.6673061713626701
P 6.728744790308546 7.8961405512728895 10.01468172534933 -0.2883013970194132 1.6034947117881932 0.4245336120129914
P 2.5471724992641733 8.796640284912646 6.029804417052071 0.16354967186160865 0.27100687160502357 -1.9934133048304763
P 6.960056509713725 4.286679063318272 1.6246911561371153 0.059830341894071146 -0.004196297469534708 -0.0796949420284821
Ni 2.8978393465686523 1.9923462867597879 0.39259249655293144 -0.796963304241892 0.07233798744277864 0.3061181134858599
Ni 1.5171480796664216 1.2228985018440344 7.227860663940495 -0.024159885075655165 0.6324348134067818 -1.5269609410965121
Ni 7.078350784434241 1.0554117336003916 9.42734585008681 -0.5167513690988327 -0.4259425765453761 -0.9447649692406246
Ni 2.7300965103163373 1.733269478985727 9.304296941162413 1.8033216208142813 0.5176306863799923 1.4901818245949496
Ni 6.643977134152037 2.3608098606669827 2.6360921152755816 0.15042110489945063 0.3436706178183372 0.15403119084821212
Ni 4.229493589810164 7.18818566958255 10.762785327213658 0.9382863034948165 0.17891432724313702 -0.6723455335587903
Ni 7.608969424833083 6.071317613900839 11.316511361809354 -1.3840942515055519 0.05037819534223582 -0.3209202114956989
Ni 8.264494381747795 4.230069742829675 8.035768949230205 -2.4627951835064104 0.579605328310576 -0.3773029611608018
Ni 3.263550189382621 8.920010193376484 12.705544958622683 1.9029351561435617 -0.6111481361138636 0.3689124231042614
Ni 0.3694869314132807 4.981400716131874 10.042830001202619 -0.41748570402727453 0.671083121906599 0.16478920069566458
Ni 8.81961324340495 2.7805876344548732 5.853188824299266 -0.26344088633230756 0.3015592904705839 0.7680242526100386
Ni 3.9760594235129143 2.7108548285218292 11.715091277122202 -1.0953429114329134 0.7640871223391615 -1.7923491809631777
Ni 1.2367719007424511 3.793464642757614 12.617591999344013 -1.375266883021909 -0.9933932717712892 1.1926038873696172
Ni 3.163583067854213 8.736638063309144 8.07509367913343 1.0715509512196382 -0.8033501816048423 -0.05916442617529811
Ni 5.932226958761736 8.713902882253466 3.760436442281917 -0.3122959601617976 -0.48848183273017803 -1.7115813175854913
Ni 3.501053267426052 8.913498749727394 3.8783850251907253 -0.2609320038675248 -0.7389227072583919 0.704367852101658
Ni 3.659156972209065 2.7587486914295476 7.366342243030401 -0.3594790456055035 0.7555361474453569 -1.0678701599339415
Ni 4.963741168819519 5.0613762424118045 11.470493286181346 1.0190634228438835 -1.4354237550174633 -0.11218854378081322
Ni 8.197313110615449 0.38552044687056775 2.6555541984632685 -0.14624460492425784 -0.9282646575927561 -1.5654812086588974
Ni 4.729137146445698 1.038675860176461 1.5682592541973852 0.4403829203404222 -1.5891060471666891 -0.38782520084836436
Ni 5.907644429929208 5.8344364153070405 0.40328059232918706 0.8400575643282048 0.6106855946551483 0.06657434548612405
Ni 8.075964310362917 9.030905931703579 11.455421854813787 0.32239216805553506 0.8981081886140339 0.4580679963250111
Ni 0.3280158028802216 5.264200395852206 5.840566500528932 -0.5901396521829965 0.06513864148086201 0.7656179571613911
Ni 7.261165052054117 6.307458044326694 2.515639553053401 -0.18222950765929907 1.0380466488146058 0.5276515609511041
P 8.799072930995031 2.0517174836276335 3.7506784220943032 -0.15571809163233183 1.4872895906488193 0.6467350320795378
P 1.492501533831726 3.799381642815146 1.639266913002176 1.4671632522125895 -1.4759911349168646 -1.2115297777398424
P 4.8368777610945095 1.2139544121125565 8.35434590240505 0.3556295899524262 -0.004030718425947897 0.15919782265081617
P 8.787229785593944 1.8351296747211039 12.367732725353546 0.214484768148579 -0.3261143541021287 1.3585151174848669
P 6.607743510924926 8.197358837045568 1.57658512259364 0.7099517739473385 0.33303576381231037 -0.8042544385866665
P 1.7555473957402052 3.455555469456623 6.1481553925459345 1.1592093710695712 0.6003484743951983 0.5416005669320285
P 7.15567417776721 4.608437661500869 6.122817463087824 -0.5272898067363112 -0.3158541098267012 0.3552238698735753
P 2.8108493859083086 8.73783609577829 10.217932963647055 -1.4166325904528894 1.8673683147825455 2.4575089954068066
