# total energy = -340856.23129251116 ev
CRYSTAL
PRIMVEC
9.37055456481166 0.00000000000000 0.00000000000000

0.00000000000000 9.37055456481166 0.00000000000000

0.00000000000000 0.00000000000000 13.71475379577504

PRIMCOORD
 96 1
Ni 8.893874530107379 5.662822953556438 12.668030335099822 -1.7401488448105384 -0.34872206419931556 0.9187253506437532
Ni 7.757507368321194 5.866098395468103 1.2085251178291843 1.1367325301232938 -0.08829759609582857 0.9250952587258391
Ni 5.401065880105993 9.116556390688618 5.154772095930553 2.9751682210318893 -0.4555858533331057 0.8853372621016108
Ni 5.99920712419881 4.177112144053993 2.741483200906644 0.9956345023969821 0.7987396794160244 -0.02385598068199117
Ni 5.295928256990293 2.4729081118965768 12.39022431270907 -0.5808628548667608 -0.7822915611623301 -0.5541940873263229
Ni 0.7630555093992182 0.12077051942977561 12.080531229917211 0.5063970224477021 1.5033240184038628 0.6672074410012767
Ni 8.322233214550321 9.10669856720219 10.532876368934701 1.0733748918022548 -0.0118278458728635 1.0520517048444462
Ni 3.874237076821758 7.15567412569829 3.7956537314587564 0.8761489107341233 -0.04398797554517586 -0.10633028522782333
Ni 2.824322652189357 6.59168855328611 8.806942957611241 0.6141033620874456 2.244478957426883 -0.6165284265891704
Ni 8.864188612992358 7.655340211027925 5.247964135984944 -0.48531989006242865 0.07289823082162283 -0.725776399684421
Ni 1.4895152546882708 0.7580160251111947 0.7724007635465701 0.00275236593415655 -1.5370782320361722 -1.4771558446489268
Ni 1.4909864317675192 2.143383187254266 9.05553627589654 0.8752742214386539 0.10322593527088675 0.00946191674384822
Ni 2.3515781703545007 5.062329700247753 6.095974967905691 -0.5889181210710696 1.3578124349908873 0.03624149883053758
Ni 9.048226306218057 6.850315861485159 9.650605852176758 -0.19489630449369016 0.9353760718265567 -1.8660246562704574
Ni 5.910889646670691 4.207304071119839 10.942001344118985 0.22764290279709182 0.08635615609874159 -0.5574277637722723
Ni 0.6873536095895204 7.272609277111911 11.592395612078116 1.786721036143123 -0.7232199518111545 1.7914428670988243
Ni 5.158771448652993 8.628444199236137 7.491643180769894 -0.9839292981449118 -2.39484581204963 -2.0247270273420934
Ni 1.9152195522057642 0.12250407203908083 3.3452748894503306 1.670512058349007 1.4920543590273143 2.0839994398501656
Ni 5.367556776695856 6.3188273725814685 10.796130857017397 -0.46066943850360015 0.9800340768555639 -0.021405205148653458
Ni 4.511631574322031 8.830042311866366 9.580839261679136 0.6701806646969877 0.15208743685828002 -0.33390556801177335
Ni 8.427230279346348 7.710176696809839 2.2846311797495265 0.22595471646139148 1.9333266239512252 0.1394833749410243
Ni 2.4810417533283435 2.3872799835515432 4.661549203974747 3.570364461802187 -0.8728478713853484 1.47725791744443
Ni 8.64443973601497 2.3890416478247833 9.869260248371623 -0.2503668267571688 -2.0857781290171435 -0.1496549161573874
Ni 5.0513755218678735 5.20635512513976 5.577489060627254 0.12070069501688245 -0.9075323101414112 -2.0969254038832146
P 3.2069223983403417 2.0840582057974477 11.13193686443818 -1.073393403745016 -0.6123015329920165 0.7640742668233551
P 0.5119967981868491 2.0859229461717814 4.292937821797659 -2.5719125445610675 -1.1606533026049495 1.1402256308782168
P 7.912486971593081 3.8925471405978795 1.4069278713255058 0.3802707855398741 -1.8133029003967092 -0.11267396805766403
P 5.58239548303932 6.334213823308382 1.0753667251588601 -2.417942545968094 -0.6403139590445424 2.0568321354067547
P 3.291585359556951 7.563771151038029 6.572919332332388 0.3985662414149523 -1.3821810936432388 0.8837426639209812
P 7.277847417158407 8.75802022886572 4.255262569792402 0.5782688688873396 -0.7536960089128245 -0.5201825062675687
P 0.6803706722681461 8.046720166881174 0.1907254580757605 -0.9835526315317836 0.27970388515838923 -1.4878369785118568
P 3.637546237046404 4.7535137013706565 3.8254839551153084 -0.4315434676719213 0.44586399805965143 1.1422537170518392
Ni 3.6199108532047153 4.956348727214012 1.620892304920601 -0.22217570903493347 2.3649220279070042 -0.569989916707999
Ni 6.645250643636318 6.653712254480657 8.894484553214761 0.5730433588223421 0.2112474921582039 0.126694193596156
Ni 6.609764353196108 7.089077593837034 6.126421774057878 0.22002883789525976 -0.17333066250777246 -0.4999006160900811
Ni 3.60456188469638 3.7073474985962123 7.109399515695414 1.38401069065281 -0.9691418554230922 2.4916938688186314
Ni 8.642106467908391 1.8103443046201206 0.9149793748014053 0.36825756312908187 2.210219522023381 -2.8511104366173154
Ni 5.531682041301159 2.1155338988496437 4.391847774296362 -0.9519727998429733 1.501819408833878 2.189720116518448
Ni 6.461765813134667 2.3931646918685363 0.940795252848086 -2.3905114463403345 -0.09967267070198964 -0.23859760203638267
Ni 8.17197637081946 3.193588099080659 3.523539383959312 0.32346971739043 0.18650910887125943 -0.26487710455820185
Ni 6.949643740721025 9.205398619276849 8.817379881374723 -1.1470652795078695 -1.4689972200975348 0.0805097246202936
Ni 1.7462778225129865 6.647883769491533 4.509767771003162 -0.8836236218446137 0.8734201989490508 -1.1218921226763516
Ni 7.4275607687198635 0.6518307739861952 12.620206772414145 1.0094927484363132 0.6863765577305598 -0.6353116207339445
Ni 7.972655302967939 3.6204824570380536 11.675438404396624 -0.8719019625323112 1.2726379579050726 1.367928954599599
Ni 2.5110181576373565 2.4552539869455976 13.336226782773322 0.6443567616553483 0.9445417974862248 -0.3475822941679175
Ni 4.280647402325417 8.728868433365458 0.7368976061079993 0.47185039482108415 -0.10222166237608847 0.33306841682245864
Ni 2.5977894936490666 6.929187819931224 -0.035008392153320585 -0.023681659887655988 -0.4780369832477703 -0.6005654755020108
Ni 1.3495660210667928 4.222221994114508 4.188184391422398 -0.025911834769755376 1.4366977366338807 -1.2324960955788646
Ni 6.282385285567479 4.662010235263275 13.58623318069907 -0.7681427804657738 -0.7980578228576513 -1.3581261095765642
Ni 1.8529615871450944 4.945169655522655 9.796325473348562 -0.6487206950509989 -1.234356545826371 0.8547956418693278
Ni 9.353444012111515 0.5152886740336 2.3197135992845417 -1.679673927353933 -1.7375756847667236 3.9783663947087415
Ni 6.689929448183169 3.408042612683682 8.651280240905741 -0.19126333572679316 -0.1764401546710316 0.2333623217793723
Ni 4.133838922703877 2.9542360217861545 2.6458229567587885 -1.1128778349928834 -1.9282651502679178 -0.13687550500453202
Ni 5.357117978821445 1.32131379881244 8.03942425303466 -0.6430814944873505 2.2196989222687256 -1.2033367004060889
Ni 4.619702181041584 2.6790415729749344 9.755537323090271 0.07199063140568893 -0.06269557925700815 -0.25090778686230336
Ni 1.309553752733099 3.1654576940366903 11.309131241606714 -0.1225007243400987 0.5096474110641998 0.011998052902140626
P 6.839624058635336 0.2096820901223792 0.7967239122383191 -0.7418195691902127 0.8150214472951834 2.928514782839408
P 4.132142852313151 1.966748232198031 6.164740783167239 0.788615446497829 -1.8995379575365543 -0.28415112229646544
P 7.527019835720758 6.56233060558366 11.288943318679756 -0.7848649783164612 0.49300080364645416 -0.8262360850640803
P 7.8047349637314545 1.5372676011586461 8.05560720090639 0.138369058830923 2.1876922874551417 -1.9783890635075025
P 1.3603609000177095 8.660725759987793 5.7152118504651055 -1.7913873312705404 1.5596368340629785 -0.7064776993558091
P 0.7381317081547316 4.858782512251385 7.882060780661113 -0.267642583118481 -0.08708712072749517 -0.03629986287229877
P 9.137977478606844 2.091657725614456 12.2747865759277 0.5880105216551358 -2.058137484481739 1.5592964200044244
P 3.332768947221256 1.2218828434754796 1.5668832391138305 0.6434831008011433 -0.6361076342726787 0.43571508255110764
Ni 2.759918830115007 0.043332255844379115 8.517259757208087 -1.4602714101887624 -0.8693293167091286 0.5183927613569975
Ni -0.05372513800103004 -0.04620995317582578 8.236752203913213 1.9498253929371967 -0.7709915627684787 1.525843025441985
Ni 3.751604628184043 5.024828740558892 12.307921794207509 0.06305887613369784 -0.509324223396826 0.33081870155633347
Ni 1.566391284994974 2.6145159336902006 2.5680464161507115 0.10420012625869797 -0.6303499058532951 -3.3928141047861113
Ni 4.796505806081426 6.236984948312972 7.486486564548809 -0.38562845030736165 -0.20029562113239055 0.7893379264861503
Ni 6.838612038733687 7.605085926467363 0.2084386175210019 0.7302120668582714 2.079194305152038 -2.670611538495878
Ni 3.3003936809231504 -0.08730264646007546 5.334038302731074 -0.16724460421469262 0.8543302721971351 -1.0056065260080294
Ni 3.2634081017397576 0.2751054285420938 12.322911870472945 0.2620545475077422 0.657060839485578 0.5129178542853554
Ni 8.646351329162528 4.610893859675384 9.704600862151562 0.1844324288478888 0.5537675413118657 -0.7865135696634777
Ni 2.021790870182133 1.1799121292210033 6.786731962942237 -1.1583171982726053 1.3421114793158628 -0.33641136515276254
Ni 8.61460389002563 0.5658587462856945 6.186094403092022 0.02987724717540661 0.538784180529156 -2.003131817669821
Ni 1.0458476039165179 6.949409476854903 6.90269070256186 -0.14698174020059848 -0.9418174565765265 1.8065650674522435
Ni 0.2836532484891653 2.9425603106986182 6.918201781665552 1.494739104948329 0.03798547810483781 0.9014035715358542
Ni 5.834678925743777 8.69319473183235 11.271936699054741 1.221830388334902 -1.0367346148714016 2.066106361619829
Ni 6.919779783067751 1.171787858343881 3.048721198381541 1.3365406700963047 -1.4954842106444697 -1.7711036413208403
Ni 3.588688165127931 7.735411600468535 11.243711651408859 -1.8507047380839352 -1.774150912787596 0.7784721874162399
Ni 6.49869516899019 6.597507667720588 3.406100096705796 -0.29100414066255686 0.7239041223623726 -0.08507780360695025
Ni 9.101254274953508 5.078250272589426 5.550072691847226 -0.09019301334632855 -0.5994822697401612 2.5371257758991854
Ni 1.6423115187278976 7.880467786371481 1.99498920978681 0.5734495931218253 -1.250072413899731 0.2072136884084625
Ni 4.647626433883365 0.30877195727026574 3.1418991826039644 -1.3387356208650945 -0.03318188606860737 -1.7605868009499164
Ni 8.900105948946232 5.721857447819263 3.543371225809764 -0.2525854316750424 0.6312400217677322 -2.8990293717857814
Ni 7.676836263383309 5.0243414717173565 7.361627672127466 0.12008465869943835 0.680378431165596 -0.020702265544357897
Ni 0.528920019875526 4.215700088081663 0.5709132234611499 1.0076850058036129 -0.22216182507786253 0.416490944214173
Ni 7.717935516055809 2.8269745191538616 5.916284274979757 -2.0131200392307846 0.5957850233942321 -0.5782493285033138
P 4.349745872276858 3.412100062844921 0.3511099972668217 0.8409685061782486 0.06944883882044169 0.2996744147430451
P 4.415039897042473 4.808322075488636 9.047843050533082 -0.12029008984202509 0.14863290265077628 0.8884578100084634
P 1.367941678725428 8.516831522860816 10.053408514142133 0.36310275840101985 0.8260429952166677 -1.2052323747669051
P 6.977652328554611 4.831945243748412 4.597789139004501 1.0947947522389274 -0.48284006106336846 1.437858332600885
P 1.6001065406072992 5.792239683757056 2.2927779399577966 -0.7222365048519626 -0.8623852812911277 0.23481088130044078
P 6.412917111770839 1.3032567400117312 10.825069003871757 0.11170851882060116 0.5945982021749825 -1.1945345287334268
P 1.583726811088026 5.23971429967558 12.251526985188148 0.64784729130711 -0.009610012285938288 -0.035652201985970855
P 8.220356544451043 7.450481145381271 7.566045384650344 -0.016571274095119846 0.020702008434041765 -0.25360204586501484
