# total energy = -381173.2142201799 ev
CRYSTAL
PRIMVEC
9.19117403641281 0.00000000000000 0.00000000000000

0.00000000000000 9.19117403641281 0.00000000000000

0.00000000000000 0.00000000000000 13.45221226039749

PRIMCOORD
 96 1
Ni 7.416192984377694 8.256606375570636 0.11782809531235884 -0.6315205291226285 -0.1401822007802618 0.026299557126477288
Ni 1.2340897625915668 0.44132893292162917 6.961748245937157 0.23332915454859168 -0.3821402346484451 0.27899786023030015
Ni 7.6625807899455625 7.380862110926622 4.627494238481109 -1.104857278681252 0.44075984406386676 0.537604558398758
Ni 2.3056519926037096 2.680909250996105 3.0958926023204 0.6216595771681487 0.033344636898716765 -0.10461175987481985
Ni 0.2988666526395609 6.165026020206499 0.8808472045347616 -1.3489418719741346 -0.5552382123201212 0.28229735691717833
Ni 7.330503667732444 2.5195857622309603 0.5630908507722447 -0.1957087730926565 0.04591656002645641 1.2459049127856026
Ni 5.301974767070272 5.595687928361233 10.057425774782335 -0.9820130549588056 0.744947316185917 0.7693861659545718
Ni 4.671239631870905 2.635357791884889 3.1897887183684763 2.284505634331466 0.952028078560941 -0.6697826579276207
Ni 6.019814659734728 2.3254405905590056 5.919377185040676 -0.4847362496448168 1.554339075999149 1.1157728971524912
Ni 5.089824085229052 6.889658190571357 5.006939914935849 -0.9704757437431674 -0.26405332310532587 0.7820789309308918
Ni 7.477066130804971 4.219530186858839 9.596054567498738 0.26979871022953533 -0.28104882922205787 -0.23582415305630355
Ni 8.072350907289252 0.8748021692931461 2.3198201875633426 -0.02063413131058382 -1.5376086506183455 -1.699904138357879
Ni 7.9948233532934685 7.60720396566286 2.2331749888059917 2.0824850600881684 0.5216961146986177 0.9847947314690007
Ni 2.8142548056340213 6.165568299481633 4.77335633408304 -0.6957016917862276 0.697097800802806 2.1127580000400967
Ni 1.4990621223004517 3.6068649000478206 9.766333017242909 1.0690001597733267 -0.6691159708778992 -0.49614500570239073
Ni 3.4854402982886863 7.868775590934467 3.074960622300246 0.78724993360887 0.045609313198682735 -1.3468461657873707
Ni 1.3727294335426516 6.895954144867398 2.856510309693324 -0.42972389796467925 0.04950890536340506 -0.3395159722200153
Ni 6.220954314938489 8.000806807668248 6.768345721136911 -0.7136230521513387 0.22926346911965034 0.23938770203784576
Ni 3.529144331394786 5.126956428814467 2.873540636284763 -0.33496152008011343 -0.4158332560255162 -0.987710362453899
Ni 2.967830134586665 1.9823708240567393 5.657031662905235 1.0988270133267721 0.8103135002965528 -0.1798286115272903
Ni 7.4034448258249785 6.032241127192025 8.093860093046327 -0.24447051587739188 1.262893219813483 -0.3993290877229058
Ni 3.340633349479727 3.5190983780435836 0.5602360720797621 -3.2640357749674176 -0.7655225692341074 1.4101986619020874
Ni 4.541524591024137 0.6452470800723883 6.402486438317805 1.887102302876363 0.20015575312041659 1.9138975686923358
Ni 6.415899118761912 8.58610996902041 10.735807037682797 0.2443401609471147 -0.457071950960329 -0.49817437742759363
P 1.9201833397253258 1.3620217156523031 13.38406372337654 1.8075320593512034 -0.4732663013320043 -1.025674243292182
Ni 2.085348739287179 9.00221280535676 11.063731587412775 -0.732990400934357 -0.7153518619169873 0.05300869098654742
P 8.422764421941208 6.592332897837557 12.502526261662751 -0.36755565196605083 -0.0830314626008828 0.27862633582349433
Ni 3.494842869449052 7.1389595983462995 11.865079731095546 1.6341970259680563 -0.6874533357345063 -0.9204091661040794
P 5.872186020460243 7.407332692492462 8.853667806019041 0.5641925932999315 -0.5900476066898225 0.4690944293425018
P 7.113095634274676 3.767802359498463 2.5115149922056257 0.021053478236189548 -0.2507815456970842 0.13136717359179312
P 4.852949144911409 2.4455968102847767 7.840191958430437 0.9999742674229166 -0.9578529127728341 -0.05092095521958327
Ni 7.807957591552119 1.8270951278854566 10.696701349006347 -0.9587060048017488 0.24340762183051626 0.10374864054357616
Ni 0.5314143881651233 2.880495597767704 0.36226829107682407 -1.1683072196057815 1.0770711097069192 0.7393338266538816
Ni 4.73358336616295 2.2422880379804813 12.810716441364947 0.29693747542785637 1.083600940405637 1.0255947962044982
Ni 7.393316151906384 6.418371544609555 10.663501908841774 0.7374566642358268 0.2614585657949562 -1.8759835672553822
Ni 2.9009643426104557 1.5920951870953923 8.799656790215742 -0.19958959620430142 0.32918810793144593 -0.6168364447478926
Ni 9.231247674120356 0.5341331374801148 0.3013831961231466 -1.3388145537321459 -0.36324725439868405 -0.0015372625801328365
Ni 1.3613599511131573 6.671239127956562 12.080598059147086 -1.3568117616405149 -0.6537484872828935 -1.25053469824813
Ni 5.477075825893469 4.785605411879149 7.944096344015682 -1.4594915945999445 -1.220112377202531 -1.5601901354632872
Ni 3.1389146503042125 8.717470230040888 5.1583314209093105 -1.6134353679406728 0.8629681503777913 -2.1409344624743127
Ni 0.15577477692788844 7.277176475286263 9.442538062060684 0.8602299255110217 0.5191725769458156 0.2864725713407905
Ni 5.915669465386628 5.548031690368567 3.462155377684902 0.3646873292793203 -1.3091213975430873 -1.147587470559927
Ni 1.8307807887215337 8.125227732201846 0.3799015586928182 0.07269434234093286 1.8651551091813106 -0.1490905590134852
Ni 1.364025391618051 9.24190943613993 2.3944129996514967 -1.1709695969292933 0.5241304351717231 1.4640797281912592
Ni 7.049547856168352 1.9526833315367178 3.9829714229321196 -1.3564137548711477 0.7473734091289064 -0.6330145971696517
Ni 6.095706184730957 6.648849427715455 12.430059368156604 -1.273891884916832 0.16276188585299067 1.4394123073515661
Ni 7.994869309164242 1.0149170236960772 6.40913165723173 0.5440297451988115 -0.7112800058404589 -0.6112543226744247
Ni 1.3188783441696468 7.2537941282364375 7.294018382807528 1.8731088168107481 -1.0210951085619318 -0.09206631910964144
Ni 4.2896680368341595 3.3992270847166113 9.75893412204829 -0.5232614023032085 1.2716182583913067 0.5149762794762809
Ni 3.0643466543862767 3.5842821851494633 7.475017418085864 0.2912774489286015 0.7271789364589025 0.9997564949851557
Ni 4.770780047967448 4.666699191838432 12.329315827363198 -0.7052692808700048 -0.3187450582212511 -0.6584626049291112
Ni 7.249272070552273 2.2073340026697563 8.287491478083028 -0.18598640359857002 0.13123219067582562 -0.3725646751448681
Ni 5.654152987159951 0.7758178192329693 1.1864436348904712 0.6528108059599724 -0.10072116657116204 1.5380508803620865
Ni 0.7020696760496418 2.7032621865405915 7.443445734864108 -0.23061098428648025 0.8401046155160564 -0.747950621788615
Ni 4.264061425638872 4.117765506616833 4.890161451711968 0.036529462384601606 0.5656097853624323 1.5838126599782334
Ni 9.20468518081297 5.865393742759843 5.6672559250350405 -0.02863051925249908 -0.7692316426545784 0.31010152361364013
P 3.4169936243578505 5.648141959262707 6.953704130316872 0.03349093266859394 0.009186037374642245 -0.8788367419789316
Ni 3.449153542725514 1.6677845062602146 11.161152518749219 -1.3571873998123787 0.030193749974560903 -0.12138769378157803
P 4.554263558402697 6.1352006600741555 1.267601702677403 1.2202375899264857 0.7426001561099791 -0.1503095190222508
Ni 7.130034968241983 5.600072118433076 1.183356319491872 0.11597989250244542 0.44025307963077726 -0.5561661234510292
P 2.9612032980210503 5.049281816032207 10.560202302515917 0.23247451985778028 0.44360579815309414 0.7957877958765521
P 3.5533630752926983 0.9811026939805482 3.451488100960835 -0.3724579743636747 -2.5501250163723306 2.553061216182519
P 8.053702014929152 4.030964057898851 7.354162669124328 -0.6998211132712399 -0.17166381632831082 -1.358995913776027
Ni 9.168352469379021 2.792260325881572 2.969481788582284 -1.0134527615253255 0.5328181927537081 -0.7421633256828766
Ni 4.405458448836398 8.911551063493759 8.921439847766916 0.1777002523303778 0.40186702365341115 0.6297127864899283
Ni 5.28196558093526 4.132866605753179 1.1988314994163176 1.950431659062628 -0.6754467981919335 0.5480391234685207
Ni 7.757222310217594 4.243987901284776 12.574280839171903 0.14943740082994264 0.8045935670936402 -0.8776761460119272
Ni 3.622793204858098 7.8171120010103055 7.032574514856672 0.42001952619272176 -2.0137270766871644 1.433493884984602
Ni 1.9656336959208385 3.833730651710882 12.139989588300608 0.3778930293363169 0.8084533071593625 -0.7264464291682522
Ni 2.5079037798802024 6.028867966277212 0.6228684092402681 2.0927741007190024 -2.070885271065711 0.07544902226793457
Ni 2.9133264718486687 6.9600350110747025 9.45981103564981 0.2801764539194336 -1.3540416550945455 0.06006765471585784
Ni 8.395678031706996 5.501515157971097 3.348228935801258 -1.2662037722439548 -0.4981250122468969 -0.28711303313826686
Ni 0.5704584959747367 1.849475636952408 11.735831601895843 1.2805279021761107 -0.061323638610146 -0.8438915933623145
Ni 5.784401116107698 7.691091812173768 2.214799074318289 -0.4353142475682632 0.05443899567517076 -0.05829282220362218
Ni 7.8721303695009714 -0.07821045823548561 8.894495001614686 -0.7957224898562554 0.7715458926100519 0.51242343114744
Ni 0.8613095256338918 7.984942841077053 4.914657769069356 -0.3115066314912829 0.804365253132918 -0.07597661263663046
Ni 0.08997791850588299 5.07679100027754 10.751613099876815 0.6503086083634091 0.3186663824645157 0.7885740517369323
Ni 1.0339703277189887 1.6847514137499853 4.812178934595522 -2.236943054061154 -1.1985469923269294 -0.19259491005402316
Ni 6.588564516434087 5.0556329173731775 5.712656648890118 0.7485427468466592 -0.20321485166171455 0.28712588865407324
Ni 8.793756975525772 8.659924288657653 11.40658811867465 -0.05815938194955145 0.22907577858887646 0.19731699812004083
Ni 6.425825586849102 0.969108211708527 12.524682506080326 1.8725305757097752 -1.1716470826122918 -1.2187710326832881
Ni 1.7168102292019467 4.057765521734264 5.734987525616633 -0.12673250303325914 0.317341235895189 -0.004501744525095473
Ni 0.49839877148364686 1.5327569667519685 9.343933307493101 -0.07392050143855011 -2.025229678010125 0.40228482791712006
Ni 5.68984231640306 8.953040023628551 4.315053140732316 0.01545541532312177 1.5943955777004024 -0.16713507522002186
Ni 3.3428943783218092 0.7735108345201132 1.4252487217806251 0.3322065830427956 0.8387792118364135 -1.5789093091393454
Ni 8.395402296482352 3.250183004622287 5.287217417847316 0.6857312108370771 1.3963170188239888 1.0025775093737184
Ni 8.443527284356914 7.881091764301906 7.138160885312247 0.4697168934178491 0.10126186956598045 -1.4747390076773184
Ni 1.2266265291778649 4.71709439972923 3.6644898855287886 0.28107248337114177 0.591692084271781 1.203044623086967
P 2.0787219027215644 8.779850729029553 8.881137468215508 -1.1271477146483362 0.5727862485062135 -0.8471993175793087
Ni 0.3563703146216854 5.198620013699484 8.292602690030517 1.6412073958476188 -0.590318600963022 -0.28314093586439626
P 6.253022321564606 3.488050591748651 11.122356572641786 -1.1870107095525557 -0.7468956981615394 0.779374130405219
Ni 5.617075790619465 1.5288047618654022 9.94250300962031 -0.22783933507861404 -0.17511835053581454 -0.18588098836895728
P 8.379161491750812 0.26590710212042873 4.362861952215952 0.5307919063522988 -0.835635009780477 0.1634907935992152
P 4.629649568820411 9.067672347687283 11.675134926012339 -1.122214539012777 0.19705731670075094 0.4525555511472142
P 1.450872796206807 4.151533880461589 1.7188028757587084 0.7356802890616942 1.460910072214026 -1.3685717303899205
Ni 4.315421706815924 8.131128466009232 0.30810929736963316 0.8743776777663134 -0.22726263663953766 0.29018935807074536
