# total energy = -340885.6442725731 ev
CRYSTAL
PRIMVEC
9.14626193909285 0.00000000000000 0.00000000000000

0.00000000000000 9.14626193909285 0.00000000000000

0.00000000000000 0.00000000000000 13.38647886619220

PRIMCOORD
 96 1
Ni 6.5525374591548315 2.497606302085582 11.604162377021199 0.8028282476631012 0.15887077832870058 0.6540696180677381
Ni 4.746534891362897 0.4801275268396163 6.1280356674933145 0.030584043434444104 0.7111151981278204 -0.8563807269682607
Ni 2.9885867832088535 1.968851759617718 4.550479281348814 -0.254580093507568 -0.6930632257221161 0.9908512220757257
Ni 3.790485288871617 4.782589455484056 4.87176825217369 -0.13631449029473944 -1.011751976784135 0.14055218252517085
Ni 3.900953839215442 3.268745929224891 2.7261695558844 -0.696919880464045 -1.4602999494338529 -0.2640944607559065
Ni 5.204954680382839 4.9958162574517315 2.391949600088825 1.2923521485045484 0.06263695810493083 -0.2591520291489666
Ni 5.741099402406739 2.840764899564467 0.617482428449438 -1.0319657327278484 1.223931750948621 -0.4364738150940031
Ni 5.8217237004097875 8.16120942803403 12.685897165657515 -0.45783916814365666 -0.07609179805825604 -0.46770834762825253
Ni 2.4525243775413936 6.421992864101229 0.5549137659186322 -2.3062677085989054 1.485133720648081 -1.1597930114871833
Ni 0.5814717663850476 0.19108553133741185 13.361753780963996 1.293573165395843 0.3144171202698585 2.0774611245110157
Ni 8.398234803274985 9.036314613358327 6.807880967582455 -1.6380171710450953 1.4516677276801515 0.7449344606701106
Ni 8.83674318029803 2.774984984506279 0.8972062124025211 0.8485897701689322 -1.843784099704702 -0.01471313784045853
Ni 7.154041368192889 0.6784751900674899 4.463172724455122 0.758651553145887 2.6955826066189186 -0.25731137639580204
Ni 1.1512857074456837 7.557876266630619 2.691405529306999 0.49574674182270756 -0.6358230131527244 -0.6830523784533333
Ni 7.377146132933485 4.235450926744368 3.4048505368429924 0.8596871656336743 -1.0662141123877573 0.725476351945499
Ni 8.005274810149293 4.66954165930508 12.651936180868503 1.148427707073035 -1.4386895702529285 -1.1743986772155
Ni 8.266281683900058 7.242311941083123 9.098990287152505 0.34737043526742756 0.554078130573749 0.04794413197944646
Ni 7.22284869591574 0.7619695850317812 0.30207358935299783 0.08713520035661122 1.1065290099567202 -1.2379733166433518
Ni 2.224846481887408 6.427398304840855 9.098495474387676 0.27878471577822955 1.1079132918987564 -0.18305148933996218
Ni 0.6303539627182627 4.960127543803644 0.9973211943584332 -0.6558256815268962 0.7555433465342085 1.5738882017756701
Ni 6.990460475420964 2.367482435076011 7.267800743541988 -0.8539245521182841 -1.4725126894499607 0.061323638610146
Ni 3.6967635439326223 4.604786125571492 0.15141819379467555 1.4361362077034556 -2.423532381351045 0.487476017173483
Ni 6.170662735363195 5.854311831298598 4.81886444451524 0.08632607419175455 0.24511483432961012 -0.1229162146109625
Ni 5.935366003607505 3.1628230710089746 9.357349318104417 0.2901623614875519 -0.559948473311597 -0.4269347652553164
P 0.5933061145627156 6.107169385761702 12.440416071357705 0.431462992142973 0.22957380127121751 -0.6772717672158143
P 4.354023065066718 6.360365351912399 12.660235498850122 0.23526468100840772 1.9272719331167132 -0.8004510056801764
P 2.3487600371165964 8.632251058374926 1.2213918043479373 0.40847887254297394 0.7499128877213085 0.6580530281955183
P 6.678051610203707 8.366588737354332 5.725718133892647 -1.3866887517056055 -3.291421880289854 2.023450474622515
P 5.0471633713472634 1.1620874426631087 12.669030544222753 -0.575010509851042 0.7578036033232949 -1.5706540111090885
P 4.1051349882364345 6.761255154041907 7.947552751760497 1.0643107247174572 -1.3018238354404095 1.1229362476701499
P 5.105406766660186 1.4689445269515113 3.3431123548860575 -0.7855085254377311 -0.5446609510249071 0.9093971312642918
P 0.33256905553584115 5.588539755136082 3.221884142129211 -0.2794226064725446 0.501230390645098 0.691447287385248
Ni 0.5455717740887611 9.037220093279178 4.693085051873389 1.6734297462164343 2.382094683031549 -0.699659390882395
Ni 2.160895819194576 6.68079548875174 4.628174031688745 -0.4860084314890211 0.37502110710516057 0.3524709897187865
Ni 6.123660095835383 6.0895811242688085 8.853335413877987 -0.4855482040231509 0.13242132588792033 1.1080511030282014
Ni 0.25894896483973945 2.7073300857736022 10.323986633286376 0.17760872105783604 0.595903037029335 -0.03750622447557412
Ni 2.6379739823411446 5.484940047424168 6.936833198452017 -0.7116273618775486 -0.46622122155976475 -0.8915516184424387
Ni 0.8281464478532509 0.006691405152470803 8.737823614762878 0.19696167166315112 -0.4887535983343261 1.3836844176616427
Ni 1.4452191237728493 0.8467554321660136 11.33445192051607 0.7203081774809982 0.8285336228490054 -0.5417064963822735
Ni 4.35941021328269 7.26094287642427 1.5283879118161072 1.0442188390635887 0.6936684634062827 0.037899089038618605
Ni 5.720163609085245 8.516688040193587 8.075326029480586 0.1680277622376203 -0.05790021475089383 -0.6773820675414334
Ni 5.336871214710458 2.7449395144053135 5.09386326960861 -0.32564744176803917 0.09658580424654979 -0.05453952580877704
Ni 1.053045709164261 7.805611914470728 6.695756029221801 0.5353129341511039 -1.4381694360834005 0.4291659685786802
Ni 5.41047118363054 4.673126993941176 6.934543889116774 -0.16379007000718887 0.09609832308716998 0.4411385675595241
Ni 0.8640089404760476 7.721164479024088 10.827894440875614 0.4761207400616639 -0.9619412239095949 0.4417502330015941
Ni 5.2237593946986935 0.9566075244627136 10.220134488748043 -0.5888011358772312 -0.9779607392663029 0.5336432597581648
Ni 8.365134481723874 7.326329502223907 4.519703939554071 -1.0207919754992163 -1.6397354392877823 0.031246616719107483
Ni 7.442276663401971 6.334911305248475 6.975961821173156 0.630959771523152 1.2208621108843618 -2.0196503841501343
Ni 2.5604594133592005 5.319301245741218 2.6029200192638355 0.14414349942085497 -0.111652211661369 -0.10531547081006377
Ni 2.707668497461193 5.767248564969497 11.34972617776679 -1.1150848699465312 -0.5465964774847231 0.6216423507769682
Ni 1.2854705147063443 3.4564272219103764 3.4552775367987505 -1.160772344681317 0.5052099441181364 0.4302985395212267
Ni 1.749890251484652 1.4392283222763096 2.2271083524371704 -0.8340900338908603 -0.48985171649451115 0.6550522936959815
Ni 1.0045613752205107 3.5447526723715717 8.15733232764566 2.2985330589588093 1.1755327908199433 -0.4821903432945115
Ni 3.4375401912380794 3.176579048796449 7.097377532297451 0.554720135033122 -0.5398519596720379 -0.03180223211226135
Ni 4.145927315983864 7.178928346623552 5.830695268635674 1.1837523505162582 0.6185066333614638 -0.23700840317239183
Ni 8.462469000084447 7.352524396095799 0.421702120916341 0.10843704715818099 -0.5635948118149327 -0.5769074697634387
P 0.542052292537817 5.98976796895318 7.595862521249594 -0.9987591640688929 -1.3286995767853311 1.409310088649547
P 9.049915104694744 1.7667285195077505 8.031190743035468 -2.134147007238834 -0.2806947883167489 0.9515920194647871
P 2.3172877501706535 3.880950964600278 10.175704692672102 -0.5141828370407081 -0.5164657195376138 0.22737345118578906
P 4.25045994240211 6.454251729564276 3.555635809319255 -0.44097016030245995 0.7286215824426999 1.0895080499186913
P 7.361359685020466 4.560966385159397 10.241472717589915 -0.11775163969088753 -0.04021668142820171 0.8710892368230287
P 6.5253181839583405 8.238687411968668 10.058506322876134 1.0257410919743752 -0.6593354944523677 1.4780978968472223
P 2.5516241244345332 8.825182305348982 5.66630859019681 1.2546826589782325 1.0891938611123824 -1.631530534879487
P 7.378783313800478 4.2432343955589555 1.1940188719527562 -1.4312611389993415 0.28170163231470835 1.7705626812157056
Ni 2.8147437846672836 1.68838164069957 0.1184075056094683 0.9020861994251755 -1.6152978750707083 -1.2238520467506213
Ni 1.7004181212636096 1.446966059781764 6.8941567407682705 0.5153442043386609 -0.48870320471236484 -0.7545619564575456
Ni 7.69646042582996 1.0473384417843516 9.801405817551586 0.1118843822768331 -0.3091021358148483 -0.9758326371797065
Ni 2.90675517864467 1.7053662489118966 9.3470012374736 -0.10249882729687508 0.688502345824311 -0.11066619359901586
Ni 6.938015810106219 1.7906551404466018 2.322661178993886 0.9616710009673437 1.0419709235696766 0.9506587090172401
Ni 4.50693941654862 7.182925263041854 10.454746165492907 0.08178602022955592 1.0234278704601665 -0.0771516067813381
Ni 7.261107509137153 6.39300836037217 11.478115913534005 0.20968734675993564 2.3614746927883523 -1.4282578333966434
Ni 7.999348032485541 4.3515718668971415 8.181547970458238 -0.657420536817842 0.49919124872788223 -0.0517305956050722
Ni 3.183127772264422 8.366296056975875 12.655055056151436 0.5779127710995016 0.48005915588412157 -1.3911267328723007
Ni 0.33957417746897045 5.296179495843122 10.147660424658836 0.04835679403683285 -0.37610456997732644 0.6983954365683069
Ni 8.89965116914261 2.481920463052658 5.751607542619524 -1.5247677900999352 -0.4766079641107276 -0.7456695390639222
Ni 3.7701897338779964 2.996132449215945 11.689394561732577 0.43182937434345625 -0.3916618009856352 -1.0283019107230162
Ni 1.4184205766203897 3.662519939653165 12.585565417296309 -0.06983167608115716 -0.3391200223331773 -1.9658209970345044
Ni 3.088061526836891 8.791478330517306 7.890043801272265 0.9956928664387432 -0.4668570553715508 0.2786350775742427
Ni 5.702163765810146 8.157880188729084 3.6859398576868134 -0.1640574647359626 -0.5471716332619028 -0.5759250512455114
Ni 3.4466315754938965 9.058622345953838 3.260156674743364 -0.6671066537573543 -0.6897110214204315 0.5851401420858761
Ni 4.20856091697364 4.634950497076205 9.296668444014658 -1.7690585858663532 0.6857489514488899 -0.37454391035842594
Ni 5.505601452890859 4.825586032331739 11.475505570408641 -0.7055341044956172 -0.5697014389333027 -0.2134164747850647
Ni 8.750960390624678 9.090048901590647 2.294282157797759 -1.4210155500119332 0.42777448754779235 -0.22729194721557627
Ni 4.836305451192723 0.5559043060744723 1.2998822794667984 0.04312974130993862 -0.43499877321037345 0.6489595505346824
Ni 6.107937671755153 5.818211535868304 0.35788224976763194 0.5397054067918448 0.3234753738173849 -0.2666372817824182
Ni 8.171700190349346 8.830651769921396 11.823045227302552 -1.0974689566369809 -0.9636335240103533 -1.9386698905410096
Ni 0.22767606640162 5.088129478069402 5.485082729108665 -0.6548504620978206 -0.04673031417700339 -0.0555049750458399
Ni 7.40134714172714 6.384145632662022 2.3922706338789452 0.47313414662951414 0.11773775573381658 0.4499893330819348
P 8.870556910271628 1.7409726462035433 3.4883961508735135 0.6225692334666117 0.3383240087944432 -0.3517132856171556
P 2.2589986235485973 3.3696840747452135 1.1748245268830797 -1.0902626686965289 0.5694607836774064 1.957413746807416
P 4.859070496879574 1.5839313306377647 8.142338860633023 -0.31127960308214137 0.19589723495437875 -0.8987954444890457
P 8.709930260069752 1.785615550180047 12.220503351994655 -0.3889472302679495 0.8280068038112578 -0.3156916161069079
P 6.711856193915479 8.258361021158068 1.4618305645026435 -0.8444695773529715 -1.2377367751525135 0.7802868720274755
P 1.5865746003057037 3.411857488028487 5.737083278838601 3.6169595359529065 0.5057367631558839 0.19298108974884828
P 7.0416429566036145 3.884088132406863 5.737324740150828 0.7924515324144675 1.4000677441156726 -0.4327711694314353
P 2.794942127812309 8.750878074268238 10.165450818538101 -0.25694242309215753 -0.4647407803594964 0.2677148311173131
