# total energy = -340896.64722597983 ev
CRYSTAL
PRIMVEC
9.00523402002072 0.00000000000000 0.00000000000000
0.00000000000000 9.00523402002072 0.00000000000000
0.00000000000000 0.00000000000000 13.18007025131250
PRIMCOORD
 96 1
Ni 6.3822434605748395 1.6683546740537214 11.25450189403293 0.3470392771802539 1.7184849866838598 0.6797508248839261
Ni 4.675364395537382 0.3908991967793374 6.059207707099249 -0.00844478833324352 -0.6269629916589331 -0.5453296949571577
Ni 2.9360124567534664 1.6325858846691026 4.695374025449926 -0.7025369695405062 -0.49155867188328894 0.31151743012456024
Ni 3.339951232341698 4.403397323985301 4.816076579678444 0.2358079551063874 -0.3058571465149894 0.1213244446438104
Ni 5.222729532789466 4.508983692448204 2.8776180169839396 -0.27440664131519193 -0.566035045825309 -0.28136816023468963
Ni 7.229933151194756 6.173466115888787 2.510421496574002 0.3128351204947193 -0.7349477817710439 -0.5498967455025496
Ni 4.805093796311505 4.598252576932022 11.320718280040998 0.8847086273786764 0.0027343682120275488 0.1739994064400229
Ni 5.642121289894316 7.70065474200865 12.271185606644195 -0.3257135191192842 0.35701721432857225 0.5000268572553
Ni 1.859850974724395 6.4644252259132156 0.48260129548564373 0.2738911351313541 0.5545944080885351 -0.7400177400947836
Ni 2.644368948946251 1.5120148068567512 0.2854443047326005 0.7308116481154834 0.4349046708346703 1.0556635905654206
Ni 0.5771265350459476 0.021442362639404723 4.6926589474037375 0.0559214937579682 0.28591438484447534 0.12438585717795353
Ni 8.615613530489368 2.2424653562384127 1.3933051109089014 -0.05622976902700639 0.6645013549240234 0.3510201162048729
Ni 6.935137811493126 0.7600858738997487 4.865211837865578 -0.6152464745529533 -0.3185064598478837 0.1392483761120828
Ni 0.7942760457669646 7.501783154705046 2.5112517791473308 -0.6045663691312878 0.21946088120693172 -0.27281615689962047
Ni 7.709858091140343 3.9528834782315987 3.8124801736161893 -0.2775300174355221 -0.09408283531903797 -0.5268480912132023
Ni 7.577976439444034 3.613728355924572 12.640333561258476 0.3283319305787377 0.2260742727583913 -0.39824562485073994
Ni 7.814733046118507 8.595531858704954 7.035824432145312 0.34245551446431344 0.8504669325869869 0.16715204450088633
Ni 6.730809052395191 0.8112932364266106 0.345477697087223 -0.15781919713573464 -0.2684033725439055 0.10844218936450357
Ni 1.862804691471161 6.475879883540918 9.16913734726314 0.14390490104748765 0.06042838048938625 -0.1684116279396003
Ni 0.2804779181904008 4.73941862486588 1.3019560173747697 -0.796171661578532 -0.5493889526281959 1.582987592973777
Ni 6.233215843372912 2.094392293838794 7.019125126245303 2.0149578637704715 -0.059960182603716085 -0.5732140800722515
Ni 3.212130941172192 4.198429193274499 0.29622176876470313 0.2750869552116682 0.17993325542595465 0.9671765041666052
Ni 6.160975856352919 5.728337400057543 4.8549845936299 -1.0818042535165304 -0.2351458960423563 -0.48652702299665246
Ni 5.304551088768481 2.8735791695420967 9.106057484251716 0.2097148575637614 1.310994446196084 1.7622392489516747
P 0.13825285474001972 5.397773270971294 12.505856601127965 0.6094635493225891 0.7910981037103666 -1.5683243345346474
P 3.9078302926094315 6.1129419382820345 12.630764599627032 0.006475066201382396 0.43106061449823185 -0.35136233003564005
P 2.424272025142256 8.5214638091862 1.2656667254658733 0.2244377655962328 -0.48428862058443695 0.24857733895691383
P 6.283870284533155 7.673612024354569 5.850817587474511 -0.47649380713036643 0.17703562216318544 -0.43628561034259705
P 4.655120629541254 1.0787639946504597 12.42816034283704 0.35964719575225157 0.4376737489393753 1.4132719015107724
P 4.020692890131442 6.342071111772024 8.294798467714244 -0.9935123138476567 -1.278441194850411 -1.5070287209489595
P 4.8541993372264916 0.9519342792191985 3.734928899592408 -0.34900077178199895 -0.5101552039385536 0.8848945181372373
P 0.2055174499838287 5.670703902559668 3.45319114916764 -0.04569853047837936 -0.5280567668093229 0.5932527438906815
Ni 1.5114384718817724 1.0514691304448256 2.615083928030143 -0.0871717100215015 0.751563535950854 0.11433052982448053
Ni 1.6857527861108923 6.696814294105429 4.783890972896077 0.30837579917178504 -0.45346109368061904 -0.38350908997151373
Ni 5.828511622896038 5.394783533288591 9.140787069634577 0.5014504770757041 1.1220037085535515 1.004095745790458
Ni 8.477662351087815 2.2614934156466955 10.162756854594472 0.9553121486288515 1.0133049230935516 0.04984392010532061
Ni 2.415365848732038 5.291961771658789 6.99308198956345 -1.0314898215326946 -0.6278096559299446 0.18261003092716938
Ni 0.4067511101614482 0.09282054876712452 9.33143687831075 0.3412401539999736 0.2180912545529147 -1.0982292318417732
Ni 1.5044233946082028 0.988693644342062 11.330063011346239 -1.0745195469296591 0.7461423649352826 0.44435141806986694
Ni 4.147684699774416 6.592947925333477 1.5993619744083745 0.6471402379377565 1.1665555270219974 -0.38249324711248966
Ni 5.567278790252934 7.890539105796181 7.922883204696668 -0.4752445081042976 0.1471223795435208 0.48074486909723657
Ni 5.141241170467861 2.748550500907644 4.99084475770036 0.4935494770610726 0.7643028378943933 -0.36000509331230257
Ni 0.8110329851644718 7.467806406883251 6.912222192573932 0.1984608819164969 -0.5048569316540917 0.2557252628556047
Ni 5.07501667974921 4.495691967087756 7.0558583761896125 -0.2861817795732491 0.46543986330905 -0.6389687578705577
Ni 8.272766262248885 7.041633708588418 9.212460627436972 -0.7539636607519143 0.0026240678864083837 -0.025468319474433555
Ni 4.705414861342134 0.3013880715013486 10.384735872301132 -1.4044980119728843 -0.4636935700419046 -1.0730833287037647
Ni 8.015054476093542 7.314546329708824 4.59097454682612 0.5865601623618544 -0.15772355209813482 0.1802016785959929
Ni 7.06961297057684 5.933863855275356 7.105230472030526 1.0019776710061905 0.6595908049962834 -0.07018777386899526
Ni 2.308338642831687 5.3312335970632 2.6597913126673225 -0.39877732898449386 -0.7924793003286094 -0.030001688568412843
Ni 2.3399109931797417 5.168788181225049 11.367599528161925 -0.6917018265982152 -0.10168533025664422 -0.29844928408669247
Ni 1.0266777212867553 3.3168438019386435 3.9098285540304905 0.743091751034417 0.17106783461552472 -0.8533727933798723
Ni 3.8326636045446247 2.45397128682163 2.4940517822378085 -0.9492978241139716 1.1260218285740091 0.14341279190241754
Ni 1.0912452489523432 3.155343935668817 8.152861571751354 -0.5300280316030808 0.6418082842018819 -1.011384051921755
Ni 3.6374841631744776 2.6906828673261836 7.095530033982915 -0.6479344517042777 -0.5606879225807828 -0.0720677645005275
Ni 3.889693751365569 6.78444422600415 5.852728498125925 1.4189699803368143 0.6143674143821097 0.14801326678890636
Ni 0.9347883137135806 7.26838550030662 11.376403945428125 -0.43108066910288984 -0.033492475330490705 0.26099191057118276
P 0.1975343100569746 5.529898063985172 7.945038781867608 0.2955719625388974 -0.20854937650075053 -0.014835265240619611
P 8.394949276944379 1.605903376374383 7.917149572219027 0.33658285773362034 0.015225815810818938 -0.38198134047307764
P 1.6549368754174971 3.306001500221856 10.20905816564683 0.5528221466794608 -0.15914871458043559 1.4859665009620215
P 4.066160316516876 6.10903366673296 3.7298805654209537 0.18670245582898815 0.9147519678183021 0.5913046190253752
P 6.7531150169736645 3.873718466277877 10.569111734460623 0.3650755658566745 0.2618689138594974 -0.8826116356403315
P 6.247155945580211 7.7090656305497465 10.048815430041174 1.3114325621747671 -0.6750513625257277 0.8583656186087735
P 2.534018811705788 8.573243904594447 5.631487909605958 -0.4552675507617386 0.26510850384271767 -0.3347640593573267
P 6.916478966678189 3.978071117684967 1.6048839838873896 0.7262350844883945 -0.03989169398861517 0.09657397717200787
Ni 5.22109058020437 2.982380406537304 0.5920671187488733 0.1444322343058674 -0.8955450558725481 -0.8352069211041229
Ni 1.3908133626655168 1.0001843229057008 6.839217661188694 -0.36965624324882146 0.7959384625218034 0.5980946453640151
Ni 6.828912071417355 0.71636546290722 9.129979888330327 -0.2342246697796676 -0.6718331126987462 -0.2960321900047676
Ni 2.758870499053357 1.6656801195604605 9.319403184137872 0.43691707327900886 -1.3460216130035465 -1.2553686293016637
Ni 6.33787467273546 2.128206947448876 2.763452362104438 1.095261407462701 -0.0064467840666082524 -0.838820092376678
Ni 4.142956951932794 6.864924002119542 10.442200971923507 -0.4411887040711692 0.12564184107224166 -0.08631347578626425
Ni 8.14648586609065 7.1194479354445335 0.2760464425468533 -0.39804585013510807 0.02541972562468526 0.4480234676048155
Ni 7.617914652163264 3.8530694647524664 8.243923398321392 0.38637741265824427 -0.4273448562095415 0.04806008873202046
Ni 3.142331372561875 8.483479732241507 12.304070019583726 0.24001402276793501 -1.532982464700244 0.009281168191609823
Ni 9.03405073279191 4.850155987167656 10.306696514595416 0.05706203512031463 -0.6695276044940212 -0.3373253923265997
Ni 8.70147843652722 2.5247434207022237 5.771276156740257 -0.3874310507337392 -0.2977257756571066 0.7943258666190448
Ni 3.571160614882001 2.6471695767152883 11.383468551488606 -0.29460548486057003 0.009790760838176687 0.09283662161676269
Ni 1.2466215561130207 3.219515233039107 12.615027052716517 -1.5720382930511247 0.26723172083330754 -0.6679067810611465
Ni 3.025785634340391 8.405557442577583 7.729623679211919 0.6707871879327351 -0.2614935327979497 1.5954001077055169
Ni 5.804719794710196 7.869646962953201 3.508482385306265 -1.6692871848029702 0.29595042892423873 0.34061023372545857
Ni 3.0246059486884813 8.187900937183263 3.3644373640677094 1.324988446482331 0.04948113744926317 0.49891356958646327
Ni 3.3624192911318853 4.35550748965816 9.129597165886004 -0.039845671242028154 -0.25964979472099153 0.21369441103679973
Ni 7.265170631774317 6.088771890268863 11.371605956761426 -0.5766819840161939 -0.7241594329062884 -0.23432802812675127
Ni 0.48898690690372865 0.06635596713481905 0.4988422349758652 -0.3140286265821882 0.07610593912564313 -0.8432205354372189
Ni 4.617397704382098 0.3995487240210106 1.5685469642383778 -0.3073576423199158 -0.9899333382471468 -0.447368607629636
Ni 5.984788453455119 5.430318186589625 0.2987648468417969 -0.36148373474035805 0.8808907962944829 0.06974014480861537
Ni 7.941562761549768 8.64470944149181 11.377669180802881 -0.24640784210942082 0.11106342903743453 -0.21936960704470607
Ni 0.10329723798416011 5.108678244381562 5.680043230724518 -0.3255553962748651 -0.5889479458677405 0.4088753366504442
Ni 7.760539548002536 8.919783318768388 2.4715134826225458 0.4846102655899139 -0.4609669151393609 -0.3427409069152162
P 8.477626330151878 1.5948809699779147 3.5854402144104984 0.3412036443350834 1.0288644680947054 0.4620161823394818
P 1.8504855313809905 3.1693110535780677 1.8197191494745073 0.2702195998170378 -0.2420523933542025 -0.990175793275256
P 4.760121657795195 1.112524616856637 8.21156579156993 -1.3177433348841434 -1.8542415475926002 -0.17188724519302653
P 8.446720367118642 1.5792748994835681 12.334964275812782 0.7636376935065687 -0.5067433500435272 0.17747708057597822
P 6.180841402521718 7.792805301367363 1.258864171714327 0.8728782104026515 -0.660861701288907 0.12210220335009939
P 1.8844172530328642 3.244387689303034 5.98263169991594 -0.6710712948320572 -0.09130655812548147 -0.030174980921483515
P 6.931724827813174 3.9530005462733913 5.905699085466863 -0.39765529956490875 0.16537926887117968 0.38773726912024836
P 2.367962297040036 8.404134615608104 10.075688849296355 0.4922083896521458 0.7170079094631716 0.16467478660498736
