# total energy = -340888.23295995686 ev
CRYSTAL
PRIMVEC
9.08035397114401 0.00000000000000 0.00000000000000

0.00000000000000 9.08035397114401 0.00000000000000

0.00000000000000 0.00000000000000 13.29001589301351

PRIMCOORD
 96 1
Ni 6.544211029663728 1.635181043445004 11.345088553151893 0.27112102858538467 1.1601699352106278 0.6892217404888389
Ni 4.558709934152084 0.18852630692088013 6.071410624504791 0.1881330176279276 0.13182791527829554 0.23780004583575176
Ni 2.3709984384467666 1.8634338985201493 4.5910496144381225 0.7872093101789217 -0.6076642913303212 0.8090690863664906
Ni 3.52950630580991 4.567926493323874 5.249263581213418 0.4910940735420446 -1.6021772785283503 -1.2855009299106699
Ni 5.040722358305879 4.4021192317703015 3.0948197779590214 -0.6154840444850561 -0.49814583818250335 -0.7995457202570876
Ni 7.112105440661645 5.819916603715168 2.898831236232844 0.25411395250442687 1.1731421791005796 -3.3799513898908304
Ni 5.058456289401944 4.5554591674688325 11.314042823291453 0.4199735034461348 0.6935777034646894 0.4983322431616966
Ni 5.4518989419679205 7.745460122663928 12.606430519987548 -0.15639506309469842 1.1965659573411587 -0.34019885721965276
Ni 1.9994303583387611 6.501333598718713 0.3276918102379695 -0.38650571070599243 0.49867702809562514 -0.1787844865334921
Ni 2.766965429386889 1.9021071256262096 0.26889016272195254 0.12375979355818043 -2.5363446747587863 -0.2565027644515776
Ni 0.6117779451510449 0.08886306701761917 4.330870235177744 0.11798818118172584 -0.4787041845181239 1.488884703050081
Ni 8.466095166005363 2.5638742348684227 1.2871674012597785 -1.0321112571667774 -0.1784088483616282 0.6341854775493013
Ni 6.886603932807242 0.7245350553259516 4.8669370978475435 -0.3303957550863019 -0.24628108672356938 -0.7447138600188722
Ni 1.119262577963661 7.732901993270248 2.465019146459043 -0.49619257111087456 -0.32909194867321384 -0.02779542494571342
Ni 7.67812021840975 4.039685987649311 3.989729512832053 -0.4190057402162267 -2.750524510072437 0.025435666464285227
Ni 7.355676852705075 3.7085890447124044 12.692031923897279 1.0947932095770307 -0.3347555747168945 0.31503547058014775
Ni 7.759389385491046 8.723305269552268 6.894461163005615 0.8982413717577885 1.0323555119670995 0.41687506702646915
Ni 6.796989920525084 0.7227861791717776 0.30283978974804765 0.14044779573682264 -0.6820614752949739 0.1468336446585084
Ni 1.654640241775196 6.707085336919282 8.922677151128111 -0.2828840826585838 -0.022502551977890275 1.4243939795658629
Ni 0.23392262802772187 4.772071008890545 1.4945290862004053 -0.45213620422160844 0.7161697298325923 -0.46596591101584917
Ni 6.765590056863951 2.1144875221473765 6.951435843324229 -1.3221499485922714 -2.585828383311211 0.5194829090973828
Ni 3.632423036502582 4.699064963825336 0.7786675848851861 1.1841503572856251 -1.027574031418056 -1.2905091817585388
Ni 5.9796309478261085 5.6008984685195395 4.890978242737426 0.06605678241975721 0.11342061641570142 1.8411065528725388
Ni 5.255391004000732 2.764050635796599 9.536902251645458 0.9731018685121048 -0.07313888607751921 -0.9785145548872439
P 0.2433434951614476 5.44564257815574 12.482700710203588 -0.5257440595157462 -0.4326955789984935 0.7751498079112263
P 3.861365998471378 6.169591950657475 12.429168392034752 0.7805948901861975 0.24507575356155853 0.6314361969389384
P 2.535643414705769 8.931717551434941 1.3755700943365015 1.079217980846593 -0.21355197192166447 0.24497702320016518
P 6.259896069833284 7.610480662478065 5.851182078139114 0.2946527931587377 0.07649366148236503 -0.1717355501065107
P 4.647170741493536 0.9683016949774538 12.77068140888886 1.0444744067178207 -0.8980318268501438 -1.3831118329876244
P 3.764678390529295 5.985515017129872 8.416261275965267 0.8916765740560773 1.2997507549614649 -0.7893217285362342
P 4.584825031864465 1.1972809783617056 4.165343556558564 0.49858138305802513 0.5296025140298879 -1.3617773331759062
P 9.473260775520018 5.890361988990776 3.475591704743407 -0.5938780361795062 -0.824933821312889 -0.11260069161756736
Ni 1.128506378197042 1.3936073092516172 2.4307172017030307 1.4056056432147663 -0.05474907071642184 -0.909361135820034
Ni 2.070248038122787 6.793566627118418 4.802812546896549 -1.4025935958613198 -0.6437425251101172 -0.5325289436480635
Ni 6.108726338708209 5.617579078567399 9.323703715241159 -0.627242470572565 -0.05045969931244858 0.6041020279003596
Ni 8.767599235700041 2.288793994917496 10.17774640951463 -0.8021836721005668 -0.09804413395963114 -0.5035071024944167
Ni 2.22003755546056 5.56661105232971 6.819931434562055 -1.500627445408306 -1.2464512722073757 1.8182659008289397
Ni 0.300151096968967 -0.16734365742733281 9.036719131374749 1.1573028980754778 0.37992780037815854 -0.8580285469843286
Ni 1.269642318302583 1.3446369608639712 11.571643382054502 1.1946456003899943 -1.8336758076261066 0.058826326109589
Ni 4.053869500384617 6.970025143754266 1.8041591645678268 0.24313996999142642 0.9042816644145975 -0.14210924259964555
Ni 5.803018065174577 7.95775879600032 8.01639154893447 -1.0941095532464449 -0.29538118668433 1.0177850703520923
Ni 5.530244235105062 2.931419718214751 5.170892863085456 -1.2050868503279764 0.30876917795546177 -1.13169008260338
Ni 0.3527218056636224 7.191313367415852 6.49467134308882 1.4283331667192694 0.766313440566519 1.0305919923087734
Ni 5.074946212018662 4.551073356552602 7.262674960396321 0.14361488061089459 0.10379697728300834 0.1315342952972767
Ni 8.182497554130162 6.936963575336054 9.520662038759994 0.2619023382005941 -0.072478626785701 -0.4534029867491739
Ni 4.871110428483361 9.20557194361425 10.55150194686843 -0.6744854627199287 0.48395669116631485 -0.5229140462661188
Ni 8.16071378521083 7.235988708425905 4.472529203665841 -0.48442951703767534 1.0280239744712811 0.5865509063904736
Ni 7.328744523144949 6.142114799865518 7.2738383474365165 -0.43448172436463883 -0.6285465340959692 -0.6511380462432398
Ni 2.3391354767385804 5.446160158325979 2.485764122896353 0.033987669799354366 0.1025474211466234 1.961932460613376
Ni 2.1633579866425205 5.291312883886052 11.368598497340741 0.8166214447924517 -1.3095461437853317 -0.224730100025671
Ni 1.0480453626096264 3.740361202881953 3.7127787199851765 0.09929934652297093 -0.5647649208636338 -0.2821675162075334
Ni 3.6029118864451277 2.3492055891735704 2.444539316354556 0.6344438734170106 -0.1718455933218137 1.186509344436105
Ni 1.3899570069983567 3.356144189841629 8.238666807061055 -0.925514862761761 -0.005785753443841649 -0.7336295771802527
Ni 3.616623220779514 2.6108015036367065 7.056041519835573 0.4770923599463138 0.15242425137240845 -0.09043675392601844
Ni 4.156286811614778 6.742943654327555 6.119135148342319 0.5881632451829161 1.2882011024506526 0.87073185348361
Ni 0.8552776223989503 7.255938245864745 11.437201478817379 0.042267907530275595 0.33145093582369367 -0.5325106888156184
P 0.18621808096869405 5.437897036309891 8.026637820234418 0.14192129495855557 0.3689381341358743 -0.5613556380717688
P 8.768107735516416 1.541726041478445 7.7714299347144875 -0.21955575491358315 -0.6648224857088679 0.38136556126594967
P 1.6720200390705704 3.180375780099433 10.595637914858974 1.719055514475349 0.5936826323392486 -0.8980577949920726
P 3.962484819099011 6.234489239722281 3.911411460756502 0.6643172639376753 0.21038514415790863 -1.0551596543458086
P 7.174877926922316 3.8576793748026623 10.534969346588552 -1.8893756722915718 0.06016947040104477 -0.9206968725478273
P 6.462061068257639 7.767271132644852 10.493743632011368 -0.1903660207235044 -0.8564108088752476 0.04394375257080174
P 2.3643152980029867 8.659007283842474 6.009798607467918 -0.5097116886432318 -1.5696376540294323 -1.1993352925561795
P 6.5680651192640145 3.9630114796231135 1.5300932001434897 1.085846027686072 0.33586166329687966 1.2410123605799916
Ni 5.2646802060034315 2.911125127329086 0.21744360183563954 -0.5813590777768891 -0.11708520975148222 0.5203360011262975
Ni 1.77938614315652 1.0799355653794045 7.2814267991605215 -1.3309212670269983 0.8975597723097316 -0.4358888891248106
Ni 7.142551867167074 0.6380819142237935 9.261545968937071 -1.5104297762107082 0.22360292839976326 -1.293939033375694
Ni 2.949289854618772 1.5265255291103903 9.372930129607765 0.1273865916774903 0.27326018641557454 0.418884127036698
Ni 5.9908633455556695 1.983221926691821 2.6252828519787457 2.007040408695608 1.0509612999937448 0.7176056909481705
Ni 3.7682288088900533 7.008979861830105 10.392659316728418 0.28802577476052327 -0.22680138073240294 -0.4982263137114516
Ni 8.473731743604846 7.033660263632001 0.3798902244242078 -1.1643726604380658 0.22224487170997206 0.9374866904116563
Ni 7.978761654487363 3.4789741365576843 8.205056785269466 0.1793457583536008 2.580063970023608 1.4101505822729714
Ni 2.955319209584357 8.497613074266724 12.29951092724848 0.4680834715794842 0.2169329725787554 0.5015731186964975
Ni 0.07918794997570618 4.75959460268164 10.141238846805091 -0.033844716463586874 0.2122260540213893 0.35525472311151074
Ni 8.844954770266027 2.2518551153994273 5.3934069345186595 0.5544781942256451 0.34399046305160114 1.270214693175561
Ni 3.879099929567442 2.6408120731566713 11.61661655867129 -1.3289474311300788 -0.5130096426682133 -1.5468304263269297
Ni 1.094019194222208 3.3606571257119535 12.772249586001143 -1.3639509437884574 1.3276608511081716 0.06479848453262388
Ni 3.1985364878270968 8.359900427567847 8.187567115692339 0.8169595448581607 -0.05865560485967963 -0.1932734241782865
Ni 5.769102943493164 7.813299446380617 3.691860308789067 -1.1148329018367251 0.5105244143525143 -0.0353333851939714
Ni 3.1650481427772843 8.604915615875626 3.8580117157540785 0.8328813582947399 0.7357533083914748 -0.8760095569427816
Ni 3.280695529587049 4.14764231473641 9.30089749847676 0.6881552468975374 -0.21793853102513433 0.7578791937562366
Ni 7.206958817123235 5.9035648235087885 11.816432469551073 0.577581870122644 0.9194647999129391 -1.8962973391120699
Ni 0.7738922267881969 8.875946018003285 0.10971609966590937 -0.4872862697601802 0.7073562453060205 0.3777169087697689
Ni 4.934527619868365 0.29412719021570083 1.532524918908224 -2.2103169668331937 -1.5254663588288566 0.7834405871651088
Ni 5.892459550733321 5.7476551476667925 0.45131174774017846 -0.11401376991501008 -0.8481768510012295 0.529752666454507
Ni 8.309368258315624 -0.25949381254365916 11.168038905479511 -0.7094226409167459 0.8673673078867514 1.510515136835663
Ni -0.054123449205370676 5.010666387016595 5.631166012053851 0.6964516825783748 -0.4890585311692545 0.7109187658462982
Ni 8.015682373297706 -0.07477762210404297 2.300010048010101 -0.3319415023068671 -1.1809750448814371 -0.18918896969626772
P 8.273137646398933 1.705562866243566 3.369750192071195 -0.5047913685234791 0.91238449602739 0.9168286478416727
P 2.0504528666996333 3.399875174049844 1.49157797119466 -2.039869539410487 1.3335952143147356 1.4626787340786744
P 4.909356878957822 0.9707987922900075 8.133676123545882 0.04445797320305892 0.6080720682917011 1.0662462511772732
P 8.453945652535557 1.5411630595388874 12.663577727029574 0.8983928097339883 0.19738847478792457 -1.088113740674326
P 6.3421005133625545 7.578417932984874 1.5873993133781337 0.7185950514446333 0.3894933325794066 -1.0321410819634482
P 1.7597453377490515 3.412869160428988 5.936251373312424 -0.1407054202735835 0.5481537946695141 0.34607537060508786
P 7.017179421369145 4.110376542479243 6.298085314078402 0.2894419383817596 0.8031830598993586 -1.0763985091199268
P 2.108739658151571 8.74674166287482 10.246522825750066 0.6154341650837271 -0.6008732365504168 -0.35879667482649824
