# total energy = -340868.45120948186 ev
CRYSTAL
PRIMVEC
9.25714898042030 0.00000000000000 0.00000000000000

0.00000000000000 9.25714898042030 0.00000000000000

0.00000000000000 0.00000000000000 13.54877325979927

PRIMCOORD
 96 1
Ni 1.1740378958091549 4.193562460908446 3.495434584602927 0.8742727767573331 -1.3573529788559655 0.5973485112266099
Ni 4.222500308038739 0.781440364022477 8.710058706068603 -1.3737008240863697 -1.9454609453209142 0.9134785004225171
Ni 4.719488855346494 0.18571784482170586 3.9584364358280983 -0.025012977104569824 -3.099023402517353 1.0235152879676501
Ni 7.4222893316051435 4.6695187661560515 4.117662172230907 0.5307129734852473 -0.7811291654231128 1.1783928859765578
Ni 7.07347996504422 8.21845967078876 5.847243784329889 -0.721383412823048 0.16233431139726878 0.5789201293180933
Ni 8.720160106832703 5.944098555017707 12.27541901551737 0.5371484446979459 1.1381072989836334 -0.6009202877382683
Ni 9.118671105269039 3.699212201007003 11.000113466190259 -2.0442391292330924 -0.4080021900168715 0.21794418745208916
Ni 6.760523535762769 1.902529220159255 9.725526271609569 -0.4261960873170789 -0.13297488439854518 0.18294067479371073
Ni 5.778682563216297 4.777383063904669 10.628862919522728 -1.0456396306705154 -1.3233961622945465 0.022069321095213604
Ni 3.7298163349202302 5.803899036531369 13.204837680157848 0.5261055566202231 -0.37195840901943683 0.8748278779298547
Ni 8.777230429148203 8.99453273994043 8.043229249835868 0.0265461259196446 1.599815206054077 -0.24193849348415752
Ni 5.029066425318107 2.149778407300329 3.3035163015189464 0.4337810987531885 1.9547536834767496 -1.5588747590859735
Ni 5.7250466431034 2.5354867689544527 11.960897202374838 0.2278403635198786 0.1419215520688717 0.2916093783467236
Ni 7.588936524196165 6.117216494615791 10.021769844458188 0.06406186347691548 1.189191005033326 1.0814586972516536
Ni 7.178030203524557 2.6989587595091056 0.23713297493890378 -0.6231171355502817 -0.12986025002896345 0.15468450816149487
Ni 3.3726940487422246 1.4794960345674018 12.838017604903165 0.3055470714737383 0.010098778996898736 -0.172080077930123
Ni 8.955541629219766 2.707105050447896 4.955856264080127 0.12129282007492659 1.802462872358412 -0.9420048899969842
Ni 7.022121303534667 5.656043855992329 0.7974506028618378 -0.7046678998405799 1.6674714717504702 -0.8804670784935029
Ni 6.357985677601008 0.2979987282599777 13.230783616797893 0.21698516597292955 2.079568657772322 -0.1352467111518574
Ni 0.8185504221081836 2.156165839968244 12.790055391286158 1.3401160461523887 1.6213631074281818 -1.581873791084308
Ni 8.820581656950878 5.557455221335381 2.5159254878376833 0.07183816498822466 1.0658747267704676 -0.46443559041425175
Ni 3.5637893712984114 5.550197616680823 4.631431153157691 0.39578482201507326 -0.008136513064205342 -0.5783262044878362
Ni 4.6292686831993946 3.5940324764086693 0.47401600686036743 -0.3615930066247128 -0.2865731014743968 -0.5035374415117199
Ni 1.796442294979102 6.612973841133933 8.535835462904505 0.8781795680109069 1.0519190359213237 0.8186549302827126
P 6.201697234510561 6.40958502497921 8.389454020453481 -0.7478634613914475 0.3850522660889175 0.36923843898511244
P 2.135883426960415 1.3209488471711992 10.670458066199167 0.6666929632587034 -0.0870812071902242 0.39960393865084726
P 2.3588233413682365 4.559108752489064 8.242720806348284 0.8156097156984857 -0.7419057011461158 -0.76022532539091
P 8.662312184018498 6.169871156956516 5.728556953926113 -0.7706552624749824 -0.1541216936794894 -2.0056535556504103
P 1.7430840893300266 3.054636930475235 5.494352940865657 0.6601011689737988 -0.052961382688379764 0.3666477954398008
P 0.6548247856765729 6.150144172876332 0.5633502698678745 0.4806764777531464 0.4746827220635567 0.7739305907921445
P 8.004138161908227 1.6270179577498556 11.939314159961443 -0.21414563964160538 0.1110109785329443 0.40294765831209955
P 3.4000211519823478 3.5994756798995886 12.197350702592257 0.02844642826615101 1.1169527763932054 -0.36377947275307027
Ni 8.244703687619975 6.8733218938186305 7.702030185298558 -0.30398358364136036 -0.74902817112351 0.1603062252236465
Ni 6.449279679008223 1.1339544415307898 6.998415596902788 0.6308810957664167 -0.6907232647350298 1.0418932762542057
Ni 9.388600306955608 5.148298501785853 8.920620886823858 -0.3565279333969795 -1.8885727167743023 -0.9649419584091317
Ni 4.060000318107464 4.602089694339976 6.618616073323925 0.4375441653400465 -0.8835912259447813 0.7709301134029239
Ni 4.508620262966153 6.9543126886180335 7.213895175097459 0.0743665878370332 -1.1924485927386754 0.5338072961398549
Ni 4.184795941000452 2.5712563918947766 10.201386302509716 -0.5644155079440151 0.7492567421945483 0.8223310935827192
Ni 9.194255725172699 1.343925090478105 9.809095182348123 1.0823457278422974 1.3051724401976683 0.762112515111294
Ni 5.243915591679902 7.924582225171906 0.9319292033934333 -0.48151697137657073 -0.3411054281943222 1.2208572257883554
Ni 1.4251935997413308 5.564722083138733 6.4788201665250105 -0.03771062717689635 -0.8674608960418222 -1.2785964894813528
Ni 1.4254250284611827 4.708639476959833 12.47404410290266 1.9070769462260768 -0.09256896977767283 -0.49483322886950265
Ni 6.231431196437145 4.069331524091896 2.1567073831726975 -0.4069565223611766 -0.7868668392378384 1.3835473778631462
Ni 7.1097124454242495 1.2027443142195962 4.490226308312317 -0.9016766226915826 -0.860266692286228 0.1157081268982975
Ni 0.27590283980338887 8.010497823129759 1.7828555776940311 0.639827249216111 -0.0008785459502113901 0.007334585988200271
Ni 6.344109211558684 5.725990872280395 6.014530645902583 -0.1940460406782529 0.3275713982636294 0.10882785483869643
Ni 6.647465977540675 4.236284202593123 8.407013906000971 -2.476109127006497 -0.5610759020478208 1.0619962176516677
Ni 8.882400896597742 4.219158477324076 0.46411085765070215 0.9427250559924603 -1.2647850375195573 0.7039469625141554
Ni 2.723175460754418 7.466390388460138 5.611657678954476 0.6912418562426611 1.444104827731229 0.34773296081316885
Ni 8.843965214804724 0.825809878192501 0.5121147284372818 -0.44953733314618066 -1.2223055281991078 0.9508317442599947
Ni 3.208796229343044 0.19828349859478964 2.1195834393638 0.01385516071553743 1.1375966778958022 -0.41470145641391803
Ni 4.958480665763249 0.35659740584138144 11.094602109646308 0.1932878223559897 -0.61836676534949 0.29969112691359356
Ni 1.5574319702647588 6.449983222316572 3.8417278581216183 -1.1417886044899626 1.3263048513009095 -0.6096414696613501
Ni 6.832247924619299 7.44531186065602 12.59716140471928 0.6329117530432002 -0.8636608055694416 -0.867916495522002
Ni 3.2591180901876613 5.907264359966063 10.945077865179696 -1.3023637671042798 -0.5797655080375241 0.36782561779798584
Ni 2.708040022476098 8.216182412185416 11.87181380809965 1.2815756267143348 0.01768430465364051 0.21944056949195756
P 7.403173319345369 8.029595321091946 1.5460095743677438 -0.003455562648768242 -0.09023543654848976 0.16691601723068028
P 2.895932371549533 8.295886463302441 7.948563794837849 0.14790399490455175 1.7044336507971163 -0.4337828985254013
P 5.1546951916025625 1.5407228166914448 1.1217840680112134 -0.3346599296792946 -0.1242004806400248 0.11101200697420881
P 5.05548632797641 7.498929266471329 4.993698562635446 -0.3491858912096115 -0.4625602277684098 0.35456772434681516
P 5.144715985202544 2.5638691871571013 8.238737455222191 0.8157382708565499 1.5523205029072233 -1.5884036217830255
P 8.27426176371947 8.771583568383814 10.341060014944551 -0.6669613864287416 -1.7127077178804502 -0.5644329914455117
P 0.9352034569218993 5.931369975425847 10.569383887091007 0.9487740904000176 1.1886305045441659 2.490449197778253
P 4.836202987342252 5.893508236858061 1.8088292857804598 0.1877427241680444 -1.4553734586665128 -1.0388298068375335
Ni 6.395606730300149 6.726586828283673 3.3843886048137857 -0.4106576253618476 0.03690561477709774 -0.9080750700187586
Ni 1.0156665942400398 2.9013292892964815 7.822411073931649 -1.853339604603621 0.014603351735471625 -0.5050556779284593
Ni 1.7625148446488 2.466761696307205 1.7131205501133495 -0.35372388828928114 -0.9338719764772047 -0.6562247167375279
Ni 2.0328050751383384 3.7270021616868303 10.253440175893706 0.749163925370426 -0.3093150231566028 -0.35430881425847366
Ni 6.245640919836058 8.78559889165805 8.80228582807426 1.2958971855433294 -1.274910298879017 0.4281634954560949
Ni 4.54496382913171 1.7452595192966354 5.662181345642804 0.26518229450344655 3.4390335407649677 -1.0934066136421492
Ni 3.068800368130177 2.4592819200815885 7.325252195086082 1.7433082163751266 0.47645369792105036 -0.26375507513861673
Ni 3.8937789543609695 7.355952603346768 2.932347217760804 -0.18215905943267982 -0.24335954220140021 1.9458435254713131
Ni 8.382570404610204 7.917120963243878 3.949914304648269 0.20144721823833048 -0.04528329731783169 -1.6588883580671494
Ni 2.512417954159606 7.347093511950834 1.103716890709808 -0.5781991919916687 0.028330471513577014 -1.1565125409636987
Ni 8.277427708607048 4.401820537328856 7.026922060899277 2.2474316122973037 -0.1345291162595425 -2.867102698280514
Ni 3.692954368422205 4.169317988216751 2.652063895148057 0.6914362316416544 -0.4854011369223253 1.3242741940241256
Ni 4.467231550707823 9.116393846665694 6.53900366797996 0.4959130921972427 -1.676407340787519 -0.2079760204957838
Ni 2.180817627206878 4.659789502773475 1.1640318436776342 -1.1815656272775843 0.9655777922209178 -0.1479160790894098
Ni 4.3242456304344685 5.051885297095513 9.064453836211872 -0.9619841613323883 -0.05580116613002003 -1.9286479875286333
Ni 4.31070242174873 7.638314155863787 9.91187545397903 0.07911567248624439 0.23111980560209874 -0.9828630616639267
Ni 7.151082643384991 0.9705102224225192 2.145204450081174 -2.8326188055710317 -0.49320032125176994 -0.7853311193196023
Ni 1.4378018363988672 8.65607286573129 9.786698436555728 0.2682717320620477 -0.04859873484430985 -0.09660148797583364
Ni 2.167468818645815 0.5688915991360106 6.20723486091918 -0.598478253955679 0.08190583363687184 -0.23732336330964932
Ni 0.6061460687429049 9.050501461549436 12.14834428259128 -1.3292161114104333 0.24878508409234573 -0.8002458316479056
Ni 9.181971488722954 1.0270251158103756 2.9886019852675467 2.0795169785987797 0.04468371606061981 1.0794149273487474
Ni 2.601730925724887 1.843949982590319 3.854395340531437 -0.23398401452377124 -0.18359759165141928 0.8157120456043049
Ni 6.657241526667222 3.0911748967654678 5.963857939118669 -1.1558180859998353 1.2172024026445876 -0.6672426651145863
Ni 0.40571583734276817 8.092395818510983 5.844344445327583 0.38883255906695613 0.7178224349446669 0.8500144184306007
P 8.569842524714435 1.0448173557925966 6.027144436849396 -0.19777773980654323 -2.899302937162142 2.0857200220856984
P 1.5761962108703582 8.901192908649724 3.9561193714849403 0.0752962987401542 -0.1614195128924833 -0.014498450726491158
P 4.7029185590050915 7.566543481263287 12.45901789898011 -0.4008498952428064 0.9953228846938342 -2.254590591939588
P 5.064567590943402 3.9529876780479034 4.5484852485329785 1.1344748444373687 0.05913820092305299 0.41708538326506234
P 1.8668243972604897 0.33138926396022306 0.4045003737061055 -1.3027594598808014 -0.5020868251081225 0.18530043327513893
P 8.170072554042106 2.9322389091199135 2.294796271733984 0.9658423587362142 1.0645737485708568 0.5508154006620772
P 6.889179389702889 4.961350381889414 12.227347567544593 0.6825325013941214 -0.24016777473697992 2.3554439132132403
P 8.454341079210703 3.15673402452514 8.907979324430665 -0.590960348312079 -0.0713761377501416 0.343944183194698
