# total energy = -381159.4985890861 ev
CRYSTAL
PRIMVEC
9.35153223197041 0.00000000000000 0.00000000000000
0.00000000000000 9.35153223197041 0.00000000000000
0.00000000000000 0.00000000000000 13.68691268886232
PRIMCOORD
 96 1
Ni 5.331766796031567 8.75788768910002 13.870180567846624 2.6478007112489497 -0.13488624248864514 -0.8784243370318613
Ni 7.019811893631769 0.43884964348064975 12.125345484823416 0.04682158833922904 -0.2854312745604697 -0.28127508630025105
Ni 8.23449177714176 0.6475029027276458 0.6473663703558937 -0.3570496102284044 1.492531555774049 -2.4759443192938586
Ni 1.845188246567428 4.571992201828331 9.23074137437278 0.903319043391012 -2.0279625035602558 1.1823467284179832
Ni 1.2079561317778154 3.5001195682516024 4.927521562717445 -0.7197332788141347 -0.05276957839254783 -0.8076056144470865
Ni 5.4323986352386795 5.913759409455468 12.60431881284101 1.1843408760298766 -3.9572051872500946 0.36903815004884827
Ni 8.195131177641457 4.000146000962714 4.780058184846147 0.6204151632380863 -0.9586352994648135 0.9241236388411891
Ni 8.647511553224028 9.149193207154326 5.1357399757119415 -0.0099869360093828 0.4059751322845137 0.30047017117146313
Ni 8.560504896595186 7.203737831139946 3.876366313824243 0.39492735911078436 -1.387044335272811 -0.8948801685950395
Ni 3.656299509390714 2.3326181652545666 5.4060020649822045 0.33393205037433454 0.49398913570165254 -0.28018288167733685
Ni -0.0016411939207181632 4.97567914866344 2.7016464630357406 0.87697397773858 2.451024159013411 1.124142352163109
Ni 0.3962880144700254 0.3542248221316191 7.4292977256534165 -0.16723586246394423 0.2956984608144327 -0.4759613316656642
Ni 6.368580534971415 7.968001160852837 9.231056521011688 0.3464831475664678 0.30674032045089106 0.665962255740266
Ni 1.3972404973006431 8.395001477741225 3.534070306309536 -0.24259721011407895 0.10934233258126975 0.40230488252177804
Ni 3.328032670650146 2.6651680057939315 2.60984808125034 -3.3060789680813967 -1.3381321829531405 0.4160073197095352
Ni 9.375659265148808 3.3864329899372394 11.367706780600193 -1.4546964872041463 -1.254974993407671 -2.446061672801813
Ni 6.094739614285433 1.399381998200042 1.2529332615845734 1.2009913401023637 -0.49552999782621104 1.3695148110294801
Ni 0.9248861838533324 8.910579508686835 9.755743879582205 2.027444683383573 1.2693227774889106 -1.282386038430772
Ni -0.06896755079940999 4.597643454959556 7.873793824343922 0.7038893698033426 2.901067485261733 2.172224787947162
Ni 3.7476265739476005 8.873584846861416 1.7593701696954138 -0.36882911936183577 0.3529129623522116 1.9830044507923268
Ni 7.750849229040893 3.4020406973656074 9.409492173899615 1.6314233198776613 0.30561417726624784 1.1938364742251373
Ni 1.5282274103918077 7.932268955889509 6.02261124556464 -0.7239719994858306 0.3995592014558409 -0.5103241254162502
Ni 2.8594647926358765 8.74945260695479 7.9014958685111205 -0.7014663621841467 0.6866730059250561 1.6684040108670686
Ni 1.4360867625237959 5.5407548401353255 6.263350547326599 0.7800752702373016 -0.27792416755014715 -0.11486043418602154
P 2.899143344234778 1.6107172769140579 8.642724503833625 0.8736338576217535 -1.0645084425505604 -0.02887683093535027
Ni 3.311676840636835 7.686099219314096 13.835689311221069 -1.5392140474322524 -3.2588521738839487 -2.869356784422013
P 7.583064036302856 2.898918907459295 0.6411728505057989 0.48455087310688805 -0.5617742136664261 -1.7391425150332112
Ni 3.0200960631553975 2.1637762493652994 11.508202331745979 -0.63177943921097 -0.7617530748893462 -0.9155842339116103
P 5.59403051971556 6.254351567782969 6.8844353712734545 0.845904252916969 -0.4249275050173005 -0.13280801980337772
P 4.271845420749299 4.453564396631894 10.00102709089446 -0.8519568868689521 0.20719800467917865 0.03031536315408973
P 1.5851688906382626 6.398552196030685 4.143083237195108 -0.06115677401497855 -1.3402019209979759 0.6411336267323604
Ni 7.592078913451416 7.361666508821361 13.052291811245036 -0.6980241692718172 0.01948741930065031 -1.0162264676157207
Ni 4.0038866138874285 7.116441277009438 4.026785711059294 -1.7389712795626695 0.17004299289543617 1.3689234573023845
Ni 3.151840450363816 4.657960838370565 4.53756734108219 -1.4920013943021917 0.966584121998245 -1.1963358436082234
Ni 7.08825575862172 4.32478444516631 11.644318560310158 1.0749149825958648 1.799919537111268 -0.2794598874683832
Ni 3.63971924260192 -0.0642431566754965 5.875928720641376 -0.7342368717469483 -0.09903683689020362 -1.381137482870073
Ni 0.9548382066947467 1.2803837495325856 3.274963659934001 -1.2890092001742448 0.7737824952500545 -5.067481580064389
Ni 8.69820620988621 7.597558911386122 8.446795874603275 0.5783781407716942 -0.8806740522979866 -0.2410905436615654
Ni 3.5035048229484684 6.649360292632743 6.667128204025134 -0.3797408811783331 2.088601457398551 -1.2855148138677408
Ni 3.893295392768266 4.871839733873386 7.834594071199383 0.6497169975259971 -2.101051767346762 0.8346965571266076
Ni 2.3553423887722027 4.430568978677215 1.8446944856613658 -0.19842617202381957 1.4025344604886103 -1.0090703161869137
Ni 1.4253418518975554 7.487669055190343 11.5999053279018 -0.3358608919659312 -0.810589636776075 0.09748080525699342
Ni 7.393246633438256 3.8279375334412045 2.453967389145206 -0.8819215515518424 -0.6022143239593435 1.0749442931719035
Ni 4.761575816385136 7.6196565822388695 11.941543922694986 -0.6369131608931096 4.560274403010566 -2.9362612595540463
Ni 8.704668118713654 8.993237702790697 2.4245138029760094 -1.5495216000058476 -1.082534961034968 2.5553034752494765
Ni 5.23452021152132 2.3999679009640382 3.4086297870324906 2.9986349366952614 -0.18224750538142806 2.0609029630420186
Ni 6.8921073683820415 5.588344788069995 8.607905008423927 -0.2601881837229648 0.6908261088614813 0.16878186679482546
Ni 4.761472949529707 5.109536982174323 2.750658779035034 -0.59824839733306 -0.2660960645669675 0.9260846192223019
Ni 1.575611624615619 1.2597449177204771 5.115867034396169 0.7780957779134277 -1.4878758021695924 5.670272345352493
Ni 8.090197633570925 1.8717185437359605 3.4752164377053205 -0.5667341287748627 -0.7048645892324183 0.4371651847340729
Ni 6.489421035504293 7.604731536669261 5.161799890805192 -0.07430488136116237 -0.5415918251812802 0.6091465323028026
Ni 4.066093006825418 1.3250934255152265 0.361204805849135 -0.06457608410917266 1.270313166426638 -1.7718047811529227
Ni 5.914264392200305 0.5976171536104318 5.129978496654651 0.40368042271306603 0.16196741497615333 0.7475510723573513
Ni 4.935589129642821 1.4832652430367481 7.487096741412862 -1.07353789974268 -0.5437451240788571 -1.0244617110413194
Ni 2.106909581377338 0.07419692766815983 12.727706670775618 1.8579884162295421 -1.5746042540060883 -1.2018860840024914
Ni 3.28612845436104 8.808339205922097 10.51512103366219 -1.7395199529772882 -0.27868367142399103 -0.041280346806025686
P 8.899516645961993 1.0523559856420344 10.57067661682004 -1.2891655232464507 0.21074509860048865 1.2574615072749507
Ni 0.7313964342498949 6.79477662008099 0.11285616224507655 0.2687550994563694 0.9685517872475772 -0.17534692160685286
P 9.319924132570574 3.0047969562933177 6.727405375847202 -0.4025499086530486 -2.752263604250731 -2.124226148580697
Ni 1.468218627547087 3.6806134934013532 12.994792979672797 2.1268005941760917 -0.7988250400409791 2.364828953972566
P 4.487323428277436 0.5509099903259934 11.973831023154656 0.8327633446596369 0.21361573528006433 0.27272308296518194
P 5.827398008556139 2.6768480696513506 5.87332805950547 0.449268138645194 -0.9408982871963667 -0.27477970838389454
P 7.856082022145402 7.014892987635772 1.37120957195756 0.45731697709159946 -0.46706634316887946 1.738981821085631
Ni 1.9493736680530183 1.5779495076935652 0.6864698027176203 -0.163208486472106 2.233987570977256 1.8143318558818557
Ni 6.820839340633933 5.482391926977479 3.9455265061892755 -0.8500532420883359 1.7614712604373985 -0.17332372052923697
Ni 5.095182380075733 4.506456663387346 5.424451703080124 1.3973287479179546 1.8813121785571472 0.466057699398707
Ni 2.0947151832427715 3.125469129244584 7.173968163178611 0.2995867401252454 -0.2275480290904404 0.32964087919814844
Ni 6.574361003492232 5.0067542905355005 0.6168345525111488 -0.19662819958313232 1.0694007376458552 0.62786442042728
Ni 3.8519055107563083 6.942306393831701 9.216411086258201 2.4053996763060765 -0.38941002883698095 -0.3672502049104901
Ni 0.43615733732808704 2.9989709516630763 1.8008283178932476 -0.9012271938589899 -0.8633018795681261 -0.9662614485515036
Ni 8.82051490099204 4.959753489136471 13.817623085947933 -0.36582169999407965 -1.5200513584608726 -0.009691002035518793
Ni 5.265268049762469 8.481942673643886 7.246002081423055 0.2312185359634921 -0.9678974414930298 0.16016558588072416
Ni 4.969488434273039 3.4366600699838337 1.3058002792027843 0.8844229778174575 -1.221015605743091 -1.1692369305089025
Ni 3.9863244362058974 3.6744414820755757 12.86409689923653 -0.23589871504798085 0.858378988345212 -0.39676698342268446
Ni 8.928450286934655 5.777133522380299 10.208506732836328 0.05789970053026157 -0.6977583172049402 -0.40942940938170136
Ni 1.005785354729348 8.997361728540193 1.0736606465547418 1.2942478228653644 -1.1105674416921518 -0.14418283729922265
Ni 7.4801597747439805 1.4301765941027478 6.66495210245618 1.3450890738869479 1.9516254222604135 -1.4878477771451344
Ni 5.0908245660184415 0.6122719398962292 9.749667253886008 0.27691243845618113 0.5718046013192346 0.27806532111370175
Ni 0.8661015165882245 2.0377643514640043 9.199384751378135 -0.12026386458977999 0.8924846717796694 -0.1051087541158964
Ni 2.131045886274054 6.803408084404767 1.9627716083961118 0.4675378834886593 -0.3446404379307742 0.6244286552728536
Ni 7.40825584279867 1.1188173257818863 8.847248126411738 0.32801645622084796 -1.0313954620466754 2.1081205012680853
Ni 3.190144326712885 5.960489016417456 11.34996785895797 -0.07641190040183614 -1.406175142564991 -0.3975455134599218
Ni 1.693730829245768 6.698324915817245 9.207008120518703 -1.4117567504178268 1.7904488786166712 -0.712863805387811
Ni 0.46927204839734676 1.4702666131233677 12.631830085749048 -1.8906709940642277 0.3686388577279006 -0.8200785501031166
Ni 8.639703023743687 6.308871001160672 6.045495380284807 -1.066439855245318 0.191598864689341 0.49841631823507065
Ni 3.1945956560932944 0.4825044666185217 3.5876274670123562 -0.10187610611121165 1.3783689189860004 2.051291150983867
Ni 5.937474895398155 2.5671639471664314 12.080506757694872 -0.8640827235982086 -1.3772823707900408 0.4904713523563811
Ni 7.293587353591571 3.856310082475159 7.15468343324525 -1.8481575461820494 -0.5109285917694685 -1.736248738425184
P 7.458969202525477 8.768604545129325 7.221393524144594 0.3072771667909676 -0.711508062690865 -1.025086746219828
Ni 8.566106464449945 8.17748483616912 10.910262550270792 -2.185860890673358 -0.6409456790912703 0.5887304305402957
P 4.161506691002555 5.283054664219482 0.571099948587136 -0.8966190056630172 1.4843076252023597 0.6431696833257826
Ni 5.648652819948693 2.810266381143579 9.076106306371575 -1.1225634377117635 2.03533668453714 1.4586091919949913
P 0.6735833911919813 5.248407237004321 11.959912202461796 0.8951984711664065 3.0072265350190146 0.34702847854697655
P 5.260573580541952 0.12684511943027485 3.289896186729458 0.5633184182250943 -1.1832198750515557 -2.09750878719051
P 6.892509484271448 6.461974288169206 10.67728408517438 -0.12762570427148986 0.12899224560171332 1.4400864506004556
Ni 5.466746813419863 7.22781802684279 2.410443487459699 2.431676093504102 1.3207445836043123 -1.3760875791509914
