# total energy = -340853.10252473707 ev
CRYSTAL
PRIMVEC
9.41477899359241 0.00000000000000 0.00000000000000

0.00000000000000 9.41477899359241 0.00000000000000

0.00000000000000 0.00000000000000 13.77948071756595

PRIMCOORD
 96 1
Ni 8.934597067042452 2.4866973441715006 1.7970233542769547 -0.049021424204025256 -0.21378028588238665 -0.9396775274153881
Ni 5.401578839198157 6.928919613712896 0.4478506827971381 -0.19146619576621865 -0.4498265822518253 0.23595039422152267
Ni 1.4681688882323136 4.513868738055198 4.640392070652213 -1.1576970481901028 -3.2989616403103246 0.8353519313224195
Ni 5.712520746636444 1.0668921758807643 8.311796252687136 -0.07301315913293233 -0.47104024021496305 -0.18088302093373365
Ni 6.762014410846577 4.089205714561954 12.132033969216202 -1.2441336798177929 -1.4098641613808043 0.10534401005515408
Ni 9.296887179378803 3.5923313358123563 13.259815287076753 -3.5777034186657612 -0.43395464821657526 0.5700284832554182
Ni 2.8514447138379575 7.9082825888350765 6.72451063853058 1.5208334880425356 -1.1647938071358843 0.8362536172010824
Ni 8.240144135305908 0.0702860329421541 12.035756555771282 -1.4909138176649679 0.32012779750139064 -0.20411422354753234
Ni 4.066431364058028 2.2224809851213885 2.102307920988572 0.048250864586587866 0.9319032827866081 -1.7300937745673817
Ni 8.582230131816948 4.917903980666215 10.999911496739134 1.3677263516704896 0.918144795549935 -0.22020958644749816
Ni 7.764810771005663 6.111933332737569 13.117762276449051 -0.648660788347341 0.5293379475145915 0.6782223040545416
Ni 7.520299544491607 2.7169545952151366 7.747361419528201 -1.5806579163993357 -3.8744899703380495 -0.044985306461438654
Ni 8.500283895030595 6.165286885571697 4.631696580728515 -0.9552542988077227 -0.5872780143644855 2.1171533008943153
Ni 2.4737049490927823 8.148999659394985 4.043023398924536 1.635683380705596 1.7653762519187597 0.9678491047535975
Ni 0.8014302415633228 1.4262354623767979 8.788442978663815 0.5105431834055918 0.18672765263996877 0.15766210273258008
Ni 2.9185250145161237 6.735125801901054 1.9001490779974262 0.96330699390887 0.7299356732684331 -0.5049857439224722
Ni 1.5197053887112304 4.743165681636493 0.9822947373160305 -1.947802191859581 0.5149837356754486 -0.5656794622581032
Ni 3.3083815998890604 8.289760020860143 13.239035928251942 0.03924968952924208 0.12672196151029788 0.17080249676928003
Ni 2.688286593030573 4.526795229680618 2.704966757060258 1.8222084304164554 -0.6311906565870355 1.177937286496378
Ni 6.261261143131448 1.9362717022278804 2.692551487936848 -0.49562564286381094 0.037020028867774946 -0.616009577971223
Ni 6.35436389308322 7.896156353428273 7.561490144280666 -1.826811990626738 0.7050029145824955 1.1319803601502891
Ni 3.4183462191060396 1.0648962427237438 3.8629535105230195 0.506528920039876 -1.0538512199470302 2.324177756110107
Ni 0.982761710356541 7.757947397083644 0.2202691119573949 0.5367182991390628 -0.10805138168398812 4.100335672025404
Ni 1.580223588396739 1.9543104188734055 2.713441941154361 0.92186621026558 2.4567394642306337 0.9764430170701958
P 7.894000369027529 7.2492480558566035 11.308985512015377 -0.9064671021016905 -0.6287815329249106 -0.8217322836564557
P 9.251451455719458 4.882099575967398 2.9610449811059905 0.7197384210204572 -0.48870988958058414 -0.8258051681742489
P 3.3499855084780874 5.987761811945381 12.856365643722183 0.5802815284419942 -0.5139979747234116 0.7162262941021407
P 7.347764303757843 0.12207296654360249 2.878767344097341 -0.8988838904377939 -0.2543144985510072 -2.5897238617108753
P 6.394188408433205 4.837002784353585 0.4423195001096402 -0.778538264767485 -0.17538805925743345 0.38429121955317685
P 7.820678069844152 3.3294048014910738 5.9059134888610725 -0.7733713758545648 1.0723688191352434 -2.9426455658138355
P 4.427215111747571 8.636007349707992 8.589067144357648 -0.5662235076870313 -0.12219913393927985 0.5813999583171535
P 0.42933557833206004 5.838867081387459 13.012900467473132 0.9275946281089251 -0.13949211669177267 0.21110685281528158
Ni 5.0139441416792625 2.19715522949693 5.637433176382589 -3.1921186771121413 1.463603302775473 -0.554078130573749
Ni 4.212209802752866 3.6661620330640305 12.983881294030283 0.7873854307454697 0.9303760475088042 0.4899291066996659
Ni 0.39821220177319955 8.064520847046188 12.047661543870586 2.5136382343002066 -1.3069848108160589 1.1942964445806916
Ni 9.120586027028018 0.9547433279259133 6.076558241963093 -1.2686872007874408 -0.0200044681463849 1.9950852932162608
Ni 8.105974119170533 1.9667473419886135 4.014955118164983 1.557246736564247 0.9160532031282288 0.6133297171462148
Ni 6.288046189507502 2.5899492259311425 0.2954527129574833 -0.021902199389730023 0.45082776982283 0.2128220357341754
Ni 5.076533592754132 6.9596306229496925 5.910997469544049 -0.19640965581442302 -0.006117682861963657 0.4297277546194212
Ni 0.6943776135042039 1.4463360156326412 12.595988631565623 -0.6669529017883095 -0.4177117039951516 -0.1086324509984387
Ni 6.03295275134962 6.9163226393539645 3.762955376400483 0.8556731593782747 0.7546272624778424 -0.7321216251761585
Ni 0.8181226448057631 8.435293675299874 7.8898550418150935 0.42023729863048265 -0.33174301314281573 -0.29256274339892835
Ni 9.360107420649523 3.6487729361724415 8.265152612876632 0.9346440787565388 0.9691912206037889 1.216917267304001
Ni 4.623155493181113 4.001544706896776 8.951495653945925 0.28557474211686945 -0.7329127536188861 -0.31663881051152565
Ni 5.993401264591869 8.032793041672795 12.072188926232236 -0.04910087129170899 0.11005169994346853 1.7151955172993105
Ni 1.8446094134696172 3.4248141723082712 9.692293776997323 -0.09170199379168723 0.6540004553926995 0.3152020780649991
Ni 5.180322116919199 5.066638659980413 2.364545293483941 -0.648986804228192 -0.17726239346201084 -0.030946826090501544
Ni 6.8015753123833695 1.2204942959599612 5.761917267838989 1.1019665873970184 -2.105920408292973 1.274858105484843
Ni 6.4693560043089215 0.19805023341697783 0.4692975494560661 -3.713724803200114 2.4337753992352926 -1.6147633427234769
Ni 6.624558636825352 8.171962305479763 9.869429078771276 -0.3037511559155801 1.067629504678045 -0.9333107046570959
Ni 8.700912836427328 6.983967826774684 2.6103576424616772 -0.43705411307750536 0.5827163631357319 -1.2820908757878564
Ni 5.919288123968919 5.691629351941026 10.552918500312773 0.4978661021585555 1.5877119950326397 -0.38922388096810384
Ni 4.918986680256108 0.5240576702791516 10.907560987632861 1.690548922395224 -0.18454401472508863 0.8590880985970947
Ni 8.159798410956789 6.314831235883555 8.879442466977483 0.3345041208277207 0.2776567728213734 0.7463539667254566
Ni 0.42815119912850735 0.11280411657621241 3.4378978907437023 0.22040653294965268 -0.1806292530517147 -1.2296226306858113
Ni -0.08502486953326553 8.238844895798035 10.050891412993186 -0.26730294039087515 1.1043726257353497 -4.073941241192274
P 5.0339787914818075 9.16700088770779 5.016006919767485 -0.17090508378541533 -0.00246440238009253 -0.601099750738926
P 0.836540777046703 2.312683983128056 4.9599654475167085 1.6155930377136238 0.47889444615205906 -1.0030871020202854
P 8.532642490599839 0.27496897819460814 8.231393098185857 -2.027498162329328 -0.34627668798261657 0.396272303174453
P 1.9757007968580782 0.06213754168082742 11.305278913506326 0.5513923562114696 0.20330638293425632 -0.32756599894699073
P 3.9213496190123376 3.3560674557395744 3.990000304834801 1.2018763138104784 -0.5434191081980061 0.8806820227177865
P 4.101011847481312 0.688141263866419 0.3839996513305667 0.7752814483930842 0.026318069069238545 0.5668197465101334
P 6.741593755103286 1.3918150301972363 12.254423272335636 -1.7979264179406393 1.03501197575334 0.3500392403488423
P 4.696345985457894 2.918157838133464 10.930090553881683 -0.03695266596494926 0.21549341191875143 -0.04710081014254469
Ni 2.414580136705571 2.228628835836173 0.28901865295980494 0.008084576780347366 -0.11053943821316446 0.4647022138120771
Ni 2.5123714466205334 5.137240088020492 7.973372605223647 0.48850780087210716 2.333245008518698 1.4190386287912207
Ni 5.860586976638622 4.73680129100373 4.905564029775145 0.23347904986289467 -0.805056879883304 -0.6084163390049974
Ni 7.376903044894534 4.083104937742383 2.35884087886206 -0.608781692764216 0.6870571287373521 0.23000240416820386
Ni 5.06987734397105 8.830111849228237 2.4489582023794405 0.0414271567965351 0.4186498995387048 0.3831123687537273
Ni 3.8214776429289716 7.231491782582355 11.149060426331204 1.6972926688769607 2.7682430103981233 0.2838551883226015
Ni 3.727188630817837 5.05942693923382 10.836252509686686 -0.2909835718372666 -2.6349253979481784 0.25742064828015665
Ni 7.077437753109115 4.222509571025415 9.166124371778928 -0.6395706531206147 0.44489649194005965 1.0465372027841202
Ni 2.593131421247524 9.364344071218671 1.852003780929636 0.5158959630770728 -1.0619679355168936 -0.4461771584246961
Ni 1.7272165335880663 6.116725455270226 11.065556985091215 -2.4808949784309147 -1.6133885738631373 3.3402376162409766
Ni 4.081203152375788 4.294269016887728 6.586275320804632 0.8159110489889884 -0.11065410941415782 -1.0335996687868458
Ni 1.8805832841911994 0.4024394375633043 6.2903057364777135 1.0593168710472918 1.9903182108449207 -0.9633987822917277
Ni 8.321299530652684 7.4934203503251275 6.838274121091228 2.239124120872873 0.8439946945990819 -1.9293203310053093
Ni 0.29286459019868644 5.443126259112929 6.7994296842395725 0.11768299123648121 0.26526894067998186 -0.02466356418495107
Ni 3.3246974119697987 1.3167039229957758 9.576808331349792 -0.9285577633531428 -0.09788344001205078 -2.060974439709902
Ni 7.873607957621366 8.320885280374814 1.0510659323102385 2.769975162597881 -1.9823894429161475 0.23584755009507127
Ni 1.269705346015368 6.41939177193011 3.625174792502291 -0.43651880939932564 0.54842967403872 -1.1432423062173536
Ni 8.0147166659111 8.84120245894036 4.647101983675838 -2.9899230107435604 -1.9261717580739988 1.1210837678424435
Ni 2.714459678768861 2.312731057023269 11.606112172686627 0.4478800000484157 -1.5377045527662616 0.04196374602629547
Ni 7.312543615359664 5.371790478307531 6.795075348932393 -0.4839345796791279 -0.8631800092782812 -0.5134156198573803
Ni 7.486321606927045 1.5475448903400495 10.021747022989071 0.18243468169156965 -0.518323855792275 0.06489978599717855
Ni 1.7943627377195301 4.098432198023653 12.604848880122566 2.7912669820971217 1.425087920309094 -1.360970521003895
Ni 2.3634296421673984 7.20322861589662 9.429491517759402 0.5343541697822604 2.5381740146580416 -3.8253721297654764
Ni 1.797271904443678 3.4869611287681415 6.767653863493064 -0.2663457186839284 -3.075341485519381 -0.5479223953849982
P 0.7942100475155914 5.563899044670755 9.15694684516825 -0.5641046615718156 0.06272257584020166 0.21235666606198267
P 9.059013372089744 2.8146517573396737 10.761292038949906 1.1263496442270728 -0.2070995314281014 0.2970359486789336
P 0.4652237745643549 8.29923128857695 5.235458828903987 2.0921570359602937 -1.0083061843273795 1.1490830812688468
P 2.1369665470779102 6.07498032499556 5.835540839951727 0.624933362823414 0.1898903666386665 1.230781426880603
P 4.006845227497731 2.1982096847496955 7.585053453268359 -0.7917650478704041 0.9986025838863705 -0.1428453494347217
P 5.48936223899089 5.798665974875773 7.846546116741461 -0.05702681100700501 -0.7444469795107308 0.6484802969054188
P 0.7317015635404877 0.701892490135967 1.1302809416963466 -0.7943708609243674 -0.12311830331943958 -1.20325493932556
P 3.922978375786699 6.330271473513336 4.249081843395107 0.15556099722917727 -0.27413487571104406 -2.434668600473523
