# total energy = -381164.71043251356 ev
CRYSTAL
PRIMVEC
9.26632749176576 0.00000000000000 0.00000000000000
0.00000000000000 9.26632749176576 0.00000000000000
0.00000000000000 0.00000000000000 13.56220693893645
PRIMCOORD
 96 1
Ni 0.03908814875650747 8.438232760764626 4.091595962976621 0.2525880027782037 -1.1624985833438042 0.1381569428201169
Ni 4.948904525278659 2.8660843227215977 3.9268415889217114 1.0033778937878268 1.5870136834140345 0.22693045011109947
Ni 3.3103398559537616 7.825441265276728 0.9724834517490034 -1.7029521811555832 -0.18089741911143686 -1.2846614647285102
Ni 5.502474922527256 8.780391899003735 6.890265900795925 -0.2871708829593958 2.253578862845622 -1.556217009748152
Ni 0.8942561894354383 3.717409617439045 6.88536957341216 0.48128068699604853 0.3127348474714291 -0.632521202473001
Ni 0.22250675940562784 1.0204357692702917 8.335047572305273 0.2860761072333202 -0.2759930119657053 0.364560831003785
Ni 1.9610328618968957 8.999308883185158 12.294032197617609 -0.5211361284300896 2.2126684977845055 0.4598757389577112
Ni 1.0510053832730222 7.009253883956782 12.31951552452543 -0.11716080018442404 -0.9864407517128561 -1.3592702504833365
Ni 6.20753123966571 4.513757791853917 0.2208416003767431 -0.10177300487444409 -4.005028991601592 0.7833896793225154
Ni 5.06788416874488 0.8180221141397536 10.290419634810151 0.023432777101643515 0.011122335165406652 0.17561328789436206
Ni 7.817537088027765 0.2686512164564909 6.447120473583018 -0.29878866970398216 -0.4976100202836915 -0.10491540715816769
Ni 5.548630499170966 4.4751357393642595 7.153901254245543 2.696944777073768 -0.4639727918452203 -0.07709118585704788
Ni 4.055834425746934 6.110447927781319 6.6589894891647194 0.026223452472903225 0.11783700031584222 0.28227267432683
Ni 2.547007605968029 4.615261141895115 10.86662303666671 1.058827590115699 2.944416284561013 -1.2015711238652338
Ni 4.860614958071015 5.21242960943254 11.995486882423862 -0.07483889948776143 0.989346355395425 -1.882927345563067
Ni 2.0643338794484083 5.40107350208716 8.306580487983421 1.4094090761212565 -2.1602568169520087 -2.2675558938510045
Ni 6.475986009981898 6.800789317051832 7.23964165479294 -0.2889526574501669 -0.0331839429511364 -0.21968071052722166
Ni 6.7443944486612235 3.812732327122613 5.143805968808102 0.4777780731594288 -0.581042832088051 -0.40355341021689856
Ni 0.41481085137248636 5.6880516608214915 0.4371899586104356 0.8584756618240763 -1.68091602729115 -0.10194938255130831
Ni 2.6474638610161048 5.1363067300653285 1.3816094112783026 0.22504326039071565 0.7739573302650219 -0.8352825115370647
Ni 8.957999595757398 2.1803019665184817 1.7601435176191762 0.08565733025950409 -0.2899934400098554 0.25140709509622505
Ni 4.342136142583056 6.660154266515476 2.828167437745007 -0.18430053125571486 0.1581164166611793 0.5807985772877288
Ni 4.659368860189446 7.492993238124269 8.655861725441232 -0.6950584017752739 0.11041191149636467 0.9582982278403689
Ni 0.22204158977151534 8.583287849457788 10.37645841109895 -0.42787218946792116 0.4226536213814592 1.2909892067187507
P 3.0172181221712897 6.1957444712475604 13.040359810241593 0.46339249386171805 -0.1934667711360152 -1.116906239425986
Ni 0.2761754742831709 2.452074082034118 10.66319008552517 -1.164227393109453 -2.966374791109975 0.9464598404445441
P 3.7532981033537394 1.1023593695728502 12.004424255174888 -0.8306930923941694 -0.265349159098614 0.3842379977177382
Ni 7.273918726377511 0.46624823461866916 2.3884672310492907 0.2119288344959447 -0.07461572773336182 0.11487688924625376
P 6.844665377161843 8.012120696528322 1.1382932604916707 0.35840432448408593 -0.5798668095020788 -0.7847878452216226
P 6.284571485442825 1.5051944194487834 5.282710069391228 -0.08624842687628372 0.05362138486988184 0.26663959577526336
P 4.344610251991582 4.483429102362878 5.238483742106525 1.0633445041494463 0.4987675309269023 0.572145272488105
Ni 6.432740060133234 3.7105803341653223 9.293149683971755 1.7753259069323035 -2.304519101338915 -3.99817340213234
Ni 3.424399079585047 3.8505204101487225 7.163815297901657 -1.3716704239199022 -1.6943973496070368 -0.047585463088447084
Ni 2.485025142171647 1.1153970921863217 0.6956028099527657 0.27258424339447246 -0.3506010263895833 -0.09424969991420541
Ni 4.8525347206019696 4.2408644507261775 2.054511572433284 -1.142501314286271 1.7003916195172586 0.4935469059579114
Ni 1.3223605140568842 3.2350509460500985 0.4950711459116347 -0.09535784537671965 0.7170829856754811 -0.39807104694608864
Ni 7.6450351376564925 5.82287672409513 8.948194894764283 -1.668233032506843 -0.5642039061538412 1.639859880680789
Ni 7.657155493860061 1.253975018045926 11.666630483761082 -0.5297310691879522 -1.0109865593730203 -3.8485477965509913
Ni 8.313776717821105 5.96876578225184 4.380673871493621 0.30071879684715946 -0.7081360608948386 0.26505425356601453
Ni 3.0152999924051294 4.846122422060021 3.635905781766473 -0.6576367665937061 -0.8040551780916668 0.7498892335722246
Ni 0.5091800559693969 6.360592435208936 9.326742900596216 -0.09315698107065891 0.36089366656484295 2.9824177035054507
Ni 0.3168268524674627 4.650880904315998 11.536663755928982 -1.394528045244366 0.7068577084030472 0.5940780680054542
Ni 5.425314214494295 2.328109154441354 12.579692684599536 0.31352571880384067 0.09191436691280945 -1.115106724323402
Ni 6.0027268720730005 6.134178992182953 4.8418163597299 -1.057000307098973 -0.9738462028772971 0.6058768604125953
Ni 0.5402815571633238 1.6350341985958765 5.914817224287639 2.1225916983010675 -1.0265090804886514 0.14540539685241408
Ni 3.899057432927232 1.6756763104527954 5.645825006983832 0.6124180039652227 0.05207358076678774 0.7420756510650768
Ni 4.676863686269214 2.137649061621674 1.3481931815066606 0.5014913576159686 -1.6297269060118447 -0.5136156516833283
Ni 8.56240154755959 6.812511221178371 2.1912593986367686 -1.2784522505940046 0.22910457494428285 0.5695008928867225
Ni 4.7094255606570865 8.223837744341111 4.794416315320029 -1.5994207988291356 0.1664784154726294 -0.9003501905706752
Ni 8.614320779829157 7.899803542443116 8.290874989719333 -1.1199879636751033 1.5028131402057152 -1.071128261859923
Ni 3.8564601259946607 3.743874248415644 13.336504220013058 -1.86148717341142 0.19194493517485006 0.8075220535943448
Ni 7.8898793058268915 3.1052945638493603 12.986721674244377 1.6516059654731232 2.3533299521940307 0.9364572207058776
Ni 0.01600202074001677 3.903264345554464 9.12689045835151 -1.066981329571085 1.877498975458644 -2.1318697811688834
Ni 2.379166618265253 0.9308303835757163 10.136800606359083 0.06199315387334485 0.8066813028606042 -0.20164185074763982
Ni 5.4275381330637575 8.733958332538842 12.923155595099994 -0.24648651786615616 0.5784151646572168 -0.41463435062140847
Ni 6.723637875346244 2.7793792974946956 2.370619357896621 0.8962603367720177 0.5686521717331819 0.009807987229357303
P 1.5998499535615123 8.763323323983114 5.611064233110402 0.2158682787596669 0.4934777432828727 -0.16858569162361933
Ni 8.021563084121164 2.545506460933642 7.108806672086012 -1.3743929650573878 0.9630413989523092 0.37256853179960997
P 2.947377812762809 6.498614381426175 9.762808853696336 1.004181877746361 1.8370848333076557 0.822492558861248
Ni 4.6963600390614975 4.961599393779339 9.264994874882365 -2.0610916820140566 2.7895404863243183 -0.4676240154445624
P 8.109982379912026 7.407307508908371 5.952791560493941 -0.0737927176114342 -0.2740004070157087 -0.15320123874774905
P 1.3668388854461253 7.099387450311603 1.8926464392532003 1.3913794723130553 -0.10115851121889674 0.7987849308316631
P 7.78016598973343 1.8996249103976246 9.338379554510928 -0.6843998936201633 -0.049403233023476205 0.012488105164681719
Ni 2.040167297660254 2.8493400691590227 11.881537001455573 1.2599259096550433 -2.659447808569575 1.865892244457651
Ni 2.6621602562292996 8.295577650861008 3.2398888955714154 -0.6533761915451393 0.513541089691651 0.14746356493302346
Ni 2.517197830809865 6.7109615395003095 4.994526361465699 -0.11797506855560327 0.24950550719813802 -0.11310128540306973
Ni 6.964062005359838 1.235664755157355 0.13894765232177744 -0.34202459757448195 -2.0593330474517373 3.8345517393822153
Ni 7.597322818014158 5.989818878042747 13.173947818810966 0.7725815329634179 1.3046649044336305 -1.5264855441219904
Ni 4.476673949708137 3.2345783633540877 10.603163743437175 -0.47362214200952624 -1.7745214087531371 0.4667344137507574
Ni 1.3035869347996754 1.0998296622000872 3.48449677239381 0.47261786911472803 0.23821836432009294 -0.07674382981995816
Ni 2.621573742336617 1.2166595177158273 7.4131703142371155 -0.8106114911529457 0.1793455012432847 1.511156627074404
Ni 1.9131074167249884 8.33616416475369 8.713785537848347 0.4000924482514916 -0.6314783630307833 -0.17651240266986376
Ni 5.212577870670504 6.418803503764606 0.3716399587755415 -1.3326847866853242 2.2920351099392913 0.3552336400655882
Ni 2.669425056889543 2.7351325842897736 2.4470563657617688 -0.6318881968746924 1.6408392138749226 -0.08440468879932561
Ni 0.02248752326821049 8.721402458948754 1.4304605625547484 0.8563814982992091 2.757450033547677 -1.6185274377515997
Ni 6.673330984039537 9.27698364923724 8.657068201265167 0.8010829828372203 0.6585443660096401 1.735465066181624
Ni 5.883348776529751 7.828276761452793 10.65296376663659 2.1763622071543036 -0.5443526757558689 -0.05609015812534856
Ni 6.467247863269388 6.027004649789627 2.3019947906394456 -0.19012356569539515 -0.29826236488686697 0.8880963129039867
Ni 3.9268564150455076 1.1011825459965099 3.4262606847542343 -1.0454401130651996 -3.245950892441249 -1.1474195775234948
Ni 7.890500149760866 8.280278944368582 12.65258995540829 0.2993396571114458 0.584868119371412 -0.07628720189851378
Ni 7.932763868908018 5.007495513256612 6.805108352240274 1.3302309258281928 -0.043833709355498705 -0.5399825717126313
Ni 9.160987763185048 3.4917004152933924 4.129407211821163 -0.2452503314662099 -0.9068291134267996 1.3939744867337411
Ni 0.6274637982499227 4.990779058676155 2.737070173343417 1.4061442893270557 -0.048045690554317254 -0.1911386372234708
Ni 0.8321022985826603 6.992213107918278 6.825316358974786 0.6746366435858123 -0.4199691325707606 -0.894101638557802
Ni 8.334866878921504 1.3022989152948619 4.262588428618872 -2.1996921401294953 0.3466009040912547 -0.5964334556115083
Ni 3.725767844729274 7.852369212621965 11.325378518971766 -0.8699425248130953 -0.4363645432096485 -0.07232076105159803
Ni 3.3644552078106718 8.218880259196684 6.739968850707994 -1.8698954520797733 1.2617220823235173 0.04325572536484164
Ni 5.03567441479717 9.02783990516588 1.7837152011899995 -0.0017622341067453523 0.0694858627059642 0.9439357884711098
P 2.0488961780453923 3.1111230837668256 9.301666365460058 0.48280715094290405 -0.8339841044406153 -0.7149715957594333
Ni 5.102493901482133 2.2157734677014016 8.146505609251754 -0.4394871479990302 -0.9503038967809827 -0.42308556671255526
P 2.1335626112502877 2.8895466636294227 4.685606466145411 -0.6859906351460509 -0.22341549497930552 0.19223598405270761
Ni 6.98617146247124 4.098237139804677 11.151240135186464 0.8829345661973891 1.6446063942268387 3.6685705752609787
P 0.010697974951849766 1.4485400938917374 13.03279200067626 1.8742444730770882 -0.6992017345196861 0.9523723492742372
P 7.991308525249107 4.55384392406847 1.7675213674733665 0.31555560474967587 -0.907987652511275 -0.6704706851335808
P 7.896995845249171 6.803319024424595 10.982566104652875 0.6913117902486481 -0.20215298605610346 0.11108014120798289
Ni 6.8380677520724396 8.162948707174714 4.140894677865171 1.268869749111892 0.5995347202446513 -0.12314452857168469
