# total energy = -381164.77651263814 ev
CRYSTAL
PRIMVEC
9.31031759051355 0.00000000000000 0.00000000000000
0.00000000000000 9.31031759051355 0.00000000000000
0.00000000000000 0.00000000000000 13.62659089504887
PRIMCOORD
 96 1
Ni 4.752228041093945 7.116638992738362 12.469597570909785 4.079163923043794 1.3919322594927317 0.5556243920149463
Ni 1.3582635768144908 8.154888341773544 6.003316830824217 -0.5363359760989796 0.7582651163407457 0.33660625477238804
Ni 4.072826253483696 4.68764236967229 13.742552571956317 0.22996820849615882 0.7516977475358732 0.00519671370959105
Ni 8.431590973264324 1.5615729766753297 13.190089513090067 -0.29540895459847183 0.7559997173453367 0.06732253650605825
Ni 0.34759138775493664 7.690666608638899 8.134297643933538 -1.1223749758500412 2.0583277461156744 -1.0714892447437674
Ni 7.828170685505901 6.4753164030688035 6.66616859832215 0.6005909294233076 -1.8994546537941286 -2.1011247866765426
Ni 7.180554321311182 7.529486394763786 4.390828521684769 1.4921556604918689 0.8445227991884101 0.7093221107831397
Ni 1.4983466115860335 5.355480743140158 0.7334230419406296 -0.05106108034187336 -0.09299423024054952 -1.5376287052230035
Ni 0.9256904054304028 4.853468431902515 3.0871997491136893 0.048769198983903105 -0.3142528267778524 -0.061039017490191645
Ni 0.370571113025648 0.9714478220854409 5.154748439120391 -0.26619659470057383 -0.7674871491596459 -2.094753850153192
Ni 7.9544930712416635 8.708302915072446 6.392084028068761 0.8509009348006119 2.106759616364817 -0.848075549536675
Ni 2.0846266051124736 2.285366357386117 9.503579050293997 -0.387446734463023 -1.9186613086295667 0.1428191241824766
Ni -0.10249076642799243 2.0859859114448307 10.760278237256315 -0.7017849218658301 -3.3069788541878467 0.621040198416595
Ni 7.1810570784478065 6.334237164341355 0.979816866346782 -0.6398958976705172 -2.1352227568015163 -0.16415439532514312
Ni 5.191563295965642 7.661003937578009 1.3563717203300047 -0.9619828757808077 -0.622527838705715 -1.4075352561373113
Ni 6.28941729664295 9.062793247979963 13.41496998720733 -1.4833465468406712 1.8138495169287987 -0.38385156091259703
Ni 8.906780260231276 2.8162592730276765 3.5771980268494588 0.01796943999422712 -0.6045221461569137 -0.5027015758739859
Ni 5.201981541074598 8.577073992095915 3.2934791402075545 0.020448754772655106 0.6937635942232504 1.5720799449223375
Ni 6.857206999922395 1.3665590695688072 7.729724320932538 -0.7409870459865884 -0.7835223482456376 1.508735676337737
Ni 0.5671128432084703 3.953281778775029 10.430651106818384 0.6123791803074873 3.2671285549601286 -1.0721217361214437
Ni 3.2608548571992495 6.7863368642929265 6.877067768882561 -0.9261283279760438 0.2781313984649468 2.6722300479359076
Ni 0.8955631495340027 8.748746933618744 13.346918084638167 -0.39927458033588653 1.7008225364070901 1.7399385285719453
Ni 3.7349175957674676 9.24517305444944 13.131168238741058 -0.016416750795126566 0.40794125487194904 0.24065371323446297
Ni 4.410790773103994 4.08458518429032 11.446594797558628 0.6051196705315965 -0.2351440962701434 0.9127259385272087
P 6.095036491115881 1.7300897206182329 12.344995731819361 0.7024384962894289 -0.34389070424894325 -0.25683263698717057
Ni 0.4311077274339989 8.383568356399268 3.243646597650649 0.7625043512330739 2.5005078675658354 0.7926063128247769
P 3.662036431591498 7.189380502154157 9.04004348754767 0.26733276518754606 -0.2584259496162194 0.9979901471133521
Ni 5.6785394446912525 9.00391480109074 10.527631096409923 -0.03664696179907237 0.13172687092405702 0.994662625402016
P 7.328504574239175 4.902170701933748 9.997938280674123 -0.19785435868074958 -0.31985886011072007 -0.513500980482335
P 1.9997909934656377 6.797900278435307 3.227566748564252 0.8124778549377234 0.6501635981451125 -0.1148079836815313
P 7.919355933581967 7.894804626743435 13.401343406741317 2.703541199344363 -0.6572729554963842 -0.6349696640134935
Ni 5.086412571872208 2.7709273378753014 6.195778779946499 -0.9695352342067689 1.158890297167256 1.8248888054620962
Ni 2.744374312807613 1.727129039702551 6.7628087613306 -0.3029921662623685 1.4586037926783526 0.44691763613514646
Ni 2.245034062647959 3.412277858496895 12.416645141010598 -0.6928876193762002 0.6176964787553426 -0.10474211480509701
Ni 5.588173504541539 3.582898734159748 9.513798985643508 0.2798589226790148 0.6664417664798458 -0.9341974781374234
Ni 5.421090549469752 0.42411381704450113 5.407876416062118 1.8222572813765199 0.7298557119601172 0.06502577005208154
Ni 0.7500009930049795 7.5252967519585745 11.580626126055979 0.866322925782637 -0.16267549678677146 1.7568659004549034
Ni 5.91990942185809 5.971935475181458 3.507675094139799 -0.7713407185777813 -1.2118892179617902 -0.989200059625548
Ni 6.953680508250371 4.178125942654649 7.291956923501723 0.11343115793866271 -0.5395336571006708 -0.09807781541104399
Ni 3.574994274733918 5.759315757975707 2.166560190842901 0.10817685151825886 0.7028786691506411 0.29040815894977084
Ni 6.749188698086728 3.8452541666220172 11.99988926776378 -0.07318619437568685 -3.3008547435679803 -0.8287287695789469
Ni 3.403088575277467 9.040904691902075 5.97624149695348 0.8945158432770853 0.12199087458321572 1.824530907902045
Ni 0.8215824368795992 9.07194528993001 9.9293826899366 -0.7269588500282964 1.4801267543517929 0.16011210693496944
Ni 4.421916602331163 1.4919504235700791 8.910726903753783 0.2639347952495906 2.4284210769019143 -0.9078629540079526
Ni 5.169237154972543 5.691806646907752 7.8979719967041735 0.1252068104173521 0.6520407605631673 -0.1961227207016235
Ni 8.207752323657955 9.158279862669378 11.5206825788625 -0.6719380137077267 -0.29268024281339916 -0.13804047184691065
Ni 6.983026628521533 1.8265166773594843 10.27827845315156 -0.739752659358855 -0.6432540155094728 0.1631187549717771
Ni 1.7158356247631732 1.0104301208085864 11.787287240160985 0.04550518352065066 0.6342962920955527 0.8356095558591803
Ni 3.9112829372321314 4.300649718913688 4.1241968604659816 0.6878780819767508 -0.1380939507926654 -0.520463270732781
Ni 2.7985789803896894 9.359289614146023 3.878454758273973 -0.20327244437252734 -1.2725369135508342 -0.2537054042120986
Ni 2.2408723507947834 5.105517343063966 5.518074263188229 -1.0872141116781922 0.15177684759639667 0.19731237013435052
Ni 4.163452882519068 1.9274405173783282 4.305048843859159 -1.3836021423604816 0.03539997676584872 -1.6017448189766221
Ni 2.985036705856238 8.464614668886725 10.91814211609317 1.0364358526840602 -0.3041435062579923 0.24441266605626294
Ni 5.001353512609094 8.844838718935577 8.295377306381326 0.22155195940800554 -1.757749331501121 -1.6324131945947564
Ni 0.4939179213379773 0.754869357944634 7.427786074278376 -0.1720317411906908 0.33318025980997457 1.670830103810058
Ni 3.291336836186491 6.106879214778609 11.418837948458243 -2.3645523032724114 -1.2638411855490492 -1.6863626522280184
P 2.044601550846698 2.982522920173112 4.960106013675931 0.613418163094963 -0.7043935631332706 -0.9642431325698941
Ni 3.8905209295529786 7.088289076423106 4.858901933105005 0.0021810668117188243 -1.0213421915757313 -3.601128482457921
P 6.231749191008566 5.310418807190786 5.580020459642599 -2.274905135127224 1.359989388037548 0.4313403505221798
Ni 5.776083639513893 7.7221447915820445 6.233770460904146 -1.3952986048618035 -1.7205665518032367 0.7415164361274972
P 0.7998819492120789 6.049751107550231 6.884998297196956 1.5138927950586443 -0.3113837327601734 -2.458426622125069
P 0.7142838225746944 5.4702769560029205 11.865013493483248 0.5406153202006238 -0.8771022757863282 1.8125634511275237
P 7.5522501206720944 0.38639585941679455 3.9457292493448364 0.37173498015472106 0.531818033623968 0.2551976724869089
Ni 7.014514121782025 7.681095602408329 8.278044288580304 0.02431415126533232 0.9776964298613227 2.6298076171056386
Ni 8.515886586505156 2.9767319027845764 8.508483953184214 0.6546905394811886 -0.2612137967740017 0.45088124876858476
Ni 6.3770553138106045 3.350503902913405 3.9189797765811702 -2.3971235523402137 -0.7681016428151932 -2.2019575391249044
Ni 7.676068031042076 8.222174005225224 2.179341394493996 -0.9896379184939149 0.7892479378755052 -0.2532451767462284
Ni 1.900747837550466 1.6060297419972833 2.5397651926454246 -0.6342114456912302 -0.6839584352073704 0.5418903302583055
Ni 1.6359996535305543 3.8438296880682454 7.936235538928291 0.20855914669276338 1.1203198930932257 -0.8383691208821884
Ni 5.6110489542579876 6.502847011457707 10.217708321600766 -1.3844493208521254 0.16098653912012276 -1.4331449862856156
Ni 0.3899086421510297 6.687107502030856 4.623447731579124 -1.4760703248942322 -2.142054692121685 1.5084176308766861
Ni 6.302088638549375 3.3060285169567614 0.8270578345101419 1.2975756016870168 0.05320383771648902 -0.5507999740431095
Ni 2.4331490246019016 3.524588216628566 1.6199151492854846 1.5963187628650441 -0.0935236203814583 -0.7315274432355854
Ni 8.4932997566264 4.415753172248832 13.450753260890766 0.8017864366621482 0.5033566929594815 0.41545041876480066
Ni 2.8535284733593587 7.117272094317816 13.44331245526871 -1.8411212081605581 -0.7955011178740687 0.8579868951131159
Ni 9.12736960908427 0.9049814665601156 1.7420646507872586 0.09291504026318191 0.17334506068547567 0.045764093608992154
Ni 2.69929375622355 9.220537954754803 8.715594755616982 -0.20000020137915878 -0.32176764709765876 -1.939213935969938
Ni 2.5252746147298035 8.367210128824258 1.6792861119622529 0.15807270790743747 0.3002534271749668 0.5382735594413246
Ni 7.922409717671098 4.465721645438974 4.917550415155809 3.636224297719789 1.2534073918102349 0.3455110134611856
Ni 1.3609356378924806 6.512622844669864 9.72420750247984 2.3098945067182153 -1.129452451522113 -0.03912293414339069
Ni 6.616265297353423 0.9773784942341497 1.9434244701960726 0.6204534726751895 0.8867218011539633 0.44538782975418134
Ni 7.125493104533374 2.0786121401076607 5.68987848018562 3.0859889379308982 -0.5125774402268011 -1.8780720743532944
Ni 2.83965610051544 4.444270674276297 9.843985666153866 0.861957963945722 0.13095682552725188 -0.5016595077627167
Ni 3.845095891227154 1.7151745922316841 11.03847889880789 0.6694389014349567 -0.3799810222135972 0.7357970171452166
Ni 8.969271110250324 5.5275819592608535 8.44839050988148 -1.5949889883100272 -2.897773130781177 2.0906567972656833
Ni 4.336634095451772 1.1025650212538336 1.7455252957443623 -1.0967302786987436 -0.036659303094246545 0.4529918673536843
Ni 8.28940380677283 6.930851610120647 10.337022831471016 -0.8745599689804486 0.19804230632183956 -1.1711943113455896
Ni 4.271787735144461 2.3229707291422157 13.300615083386717 -0.27485735569936537 0.2656954866944392 0.5632150598780107
P 8.17121863839652 4.883056620424645 2.302130514797365 -0.06506073705507505 -0.9468020542753114 -0.004414584127927881
Ni 6.880166242494947 5.925877335276179 11.916998581410297 0.9166952075876019 2.617193013665422 2.6994487744425446
P 4.752991487116226 3.3119591891054703 2.198200373307849 -1.2554676167733732 -0.01573823667086322 0.7469337504883266
Ni 0.2832142674418096 7.185823960928401 1.3227158541598831 -0.31701701978655084 -0.6531483918050494 -0.3899049661955285
P 4.000391984540283 3.8910516176416383 7.880243290415992 -0.929913763160405 -1.1647997206731553 0.2986547152292792
P 8.186906523122698 0.21462050440317204 9.10021886164304 -0.4092576596905274 0.10372215818101493 -0.05900810310309192
P 1.5900439271160698 1.8704055133233983 0.28478305591442726 -0.7586145292603644 -0.667701864139192 0.0813504753540341
Ni 9.656754253315954 2.9906508272152195 6.249358725234732 -1.1558731076074866 0.5439140455565536 -0.36694218675176804
