# total energy = -340861.1576308337 ev
CRYSTAL
PRIMVEC
9.39151328081224 0.00000000000000 0.00000000000000
0.00000000000000 9.39151328081224 0.00000000000000
0.00000000000000 0.00000000000000 13.74542899518257
PRIMCOORD
 96 1
Ni 9.106771947562192 7.138263815435469 7.51367734813361 -0.816234236656362 1.023042976316922 -0.6477907270375617
Ni 3.9135468726731664 0.7411791638474953 11.577582347737666 0.9791892123567651 0.304972687027507 0.5365367792558761
Ni 4.273110348480536 3.1421937159452056 4.738970727714174 0.5810526022800638 -1.9816438229993742 -1.333790361044677
Ni 6.442690779020146 7.213865496996596 6.0781601318615115 -0.9100584189973746 -0.14426614104164834 -0.6233760456386233
Ni 7.301488315501605 5.935746285978146 0.5634457149808888 0.9094020163602985 0.7362934971656611 -0.6391266236046605
Ni 0.1116744839060083 1.2632054879974475 5.603035024819171 -2.021339856037416 0.5543051589828906 1.5360418203518578
Ni 9.365883797782255 4.115051180694974 11.212806582083534 -1.0927175579949246 -0.29595788512340643 -0.3163469903027197
Ni 2.6003597512262386 5.7094295999831095 10.971092510135769 1.2561440740151077 -1.8189279598929704 0.07134245629872875
Ni 8.583251433656168 5.328951224196033 8.980232576504015 -0.7278232549111208 -2.38776756504661 -0.44139542076533655
Ni 8.343260704387466 3.128707502936289 8.718533364387048 0.5848712046952056 -0.6425564752218159 -0.08140986783705981
Ni 8.546070432749273 0.8746081490166333 8.158998275518215 0.5825695531452225 0.2837808834412403 -1.058305913284274
Ni 0.599202023329669 2.8217083267186873 4.01637267280689 -2.2019097166061044 3.1732408663710316 -2.6544303007503256
Ni 0.4587350381404179 7.8623400945263215 2.1415514592825686 1.3125700182133202 0.9772197473352203 -0.9287431398910715
Ni 3.062262546781634 -0.12909574096139853 13.728989261011568 -2.128232184416296 1.0150669000899808 -1.4789651299435238
Ni 3.7500406272099083 3.946830395586537 9.281339517316468 0.06045717684479265 1.7937234356028853 0.42011902788506356
Ni 1.5850056890772029 9.621605311723613 11.449997701256166 0.7278602787966433 -0.05272844074196726 -0.6204850972440733
Ni 3.41003028196282 0.733816217469368 3.9605532747290364 0.8535933940311106 1.383259157198766 0.14552983824542032
Ni 1.3074676898853472 5.9100229312208885 0.8201082585486359 -1.1645562372037814 1.9979181346793655 1.928095200348957
Ni 8.575390737076459 6.062099705074222 2.5079914010823683 0.46482845497729625 -1.323061147552631 0.293365698916198
Ni 6.1394012505313205 1.9990868992277209 12.938516861634895 0.24116484854292664 -0.10508818529060612 0.14583219997718755
Ni 3.3398944611058634 8.386677670084 10.06205225613683 0.03249822973802145 -0.47908445067567823 -0.1785739131845828
Ni 1.1066583538431076 8.87790076996658 8.833252576884624 -0.5961202952464637 3.560040711278675 0.1197730409962905
Ni 1.9568908302520507 3.8830244546515935 0.2997592586628848 1.5650214954136596 -2.7624639418225008 0.6022747448836338
Ni 4.789906538908576 2.9360406088708815 11.087255198217933 1.0128686068870814 0.05906029649726603 -0.15049052468480534
P 0.5138744906598827 8.47056266632052 5.556589296103574 0.6697371494016658 1.8287495739690829 0.4990891759323791
P 5.413024050697303 0.8696531866325773 9.84868271029088 -0.03802892974826354 -0.3092242632150094 0.37627014902091327
P 7.210108891701633 5.545190816487334 4.132604858087012 0.019750443154049856 -1.0665028472727698 1.4776507820074745
P 2.22825860524693 2.227995642876283 4.865277189244064 2.0576716005889146 -0.08093447086253804 2.253714359982222
P 7.9114671002711985 8.447177798359377 2.7129630557914264 -0.9127272240787894 0.5800025637489947 0.9017933507751051
P 8.032298309583679 2.7885656765038775 6.50538194733381 0.6784480469121025 -0.643350174767705 0.15082965319177896
P 7.2113673544754455 8.861794324764427 7.37998915719912 -1.128059427829328 -0.47893892623674933 0.033646227299535605
P 5.181532640908454 8.703321930396418 12.911301195424212 -0.156474253072066 0.6422417721948745 -0.24489397656805567
Ni 1.4915695238782392 6.904246088585757 9.392787665753454 -0.6354815706529056 -2.6891471354062206 -0.7046637860755219
Ni 6.141382859824413 6.938374847690495 2.8301428447572023 0.55168854729565 0.9702024354771225 -0.5564844260223965
Ni 8.571868919612431 1.8185068826988566 2.409669770697305 1.7046560512205675 -2.0632899752169562 -0.4044882633263421
Ni 4.897167011593003 5.614547141745585 4.759506210559089 -0.6354664011442539 1.4358832111523852 2.3392112534044616
Ni 7.191438563385669 4.7873896133609515 6.927668522599851 -0.307290022306774 0.13698066312382862 -0.18578380066946068
Ni 0.8540952058034887 2.12180580270092 12.596874271387145 -2.1356284768803673 -0.8880484903851867 1.7398634523596357
Ni 5.707551297335628 4.7083130719019834 2.9278728098083087 0.05374505493193969 -3.1859467439734743 -2.0208886274326097
Ni 7.227520757243786 3.067465445115157 1.5321615223929603 -1.9011443827917258 1.0825622147284775 -1.021149873059267
Ni 5.957581554255118 2.610436844929976 8.521258993927367 -0.04433738846479461 -0.4207000971995141 -0.13977699492204315
Ni 2.33978282494114 4.570849492646055 4.578794712844901 0.018918434171057742 0.17988774689999987 -0.09842182901402403
Ni 3.9651814124524307 7.93753794101824 3.8231948804213673 -0.35751986499660365 -2.178543273966022 -0.2291130595847151
Ni 6.628764830792894 4.49092771499572 12.086081136220455 0.01741999524866032 -1.4106712306631317 0.8849145727418954
Ni 3.464989417428127 5.20588483473305 6.93550386209382 -0.6988471793937447 0.4653066801652954 0.7908065406118768
Ni 2.2960183732548227 2.9263955247760642 11.197273958340187 1.4456053235361557 0.6847943008451045 -0.9221672864457666
Ni 1.831946138141586 1.6069348724865486 1.4621562435700037 0.3954914591443705 0.21541396483106773 0.4002917087464913
Ni 5.208166972449741 0.9344001571939097 6.397328830932146 1.2701997807772254 1.924306679840802 -0.3495481596450367
Ni 8.887235934124563 4.0955450077008795 13.618435184634784 -1.1870698449252655 -0.3879866661268931 -0.8354336924029483
Ni 1.0794511399943392 7.149514848293882 11.666666485702414 -1.5273304086207888 0.9389982419601764 1.2892943355148312
Ni 3.857892765228292 2.72205497975656 7.399659681674869 0.6166340989290994 -0.3351057589674616 -2.3735884453327505
Ni 6.662217400944538 7.0517398039792365 8.461136404484135 0.30151738148905494 -0.18006489590781247 1.043123806227197
Ni 1.4555342875863082 6.6400064721380705 5.96597005387877 1.0957414324229129 -0.7799204898269922 -0.04025499086530486
Ni 4.292879483845278 5.564912994285889 1.061504897348978 -1.6185055833747286 0.30286412532493645 1.3360544744885055
Ni 4.769592695776065 8.73830531720576 8.07576974605699 1.7528632070534134 0.5451132080709773 1.3350885110308104
Ni 2.363393089219981 2.061925514299212 8.84496379389167 -1.5318871747535359 -1.336561496031911 1.275573386384313
P 2.729089223171378 8.997060289922802 2.1856192568464543 -1.1898427796847122 -0.40660710944155776 0.04709026861958342
P 5.937671546191814 4.401154239959345 0.7055064399665278 -1.0775395647029056 -0.7073397902457883 -2.051267239724467
P 6.723281020014159 4.067126288644485 9.915525866606803 -0.2365000960774056 0.6564640864418435 0.940028997217536
P 0.7681741294970983 5.125174169970774 7.368553111529929 -1.1694135652960829 2.156214785672151 0.6365066694833103
P 8.481860656745122 7.662854961850557 13.578257351853832 0.6667017050094518 0.4166251557991921 -0.5147988733581521
P 4.358488595321805 8.583401697867966 5.88774438351911 -1.3258734201904456 -1.9808850904564788 -0.5599261047140938
P 3.5822894177633415 5.732701769785404 3.0391284322239285 -1.0736464002960864 -0.04415098348560139 0.7625789132247512
P 8.626705965405652 7.082910236414191 9.74677352184913 -0.08623428580889664 4.60629534982537 2.5526662947369454
Ni 7.776276267218723 6.460149602128486 11.779104499634624 0.7261610367173494 0.9271639683294096 -0.44627408901387655
Ni 9.15915780840045 5.101366683913946 5.207346154192791 0.3570416398086044 -2.64970409891925 0.3270209250767981
Ni 1.6369219742535897 6.749642997671561 3.6623041713947266 0.6766665295316475 -0.30027193911772804 -0.09189482652878367
Ni 5.100014306007759 5.747080176551875 10.764636057183875 0.34208219028529474 -0.0008268667766695436 -1.8539471562806327
Ni 1.9839571714022581 0.7970924770577222 6.6928553345789314 1.818192881499159 -0.6454620789043851 0.3474187720068597
Ni 4.543651670310523 8.119244939135594 1.1647467415191182 1.4173650977435395 -1.6215381995534652 1.273396176227336
Ni 1.5547180588865648 3.4074663988490075 6.811739683197297 0.40655517315769985 -2.452371674180241 -1.0960677054140802
Ni 5.824062410558901 9.236093084841288 3.1493660146046136 0.7965028196657057 -0.16446395614576192 0.06725208827943902
Ni 7.5101865226632665 2.6828548035036226 4.370633700240419 -1.1021925873648954 0.04002796245616332 0.28227447409904294
Ni 3.9671911962852358 4.779369261056205 12.653464712701789 -0.12780645282372827 -3.1763285041574196 -0.3697272056960729
Ni 0.55231395434059 0.5350617445234732 3.496067813033354 1.63198793413188 -2.5235099848879634 -0.06910225411430036
Ni 3.060083715710555 6.780785255566803 13.199157650210008 -1.2469415815802332 1.5764868157407816 -0.21334422678623255
Ni 4.674146746744296 1.224653326157891 1.1903057447947218 1.271348549669688 -0.6346310497271522 1.5079311781585707
Ni 2.807076349094807 7.754863617037434 7.568714433158788 0.11271536281856073 -0.1558690153878993 -0.9063953683234905
Ni 7.415867555219986 -0.010587052872529068 5.296045240114807 0.007950365195328244 0.43513915544297965 -0.7141961510459893
Ni 8.461819167496493 7.151984816275321 4.817415220332265 -0.040928362783245645 1.7116841617119423 -0.8333138178464681
Ni 3.6282796580869245 3.1189215461429107 2.3835669988052555 0.1738939912104102 0.5987014257100786 -0.010144544633169626
Ni 8.816339400695377 8.932784773325988 11.643862952410666 -1.3609455813032303 -0.5060980031500445 -0.038320235736437225
Ni 6.959458794908474 9.188900730823317 0.6487910915258261 -0.022545489400683752 0.2651624970091046 -0.06519803396388772
Ni 1.295653166232689 4.239488731090619 9.3238267232025 0.728005803235572 -0.1783913648601315 -1.0982063490236376
Ni 5.335515891948981 6.534445863349614 13.009388977129664 1.835422358003568 1.2445286012633665 -0.7389512465034822
Ni 0.22017181888380175 0.08769043740031794 0.5945654332443611 -0.8450979549655897 0.7765577440023465 -1.61680865528828
Ni 7.727524922003342 1.3974008206467579 10.335408214484067 -1.1885191757772822 0.024761780325712194 0.8191043591153054
Ni 5.966644364529215 8.202143826482187 10.822477448061742 -0.04162281774710896 0.551710915893153 0.1791498402927108
P 5.624971721439106 1.873531758756825 3.2005403702352453 -0.2769600038646649 2.5289620091414706 0.036220930005247294
P 3.727181683990059 6.329316431218167 9.096710819430958 0.3185234291287482 -0.31907981585285045 -0.5111468784278617
P 0.48826101660750215 1.6101937275799287 9.97090668101647 0.26299377149256 -0.19771731888225302 0.41325161134126887
P 5.1924361877770835 4.101978194268503 6.2765060739815794 1.2225914348706428 0.24908333205905492 2.3582392165701904
P 8.205299374929956 1.731945305189675 13.575631484752652 0.3729575397079125 -0.11308431612220525 0.2272703499490215
P 1.1270755036212308 5.155123705684865 12.634042124175508 0.6676095615357018 0.9660351914733106 -2.046094437274276
P 3.4498502980894266 2.19464637937025 13.612194524088526 -1.4079407191058462 0.9336552324807081 -1.5360168806511934
P 0.038155839980937724 3.9492721890282634 1.8834811278805341 0.6678916115524949 -0.2536760936360599 1.9575027069767967
