# total energy = -381165.1878082154 ev
CRYSTAL
PRIMVEC
9.30646751260878 0.00000000000000 0.00000000000000
0.00000000000000 9.30646751260878 0.00000000000000
0.00000000000000 0.00000000000000 13.62095591686074
PRIMCOORD
 96 1
Ni 6.42700928537561 2.2685445374765547 8.125880745420522 0.6166706085939896 2.003581246502414 0.6417753740814173
Ni 6.0468493911707375 1.2736645401623168 1.4240300675107842 0.9010060789871193 3.716222629921303 -0.8235045450655301
Ni 9.090901872148775 5.833619605961259 7.498949626198493 -0.21079909176687567 0.25681361082377707 -0.4858325680327891
Ni 3.964815770479413 1.2571269472713755 0.18688131419494255 0.3922289863430148 0.18358036526023866 0.5478542611512242
Ni 1.4732324309632983 0.8849557248377937 0.2662515229571218 -0.868244311175066 0.7599239921004074 -0.7257116078847566
Ni 2.3718091017522354 3.5223025434837094 7.021712107365603 0.36999331487326603 -0.09716481667847136 -0.17464449622318956
Ni 2.6679688195735203 5.983397895205382 7.65398327768545 -0.3375323661310832 -0.09452943593815333 -0.13884419869512862
Ni -0.32471475229921115 8.68761540600581 7.7342376008677975 0.1663550025208877 -1.0787646953592582 0.3185938773553675
Ni 6.889978128113738 8.877700006342037 13.435220500221861 -1.2222348228621724 -0.9771487848879687 -2.118760497480435
Ni 6.935886932689436 0.20612708915187364 9.088705545799725 -0.7096931209693133 -1.0854017410598016 0.38128457151636913
Ni 2.500619919536995 3.95121902134398 11.805201079279398 3.570719788259076 1.178713759651086 -3.116758100792955
Ni 8.291932323876294 5.549642054203137 4.509585671311805 -0.8797070603990269 0.0012894082353848762 0.6886807803837043
Ni 2.0292845624437983 2.9594101583313797 1.234843541296097 0.6370923667834512 0.11611847496283872 -0.7768410795707202
Ni 9.222997872989529 3.3802858482019067 6.542104231239904 0.39522663551875803 -0.3061695355490856 -0.13310163978439657
Ni 0.2078962486389687 3.9119550346209175 8.948136936873482 0.6828001532332111 0.5541328950710843 0.3644633861939723
Ni 2.6225904836499248 2.04092695338728 3.4255208645247595 0.3503863392756159 0.5115492560726028 2.150631635157419
Ni 4.570601664711286 0.800093769556231 4.2521901829044975 -0.44226471074416734 -0.5880704283587936 -1.3092512382527322
Ni 8.267772734036743 4.446127660819142 0.11108478898376026 -1.0073098818523814 0.0819665116714782 -1.6826476652702764
Ni 6.485491127652862 5.918857542533082 10.40819513232951 1.493657441848376 -0.1387763215716707 1.018629934850891
Ni 5.65061722745396 5.144615278622577 4.358637559092784 0.30153100833580976 0.1128529168376895 -0.198243109478736
Ni 8.190380149635468 1.3620759821791664 13.527707244392309 1.8973635755930551 1.129260904336597 0.5387499848571109
Ni 8.429435382381449 3.0531448998044013 11.096734136289157 1.244175845909638 2.9971056445349284 0.6389957544537512
Ni 5.112675481885542 7.279202521742234 12.043771445064424 0.06442464613297293 -1.5367033651952566 -0.7657891926319327
Ni 7.337312105316257 7.139987073202228 8.700685409076176 1.700343796998459 0.5201945904524267 0.3443267633450973
P 5.043332991941591 1.4489332441100355 9.650242909272302 0.590890157195776 -1.3361971707139566 2.4358636492228887
Ni 4.643499225271074 7.258048920931254 4.204584809288835 -1.2562428043765008 1.3572532200533078 0.5477958971094631
P 7.276968969522861 5.886545487092818 2.471985780084632 -0.7261669502546203 -0.7287028293025967 -0.11914980558999479
Ni 1.3246546760370872 3.9310053737586537 3.8664445468576756 1.2306461868543193 0.6982213728842878 2.516195967725054
P 3.7376169774312706 3.3541998195731457 5.1470591570092745 0.11468534206073797 -1.0104386572893502 -0.8879785563791996
P 0.953447603644868 3.6465066598160116 12.79612582787183 -5.097712096814157 -1.2485981433470497 3.0103900203486607
P 6.8633988567032 8.16329832897557 11.08813961347836 0.8325044345712954 -0.07439666974402025 -0.04716277372873168
Ni 2.608584249940939 0.2648816109292396 12.24401312411825 1.2919204602837686 -2.986169714348715 -1.8155071071368798
Ni 8.384596821577535 6.911866939863595 12.500182950745176 -0.3841780910140803 0.8730916119650383 0.4784645577034921
Ni 3.698222700162079 5.856923000783383 13.490835019837492 -0.04698665316218359 -1.1589041811243268 -0.15218128212366694
Ni 0.7607311342768134 5.618240026740631 11.367668673732897 -1.3496126727889144 -1.3510470912425958 -1.1791822146470725
Ni 1.940863813959368 7.678543045630973 1.7753557332103094 0.6957055484409695 0.5482311848746687 -0.9786665070840758
Ni 4.271007860352714 3.5659033440993873 13.442071921654788 -0.01510703084476753 0.18579125686862843 0.22317638238530593
Ni 1.009426006142905 7.40305299230647 9.503163495626586 -0.35117309684296943 -3.320724485908713 -1.1241989164326576
Ni 2.4209379441108614 8.401422914963478 7.788530602086967 0.31937909226082417 -0.16518206525870907 -0.6755141610947591
Ni 2.2088342414786486 2.3141927609599913 9.509388591791332 -0.4830984569310776 -0.027290717395153 -0.4101711726437323
Ni 2.7447844029847914 0.40152940506372437 2.070821188550072 2.217765195581123 -0.414611467803273 -0.47871909691645936
Ni 4.357772057607777 3.29217221314764 9.013285932525562 -2.621749779798169 1.0919290006553581 -1.5803758663825427
Ni 6.82054257349398 0.7412340846952029 4.313416502471303 1.3429190628188226 0.7701130168182673 -0.7532051853193351
Ni 6.0212007665182705 3.117992365906866 10.44629301866471 2.3938605653182257 0.952064074005199 0.975417661129475
Ni 3.2450907936567726 0.9976626311208736 6.135056090900811 -1.1903438876908465 0.5587025167196378 -0.5743592494202883
Ni 7.793552371993523 0.9535778941909981 6.570599704325313 0.2880833674713361 0.4443809857562218 -0.6844867969070147
Ni 0.9949823684576259 1.077912301069431 5.093502297375742 -1.9089083430078608 1.5060887256331934 0.22509828199836715
Ni 1.0178204399007154 7.53407874937544 5.914110313420156 0.04570290135375355 -0.33353867159065786 0.42206278187499574
Ni 7.538089836902731 8.911370806049085 1.9523731224164453 0.9892049447215544 1.1389899586989027 0.5048476756827112
Ni 3.7914548923857416 2.0603960835661486 11.407318878860558 0.21401451338037983 1.300967400977385 -0.4424994524627927
Ni 3.842984803380194 8.073137271053545 0.1256643010957178 -0.32622234043490267 1.5192003233144868 0.6228679956539531
Ni 5.857956018684843 4.3809916942216764 1.494708966199328 0.6920828640867177 0.657556548175074 -0.7819971698503629
Ni 4.952632158899883 0.20602937124227605 11.841051453693852 1.7782819042368343 -0.05040133527068739 -0.4862465156417561
Ni 1.1212152947225258 1.688509639040537 11.530166112219591 -1.2992067095325368 1.5110098170838944 -0.12389169115035438
Ni 9.643640901170539 4.349824334293841 1.9699307041542338 -1.3724471541849268 0.8615944099587163 -0.38726135792509436
Ni 3.6669436626232756 4.0808860341461655 2.78261147111339 0.015201133220470594 0.906080408186233 0.10929219606962468
P 8.924120666634673 2.7059764331731846 3.6372448632796783 -0.5997087839286703 -0.6821128973581995 1.167258466626293
Ni 5.808110578322502 3.045280934698692 3.3164034627875636 -0.4055892097000047 -1.9703345686341425 0.7779607949974603
P 7.030701224401822 4.785236726525454 8.466949753199335 1.1012045124200132 -0.19739104589108583 -0.10380494770280833
Ni 3.106731540134193 5.560968025248874 5.193547754515251 0.38454575876614416 0.011064999564909977 -0.2325763355429672
P 1.343444434082563 0.1019802717495409 9.423658343084487 -0.20162231036361408 2.6078341981583413 0.7278353390959788
P 2.128556652127349 5.683701719703423 2.2511358592200583 1.471039961559176 -1.8523695273808678 -0.34315845406860895
P 2.090074408681068 5.161804324244169 9.64366416733949 -0.2858943302398173 -0.8023934741185278 0.07629980030400409
Ni 4.608395229556594 4.982505919833998 11.120761574289062 -1.6699230186147562 -0.4506395650714239 0.5934280931262812
Ni 4.993952874958285 5.467810284765857 8.5284078038089 -0.5022583176889801 1.533244974333011 1.8896767484717583
Ni 7.310649075697491 3.4256176517875985 5.160898804948565 -0.1770417928107725 -1.0580446892030877 -0.3896632824983676
Ni 6.072470096420463 6.788984341927755 0.6506812244880293 1.4226577136010465 -0.17334326091326274 -0.3991516816047771
Ni 4.473712030728399 6.367652635145772 2.066340124409955 -1.9614187542017507 -0.2986680849657179 1.0371830152627297
Ni 4.386538348899786 0.5277548861545597 8.008672300768646 0.5163497627850397 1.588318004047755 -2.8029858131959466
Ni 4.915750627877486 4.286084337833483 6.700366296330612 0.23530453310740762 -1.306591432032382 -1.4522750222468472
Ni 5.55368106113317 1.7349116863980119 6.255042516125531 -0.753830734718476 0.25777057542040765 -2.3707178086531755
Ni 5.116835472894126 8.855671597578471 1.9618396612395548 -1.5417627819960351 -2.80824217649888 1.6025092079464722
Ni 3.3695647975489162 6.899089159875265 10.008487933618092 0.9272706691106031 -1.461326076705522 0.07986746305060438
Ni 5.266595149203089 7.886765951282025 8.33859960555982 -1.5569544021348087 -1.5930578327255855 0.09387766128676736
Ni 7.65850622092968 1.1336115095400463 11.156475143630079 -0.8196136946515562 -3.207676165230766 0.21580657228379607
Ni 7.78576285862846 2.864819221840931 1.862297683996163 -0.412633775251612 -0.5670927976658621 -0.04148809194145758
Ni 3.506528080934387 -0.21073751319136283 9.850334754198078 -0.7973697956516913 0.7192342276905291 2.1647253942463234
Ni 1.1539833670742445 5.6406500006750075 0.16974996867235131 0.32321852061157236 0.27343836386465165 0.05347148955557887
Ni 1.1936289189681162 1.178515215617025 7.583344396807504 0.3694335857150541 1.3268519820536309 -1.3761760250997397
Ni 0.3613142973539127 8.692315172134075 11.197774454813045 -1.0103556106572407 0.7022256089476745 1.8907167597004986
Ni 6.169759908509321 2.308664719217043 12.690372714165065 -0.18515465172589404 -0.8868434143334919 1.0024132158817125
Ni 2.34850570693011 8.859803669184311 4.3060606704955005 1.0861357910123486 -1.3731524077820674 -0.42728597794714795
Ni 8.595565135164899 1.7772375009551309 8.785639498386788 0.7685479863239926 0.19178449833758582 0.7219590828208599
Ni 2.070977537205428 7.1112021689750575 12.22584317681365 1.1853549191166877 1.9160657799882483 0.032879267226524025
Ni 0.49654285518233754 1.1404331502767147 2.227448107286849 -1.6266492955277856 0.12230763449268613 2.0885842310073706
Ni 0.8769354110767282 6.57039403139178 3.7136993557488176 1.835800567278593 -0.46631172439104207 1.084006660484488
Ni 5.820088002098889 8.495967319116023 5.952466919554097 -0.18535339800026143 1.203880745835017 0.23849295813771829
Ni 9.024919017001464 7.128251617582939 1.8672561699231711 -1.3913329353458361 -1.2784013427514112 -1.3024313871174213
P 1.0581174445252375 5.196442996579613 5.7212235356953745 -0.9727249447886603 0.004353391872689277 1.025778372970214
Ni 6.3783550728636005 6.34232973685863 6.755667187988773 0.9040132412445593 -1.0906377926477604 -1.445646718297052
P 9.35067330172944 8.686908114469675 0.39118526634775297 -1.4085657542843546 -0.616801477744899 -0.46102270807796086
Ni -0.37830511521603505 8.543793256013348 3.941250863918269 1.4819874617096154 1.1198781775701163 0.601481559558377
P 3.6789024734645017 7.669422707401867 6.19965972755266 0.31243968482851353 0.05767498611396518 -0.7409140266568078
P 6.342608930886052 4.38425826434251 12.345340081843624 0.38424853924069957 0.8498200430316073 0.2583673284641421
P 8.10651026379801 7.727346161624273 5.848538804139912 -0.7914873687289852 0.07760797759246635 0.42314984429158736
Ni 6.87773081677751 7.665960701461838 3.780047024425294 -1.1821888626838801 -1.3175649003247503 0.4687943816035797
