# total energy = -340859.40713135333 ev
CRYSTAL
PRIMVEC
9.35848685321352 0.00000000000000 0.00000000000000
0.00000000000000 9.35848685321352 0.00000000000000
0.00000000000000 0.00000000000000 13.69709148002457
PRIMCOORD
 96 1
Ni 8.7034207610109 6.057729761904891 4.145753483164316 2.8614467855463173 0.9847106563956265 0.6462467795892096
Ni 3.200171981069654 6.106365817589629 6.653019361228332 -1.1617550203095606 -2.823134777339996 -2.5101230220580963
Ni 0.9461242943266635 2.1459852401407833 1.0841647815628757 0.21859956164790093 -0.05908472197729824 -0.3307909336421916
Ni 4.036820697293553 6.051637387025005 11.422497269883593 -0.5536996641884078 0.6626522175304265 0.8973880226185577
Ni 2.487616799265542 0.767807687627221 11.026281400890294 0.1908038795918714 1.4721427077050517 0.48127605901035825
Ni 3.46804930604944 -0.07411734343120842 4.988905411836805 3.6681849097867856 -1.4246366917042883 -2.8558975735933134
Ni 3.6292492404673 3.0525980033723985 1.3103004480530258 -0.4014381636461086 -1.577881124985147 -0.3189525462463668
Ni 2.8818149785136744 0.7683064949714573 8.226720034195804 -0.5707692180761847 0.18472090662258508 1.115080499071157
Ni 1.1550150772666372 3.004532815379938 5.887380034983092 2.2061520368222265 1.1882934329197214 -1.6434244581035953
Ni 1.0566760984066736 3.5473718398158134 9.909722217412327 -0.940151381728013 -1.3883468561343186 0.3517855336159877
Ni 9.176043059296575 5.70148024646311 12.021293494195502 1.4719473038647939 0.30509764264114553 -1.6266973751569016
Ni 7.728032478589918 7.766729821336963 2.592954990372304 -0.192934552781629 -1.2895794708554178 -0.3717079835715276
Ni 1.4841156226215546 8.079284562102576 5.054623513402119 1.7167842019426691 -3.277451277042375 1.5833881708463051
Ni 5.645348042884688 1.8038483227310569 13.566571507028257 -2.5231641715127706 1.1241369528464704 0.4457639821466774
Ni 5.6070718320417825 6.332953498990221 6.8977728012761546 0.283082571822635 0.2610520743851569 -0.825517718840817
Ni 4.163600117413074 1.968445387842309 9.625425427414479 0.3447268269969934 1.349110022120883 0.38786171051325463
Ni 3.0656718093742414 7.102932355545451 1.527485657807197 0.34301832894631895 -0.020400932253855187 -0.15402861974505086
Ni 7.3576984405763595 7.64031538220103 8.271070838793753 -0.09601733333758948 0.18801089022776651 -0.26447832645788644
Ni 1.0370981441075642 4.671054703414468 7.840036719814871 1.7159758471087607 0.44538371598912324 -0.07317642418367397
Ni 3.187725193680641 4.598348619786465 9.612673553357133 -1.3386913978907202 0.7544040907234427 -1.2032148301162442
Ni 5.534609069069505 7.1596728607631865 10.166967365585604 2.579626625375873 1.6060619582947373 0.3060515219139826
Ni 4.836924522724898 4.829437733317972 2.292235927810365 -2.4360608528353596 1.29960497341222 2.1110232767371775
Ni 6.328807689356137 2.9132314185624844 6.529375970021638 -0.7470319666290878 0.5141023615117598 -1.49828414198711
Ni 9.156128199474155 3.826432556472194 2.5583566648255505 -0.5857561784033203 0.8654405231776837 0.381236234776937
P 5.750986641416404 7.429478034015256 12.382088426655962 -0.16531653395404433 -0.8546704291453733 0.5006061267975378
P 0.8488493754111593 0.9693614169484078 9.802624630794938 -1.3011833736429332 2.414448673882222 0.890372253422357
P 7.39733163199927 5.556461135650968 6.254941153370061 1.9746115987429413 -0.22668799508299023 -0.5152056218782676
P 3.499634198859906 5.059955979157201 0.4159229704096781 -0.3522431899786966 0.6827124786154114 -0.0739320714027759
P 2.6777625332279262 2.9813612021655045 7.888962888589129 -3.11985525166104 -1.5615841875973362 0.36185551625748
P 9.15963763200865 9.09457743206247 6.4713692615454566 0.0027721634284984514 -0.7811571904475708 0.42419705460917906
P 8.298946963301763 7.225912230040958 10.175568750765486 -0.805850836539509 -0.6637935302237213 -0.7007598230354254
P 5.040031760848022 7.213961442450152 2.5715053387214635 0.32539290255507186 0.03406120334976715 0.8802696177707163
Ni 2.172001833329848 9.256563479368056 2.899619499572019 0.44589870795232883 0.17915652516093017 -0.7487654043804266
Ni 9.054251712619418 8.81043505709614 11.276925072504012 1.1048721910795876 0.3925740283872594 1.579244580991577
Ni 6.795534140983858 5.454687592150578 3.360458527179869 -1.8693105261105807 0.6180350930416839 -0.5551273977738697
Ni 0.2074121420321059 6.690073353700558 6.77918392876781 -0.6038850267935472 0.5150233306641323 -0.06383277818524491
Ni 6.883260595859506 9.193243957958986 0.22060948005916342 0.8368503702448169 -2.0016426347188045 1.9158521213155457
Ni 5.415466174145048 6.236458142021714 0.6870177431370903 1.0691099458783135 1.3967489641550848 -2.374760354153665
Ni 6.710718175490153 4.086280299813053 1.0537759033601661 -0.4347923136265221 0.8582959417131024 1.1269584814556657
Ni 7.88817490400405 5.011628753535499 8.49745637688036 -0.4987017106859733 2.6259468485986517 0.7535057472788894
Ni 8.031509487199633 2.841330164795726 9.044354177023463 0.6966954231580647 -0.6040755455377984 0.4392354369995404
Ni 4.134701110302342 6.555301785889144 8.528179353060352 -0.7841468692035141 0.30314206157667145 2.5661566159138967
Ni 3.0127027743202452 3.7099849057342302 3.7835884682423884 -0.06149847362511345 0.07743622790129244 0.08994310211905156
Ni 2.7000450902002875 8.004744215069877 10.311800242511248 -0.602193240913421 -1.6651718770830162 -0.81493865777339
Ni 0.634502594690889 8.639474220989001 8.735429593271533 -1.2507316447502848 -1.8971931114534615 -1.4631374188826478
Ni 6.300769663027202 1.575782000422596 4.2296073962192295 0.9933482774659665 1.7439818454033837 1.3523609249580129
Ni 5.841623585673993 8.594665786388553 4.069858027248962 -0.4108810542265633 -0.0018640497919322737 0.4398812981136554
Ni 0.21587314991060733 9.258510044613857 1.48658626312584 -0.635322676477538 -0.23067834718930594 -1.1549194854449658
Ni 7.7929616597214775 0.4736330148556098 9.632548171686492 -0.35672153746502433 -0.17130951831268562 -0.6718613948335204
Ni 7.59670483390569 7.802114259771444 5.474111131418169 0.11630950792772227 -0.023866007984320186 0.5628070258063146
Ni 8.560507309719457 3.6701083936555943 6.8277947165383 -0.6947043608699649 -0.2887603389337027 0.6106215741864323
Ni 3.220171067272903 8.345823623475875 6.892348622350837 0.9847209408082719 -0.9136407370319942 1.91443724324589
Ni 7.977782414718186 3.942992509051262 4.6577506786383625 -0.5402080574598761 -1.6864171596150375 -0.2237541092656469
Ni 4.667498478446179 4.059168763673225 12.648853027560143 0.3959012929882794 -0.7911906634241729 0.11924647906885914
Ni 7.061773730780879 0.7461324964454964 7.2892907099166075 -0.06557675745954514 -0.5740466032758759 0.08237403152254201
Ni 3.7047441531493828 8.689635710015398 12.38647100600504 2.096134018330171 -0.10316654278786104 0.8649345300755427
P 4.745754144722065 4.457054186704268 5.029585817928009 0.1885060846966302 0.3354315177379965 0.7310034524113153
P 4.6570637657102765 1.5653753631469698 11.745036580172014 -1.5654830084311104 -1.0796823220775214 -0.341194902584335
P 8.750391006052599 0.6186343445429108 13.253456192905801 0.7779528245776602 -0.3594103971510971 -0.5735961460020186
P 2.5180318812311757 0.5212995313121512 0.43175940170267674 -0.42300817650740047 -0.39341297934878694 1.2204008549772272
P 1.9498500746528584 7.0191177481349225 8.162274686829667 0.09296440544387861 -0.6656601511188148 1.289841980488185
P 0.583599913513204 7.379971639061963 2.5577670801597554 0.8001177907104736 -1.1590741310432877 0.006637817031491794
P 2.5124167891759814 1.66805667986295 4.296900531106027 -2.416164885242381 0.6561943777202247 -2.576700195757698
P 1.5738354351767951 5.1502279424312025 5.600466612087523 -0.9407936432977023 0.23586863314099377 -1.0635594483737296
Ni 9.403033155627792 8.993449624148427 3.9472000846979536 -3.6902226063131156 2.563525863159269 -0.9197764176160869
Ni 1.8729794644172533 0.7370332397700545 6.105012580404327 -2.914426165956826 0.10734432831463447 0.8878507725520838
Ni 0.5920581138456777 1.6974142528248557 7.713325616648689 -0.9768243116690143 0.21391244058487677 2.0255227837705116
Ni 4.282406106814219 1.1081384170925264 3.153139034166674 0.5863405901518804 1.401237853164374 0.013877529313040616
Ni 6.9287147660463 4.7023026907016225 12.463312604931696 0.07164584647176048 0.33142985277777115 -0.510117922942715
Ni 8.012483683619285 6.8253783552572145 -0.20485914684434436 -2.076714219042662 1.205371985668563 1.44768971686901
Ni 8.73797229412386 2.037763699263678 11.389432800316582 -0.9327345204386517 -3.032994130901422 -1.6632242664383419
Ni 2.865465702146301 2.2394952398332797 12.914767877866641 0.3470523898063765 -0.021952078791058968 -0.059535179251155534
Ni 6.54648609136249 -0.03545088369046701 11.846272010683784 -0.535643063797013 0.8886012775648632 -2.917108597884996
Ni 2.5706078598413082 4.139333561247877 11.581821763555018 -0.9120209420403841 0.696248308318317 2.0655060090316684
Ni 6.75504932726591 0.40327403970667786 2.34128469276116 0.49050811913158754 2.2491912753008876 -0.14580160384956825
Ni 2.083826171089786 5.9592129717965125 3.57814628767298 -0.678884877339205 0.39782062149817937 0.21158559222391302
Ni 0.63045504916777 3.2771923270933976 12.53083876613878 0.9991288887034858 2.142188646596388 2.474553095373287
Ni 4.347747061363159 4.009606217799379 7.824696288320082 3.423349554370808 1.1173096455119917 -1.7990474189189596
Ni 1.4869231686491515 8.26176569540962 13.134141101824985 -0.516164129136795 2.4265272023133115 -1.0646061444706891
Ni 6.286610272561354 2.3963809118553985 10.781391326935795 1.1570894965130911 0.8389090525460584 0.28233078125827504
Ni 7.61147252601085 2.4334779533667135 13.529781423882627 3.7599226419124148 0.5254643234917983 -0.6722791990972293
Ni 1.7947612320884014 4.450362868671829 1.5664674985517049 -0.33869270498777154 0.3764059032678292 -0.1313041815643416
Ni 4.323770618287481 6.994139946976068 4.793324268764993 -0.3102624746715366 -1.2756332930879708 -0.6618644315218085
Ni 8.661391796977775 1.6601113246048502 5.632422100973632 -1.227850112166421 -0.38331240057967536 -1.9754934871272625
Ni 3.6955260436921056 2.2953654057824595 5.817401014396562 2.4829698586820723 1.3057247131567125 2.009696358261216
Ni 4.563900030027851 0.32180934832124813 1.1337086104632037 -0.9137618359908908 -2.049574682513393 -0.5118457042670992
Ni 0.9819860155858355 6.39963271714565 0.2903592177201068 -0.7111216258857237 -2.173948712616804 2.1779089828161333
Ni 5.410721421358408 4.750096482578082 9.977728468990133 1.5272918420733697 -0.5921168305140254 -0.18814741580563082
P 8.398465111493318 4.104098858601535 10.973301135652186 -0.8734407677743409 -1.0890961591922534 -2.0367790734106213
P 8.496167713253692 1.9485773204536811 3.245963992628437 -0.6314781059204673 -1.3971875943544 0.9886336455991168
P 5.136480325382736 8.55825191441062 8.295561062792482 0.3750571025494186 -0.32290047515052134 0.28116170065083834
P 1.932228044086308 6.4435427370172675 11.967642225456801 0.6019759826962923 0.04396355006514364 -0.6492143468579658
P 5.973905796007604 2.5716466518715193 8.581378606888611 -0.010764694715671784 -0.12388706316466405 0.48246519422245293
P 8.719592226129858 4.5602782956522505 0.5659189244800742 1.3871055275280497 0.3544905912519766 -1.3859495595467357
P 5.225376591103215 0.35775716765859983 6.130064313608575 0.8370691711238422 0.5077702486461448 -1.0035187902410654
P 5.463503286677232 2.9024223663562365 2.3315191118285017 1.1480350996203066 -2.9461445801060293 1.1093253417549347
