# total energy = -340890.60128234304 ev
CRYSTAL
PRIMVEC
9.11521809114204 0.00000000000000 0.00000000000000
0.00000000000000 9.11521809114204 0.00000000000000
0.00000000000000 0.00000000000000 13.34104305675261
PRIMCOORD
 96 1
Ni 6.620519688794861 2.269160642927614 11.440398214293051 -0.8818773285774684 -0.3963995727809367 0.6917046548116926
Ni 4.724317312716658 0.2659784202600229 6.063557070255262 -1.2529433076896228 -0.8333420999812422 -0.20220723633280657
Ni 2.813785813667313 1.473374750593217 5.071864174337729 0.051204547898273105 0.014325158373420492 0.06773442723249626
Ni 3.572263118011324 4.359562742224771 5.1469343766618 -1.297979779103971 1.0131244316516292 -0.7047098088221089
Ni 4.997181368786097 4.670528410265822 2.7410636915451283 0.6937047159608568 0.29727120461819123 -0.3530811124989597
Ni 7.321388814272699 6.197154265437548 2.5822255457143752 0.33271926101315596 -1.806340095925631 0.3601174505204508
Ni 5.1728589686733955 4.903859765110168 11.406044780035009 -0.06695743985715565 0.585369998708495 0.19279622743155184
Ni 5.798919498588786 7.706342708240447 12.165203902698511 -0.18129362610859098 1.1549989325326495 0.3751442629465862
Ni 1.8375094862492023 6.82158317129961 0.20430758865324153 -0.005156090279642733 -0.8254187313691076 0.12856621380788827
Ni 2.8756143385485218 1.699778539624542 0.333297041048051 1.029201282608834 -0.8475479591679791 -0.857497099960891
Ni 0.7279905456358151 -0.0752771177766444 4.728372673282728 -0.43454548772303875 0.3202118725747647 0.0066542720917240235
Ni 8.914583107776648 2.41879606448886 1.2946298797900218 -0.7651271335679016 0.5240548447387813 1.0484917554073296
Ni 6.877368306530776 0.7770131005029287 5.015564940801491 0.41106771631607275 -0.4981736060966453 -1.6955630877803636
Ni 0.750274519508304 7.403279934357144 2.5391871315791668 0.9934259247814375 -0.47401320680035786 -0.2693073724154136
Ni 7.902338129439881 3.8727736308056193 3.6769650715787736 -0.5868560963357183 -0.761336813287534 -0.6330709043288839
Ni 7.730078736368219 4.039490971226867 12.79490049314392 0.3776536596320012 -0.6684703668741003 -0.7252740061267058
Ni 7.902830351221333 8.852636085059164 7.285544130321223 -0.1593358908905772 0.25082139779608414 -0.21734254931234828
Ni 7.007269280743088 0.8242189923877594 0.3245901846472651 -2.3094602473942745 -1.2166588714362918 0.38396211834853233
Ni 1.7857623926695732 6.411261625150762 9.356033123993214 0.5814557512557534 0.7112509523747363 -0.5602130398268933
Ni 0.18207921761162027 4.985951419994463 1.4316671583115625 -0.1908722709359616 0.2844663395440391 0.3362324163727371
Ni 6.118590199986989 1.887661416648202 6.994482452687159 1.0479016872318145 1.422532757987408 0.9708945764481408
Ni 3.3320406582266577 4.541766838325389 0.1959863059812592 0.8994497902435928 -0.17875311907492442 0.6941384610641659
Ni 5.959073881924014 5.469085328925427 4.912638631734536 0.3502192175701323 0.5763428555092203 -0.30674726242942657
Ni 5.36894554205458 3.193471111529895 9.357487912813948 0.32236131481759966 -0.47858128578701453 -0.5761613356260334
P 0.11904839545312487 5.559262182330972 12.512644116266936 0.8860625703034095 1.5807934135359356 0.7828212084135551
P 4.044130617277955 6.424843300231553 12.663411647925518 -0.3684966757230815 -0.11957660871476827 -0.005842317713389939
P 2.6239158190814966 8.720456306303095 1.3367595066731797 -0.0493492398570892 -0.7973607967906268 0.8033154717121649
P 6.409958148951733 7.951934031530205 5.964192988451109 -0.4166197564825534 -0.903719107042908 -0.5141730668486951
P 4.887425026740594 1.2021240881407584 12.493967034226305 0.6229934654882239 0.07331912040912533 1.3844760603250026
P 3.949696956984674 5.843073615428618 8.545071304919215 0.03574321903788038 0.9656343564904659 -0.8420367995417627
P 4.92125160138812 0.8561514246985146 3.7806251557088175 -0.46336832549200196 0.6249408190225818 0.3090697399150161
P 0.15117771647646067 5.562060554310706 3.637755960598894 0.769210816718972 0.11161415933458196 -0.07670989125822918
Ni 1.4035430641543338 1.000386079491057 2.4665853303368923 0.7962259118552352 0.12238528180815697 0.37497174192446386
Ni 1.5725392091193378 6.596291438885638 4.97248733122813 1.2126145261635892 -0.6710751514867991 -0.6590321042793359
Ni 6.1262560984721866 5.721494835410105 9.07904716626503 -0.5297238700991006 0.9190817055419075 0.9132638133085497
Ni 8.768903690903365 2.4145392576011226 10.307676485815133 0.05100683006517022 -0.11580865703190377 0.1615876630392314
Ni 2.29288755583721 5.108377915303253 7.113937386870891 -0.6574426483050291 0.6922093623622531 0.5133035197595481
Ni 0.4488716268546731 8.932503626708753 9.25964424940139 0.6679000961929271 0.9697162398693234 1.1725228003490258
Ni 1.4442698589603553 1.1394296175329215 11.54005580612244 -0.26670438757492776 0.36880237988895836 0.5765246325027232
Ni 3.855746403254669 6.846239836463059 1.8028816839240918 0.5364935847227664 0.6492791386576302 -1.089779301302207
Ni 5.368307476782327 7.976226087966651 8.05015871106248 1.2473048784569227 0.47241835150941214 0.8085052434432204
Ni 5.122141894747544 2.8159643508111443 4.8174511428981805 1.3782372785041423 -0.7695203775395908 -0.04966008622928867
Ni 0.8331874555501687 7.480640791008599 7.0889097323277195 -0.47769245542415795 -1.1246416603970308 0.11839055882646708
Ni 5.15288752565191 4.655998752494829 7.061467456489983 0.7220261886133694 -0.2635830683371267 0.19154127197852816
Ni 8.382509592463963 7.007433354670238 9.108090074414301 -1.165013122235542 0.9243925762318597 2.140255177019101
Ni 4.641314136014861 9.572164062141285 10.426932708242646 -0.039091566684823 -0.32815092491618325 0.3584099809110408
Ni 8.196805252584134 7.126687754054119 4.791035240626951 -0.3759150796743397 0.5420965327318407 0.0315165825510425
Ni 7.478097645137767 6.3988740436509 7.073847745815304 -1.3103740390032659 -0.7260335100005496 -1.314882982617213
Ni 2.439533185837047 4.989606622482649 2.800231484241047 -0.8536044497747042 0.0289346807564792 -0.48082277352302355
Ni 2.4671978729982547 5.439260335056739 11.430885572605591 -0.25955055013896594 -0.10576875629739849 0.5732356773388063
Ni 1.391875584890299 3.0619385132642525 3.886485653506313 -0.779895807236644 0.23020809242110676 -0.0916351451094938
Ni 3.879582698782365 2.5813021741132447 2.597860879449999 -0.3762153845235779 -0.38296273054974045 0.28363433056104703
Ni 1.014496437225999 3.3584839061524114 8.540748868460616 -0.38582256859603875 0.024454019277306272 -1.3536084242118687
Ni 3.59950850513648 2.952683508218377 7.466888661347936 -0.5357808749264579 -1.015087211804955 -0.9886593566307295
Ni 4.146749743492411 6.75661901136619 6.2513323877044575 -0.017116605075628587 -0.0006481751069601741 -0.6693100891665763
Ni 0.41685715758034264 7.357093123864281 11.360285473274553 1.281073747377252 0.9448742411249792 -0.26666993479256657
P 0.14905295911986183 5.560565658530001 7.9686185268777745 1.5607472935183377 -2.043119413806352 -0.3295750589572195
P 8.70862475311191 1.5805332554588365 8.091222768940977 -0.5954307253786068 1.0071350468374138 0.8238876394365616
P 1.9864703816654967 3.246239109545127 10.976463689404145 -2.2465844338056598 -0.625848675548832 0.08553031776333657
P 3.740748810758526 6.322953391471098 3.9006671099430203 1.0134645885998674 -1.0592603067777435 1.129240592621623
P 7.054878065271255 4.159255822828548 10.501975564912192 0.5950327186092398 -0.3792207470088049 -1.13150213496229
P 6.540570110181696 8.115142012954065 10.029088984253594 -0.618897183931663 -1.7118242868342326 -0.08653176244465743
P 2.602558862897408 8.34332326952952 5.972371162197744 -0.6820442489037931 1.172506859509426 -0.5076167537874161
P 7.038507133428907 4.0775196614530795 1.460684543849944 -0.29170270939147824 -0.08682538242567628 2.1983579946991045
Ni 5.514789032855014 3.1510762317978434 0.25134758356728676 -0.9282751991157175 -0.6816719531660389 0.1520750955631058
Ni 1.3362362931499332 0.6123047541674577 7.197945972137394 0.5018533689410777 2.21486447699456 -0.8756148926075243
Ni 6.823315062752864 1.0207312464577176 9.342826084379418 0.27052170443848894 0.4404891069009833 -1.4503857756439344
Ni 2.563591305199167 1.515915473816069 9.36498517976291 -0.05505606043387937 0.058394637888809116 -0.2604697195191256
Ni 6.489798344946796 1.7764557549128706 2.40532377202617 0.9258048831983539 1.4103354445902678 1.0507499553138873
Ni 4.273278086979963 7.065953055353914 10.353089414284934 -0.7142827972225246 0.39345051745494175 -0.2410010692715527
Ni 7.96534251746567 7.4654639527471796 -0.08277803081287426 0.629958069731515 -0.017819030459291892 1.0601676490833611
Ni 7.43540196320594 4.069024278113955 8.137516227486486 1.5169179550382133 -1.2540601949028853 -0.5479748458894886
Ni 3.3554576537183025 8.583317848859812 12.579149659593751 0.32281897118030856 0.13528887724370248 -0.7112828340539363
Ni 0.2360321939896061 4.910969635286689 10.366657416538462 -0.5425377340343173 -0.9504540492056017 0.24906302034408073
Ni 8.7472094716468 2.11853166258529 5.805234521740445 0.42259525733969805 0.4969106802238216 0.10972722672451425
Ni 4.031861533614369 2.939721667973488 11.382751751510543 0.05623876788807088 -1.7297919270562467 1.195602822096941
Ni 1.0942090201666117 3.601969614043737 13.024833694652616 0.04256255595255895 -0.2779527067952374 -2.649654990848869
Ni 2.9929454268974722 8.164592071553589 8.138063140576989 0.4385255554167093 0.18592829666712496 0.8239948544383874
Ni 5.651535535916771 7.761890847799063 3.644252376592236 -0.2974432114196813 0.3006426921935854 0.4862737693352658
Ni 3.0375735350824047 8.417557606346943 3.723271291429729 0.6386761663308033 0.3368088577014973 -0.30492152207459744
Ni 3.16506809169651 4.056536429214168 9.505813477523443 0.23521017362138846 1.2431834000893818 -1.302442185750699
Ni 7.379142836629671 6.134286605684386 11.305359903117294 -0.16112280758767092 0.22886263413680588 -0.1029539125564227
Ni 0.8111003703902603 9.054620204599592 0.26005990909897775 -1.0863324804041874 -0.32373274124382956 -0.1073471565281119
Ni 4.766657501139659 0.3211573934825499 1.6193622618408172 -0.24687218334034905 -1.060589052891496 -0.7629360394538538
Ni 6.009882108031615 5.738722597760907 0.3312816663095526 -0.5780955765342689 -0.25883346946728325 0.06168205039082925
Ni 7.804212805785713 9.25522792619559 11.397840172155666 0.851062914299773 -1.3417091016711216 -0.4699896874632616
Ni -0.05964087251920279 4.675842582461863 5.812238655386136 0.17110331583915048 0.26821645334408 0.2525144692277909
Ni 7.957011208053694 8.649631061083134 2.622608696795198 -0.6682132565579717 0.9195038806809905 -0.09708254137731022
P 8.615148190727005 1.5533699052972556 3.333900162734363 -0.7526341433072135 -0.35977986467537393 1.7347556988194255
P 2.0717888237837507 3.2052844342847298 1.4961582384216974 -0.5352735962727362 0.7087739515891536 2.5609362480552216
P 4.5216768974676285 1.1685436243839584 8.377881796196501 0.6871291196258683 0.11313496685448256 -0.938371407009455
P 8.658955929276187 1.511576629964756 12.739188279658155 1.4589298085592037 1.7465480634686628 -1.6244743993636541
P 6.294887634710189 7.576660499264336 1.4047717955643275 -0.42990747473039514 2.280387241287718 -0.3600770842008186
P 1.755162605256007 3.2239432858890105 6.129568568756992 0.41995756260653483 -0.7059416243466811 -0.4662672443063518
P 6.994881699243226 3.771312137299392 5.842790132143374 -0.654129524771396 -0.4988145821147538 0.4748606424023176
P 2.4533245109358632 8.683284446585334 10.420435380727488 -0.5113515382395 -1.385070499375892 -0.37073250703213567
