# total energy = -381161.7980727937 ev
CRYSTAL
PRIMVEC
9.33695921305155 0.00000000000000 0.00000000000000
0.00000000000000 9.33695921305155 0.00000000000000
0.00000000000000 0.00000000000000 13.66558360261002
PRIMCOORD
 96 1
Ni 8.243741420927705 1.4137183446697414 13.00225643608966 -0.37139405187553454 -0.7652348627903595 -1.2135228969104714
Ni 2.272205067567413 9.22950023605245 6.058773431498065 1.9099673803999946 -0.41894969016731076 0.24459701415292714
Ni 9.045879594445994 3.896004996501635 10.005625640959146 0.3200576063850875 -3.508424786874596 0.19765432685480153
Ni 0.24216617750928146 3.767901914896805 13.120709770257275 -0.6996719892878853 -0.8283783282180636 0.7568854623843997
Ni 5.073899760115022 4.477613528298023 7.7862126749735 0.5829680741352218 0.26360569404494605 0.5997434938213477
Ni 7.857228653718265 0.6015401388154716 3.8968509250142733 -1.3915437658050616 2.987826276115532 0.34515440145271525
Ni 4.336522736305998 0.9103815426906487 2.58045824300665 0.9331047592938768 0.14944048615373617 -0.19650247263854548
Ni 3.5526569921390694 8.012072786760138 2.5876598397152364 1.7603957679850328 -1.536504104700257 0.17207570705474884
Ni 7.230503934581168 3.085659635758081 7.979375688985214 1.7127460273175534 -0.4956310421804497 2.043863233950912
Ni 4.630272812863545 9.393914752377482 9.632268649404311 1.2589568608735544 0.04470299933432946 0.8637443664221834
Ni 9.178688503538346 4.896889685693422 8.013142802295992 -0.03844544846039186 0.9596166895414764 -1.1268906043322076
Ni 1.3168754028034666 4.524839868440678 3.730636242936077 0.9330327684053609 -0.0007543616675212815 0.3766347314491836
Ni 2.2223270309833754 7.074053844539584 4.35585024205833 0.09629681225122125 0.0026495218077051143 0.8997279836056441
Ni 4.92428432428151 3.618015707243574 3.9222138412585412 1.7610565414974833 -1.0861486465281551 -0.014763788572735862
Ni 8.286373977094444 7.61268435267511 3.965109699677558 -1.9687762230080867 -0.13617127984865582 -2.2701195408131225
Ni 7.541237940106584 7.9434181250225055 7.46151804790176 0.9991129478638858 -1.5360348783733224 -0.17381377279177807
Ni 6.696392514747154 8.877282120354272 5.503376545546374 -0.050853335206441454 0.09638654375155013 -0.37358000378325984
Ni 0.3942447032063036 2.5589524246494775 8.197969779044092 0.7821689195415368 -0.4906955525520453 -0.775435200362129
Ni 3.006668960074637 2.5750680164023887 4.118136860439526 -1.1562626297364214 0.016748680213248573 1.2457033382977578
Ni 4.709739673471321 8.720523910655768 0.5260610935249991 -0.800200580232267 0.42665322945915546 -0.37996559559462945
Ni -0.015985808018631833 8.774034024407756 0.13584902304064347 0.8571613138880271 -0.348273149587355 -0.7662129104329127
Ni 8.186132382042734 1.479842690436899 9.608394978168494 1.1046325642649557 0.20253710886839957 0.7288290704678158
Ni 0.08829495562653579 7.264229031575092 8.653621796178866 -1.0159115074784633 -0.6649826654358161 1.9878592077814665
Ni 0.6318311021786195 5.194411893808429 11.499944353095762 1.1458702307585038 2.4494596427397686 0.06321699897811693
P 8.018375234288072 1.6696443991003815 6.317025322490496 -0.5862202625239323 0.24815799203130814 0.21271533495298206
Ni 6.036596285767176 5.57571463772811 3.233892267919168 1.1145588222397322 0.21055406563560514 0.7949087357057084
P 2.0196309815257045 8.933546637099951 1.3497732452033542 -0.6723511899857453 0.5553168880768564 -0.6304949160715915
Ni 9.055337934217546 9.122545367263578 2.3024045287294146 1.3420546579359984 -0.2631961173113532 -0.2797707338405827
P 3.477158339234066 1.5988142258456994 6.703283190711028 -2.4017075721664702 -0.4113492521122335 -0.8435473226490182
P 0.8052847288026048 0.455577321460371 9.707620712048294 -0.2707669876800756 -0.8434231383663281 -0.3588139012176788
P 8.488976656959109 5.390404006488238 3.7030996825666187 0.09057019418008919 -0.7689467644243079 -0.22651573117118406
Ni 2.150273716060309 3.5985481471017327 6.2705216629977105 0.1503794530282378 0.6755563271866043 -2.3179263758837565
Ni 7.83757435439041 5.664686522903942 9.975028425330937 1.3057452819820028 1.3195261378161791 0.32328536929376583
Ni 0.4381162738722375 8.885582677172545 4.696314059692926 1.4587002090469006 0.7287102855017643 1.3593095883617043
Ni 6.9498162640852215 0.43913306874007757 0.9453988748517822 0.4785308921650533 0.824990128472121 -1.4530509811809234
Ni 0.08256579739966091 4.158373552849719 1.8598177187440292 -0.07765297189778884 0.037708056073735056 -0.5793261065072602
Ni 1.4104223980366144 6.675785845570633 6.870946035176755 -0.5379529428771123 -0.5248989379066316 -0.5115127464077126
Ni 5.550738271598888 0.9431355959173063 12.754785932001683 -0.008946924780642655 1.902128858192182 -0.9084854180832999
Ni 6.861908792269662 8.123163928519196 9.641848369646771 0.7249482473561708 -0.15002515501261257 0.725470438408228
Ni 1.8124345176851233 5.99746508933818 9.506996533859438 0.5666402835094758 -0.9178738012767353 -0.5951283636468395
Ni 1.4601883911090445 6.9699934331339115 2.0604969849927612 -0.8784181663842742 -0.465213863341173 0.8258874434754098
Ni 2.7155425690805703 1.3237660787673413 9.632814861523398 -0.5692319554960519 -0.14351589313918509 -0.89627679183225
Ni 0.7918012258765454 1.7180938809114208 5.912988950065607 -0.4717215825527037 0.12694796147817491 -0.9640009346521011
Ni 5.334746392097101 3.749704181219851 11.90790224842692 -0.22251586598317163 -0.18409510011312807 0.696534214989852
Ni 3.0148201255440985 3.775632917197738 13.274338231198204 0.3207271216482864 1.4603750256461623 -0.18272238813531758
Ni 2.8291360159322 6.944652925591965 13.507363525552156 0.26586800771656144 0.812328988064685 -0.24820787143263703
Ni 0.26206137038709276 6.323838501692175 0.055053513124384605 -0.4760127537288899 -0.7854912990465505 -0.8803842889717096
Ni 4.943331721254823 2.6108845922796573 1.1956536602032113 0.19641351246916497 0.6532928878027136 -0.779793991551457
Ni 4.838533690064399 7.249103157508049 8.801086930285441 -1.3093818502933257 -0.9407933861873862 -0.5872330200591628
Ni 7.329419681412185 4.890979390456114 0.880253976115262 -1.1592993596802164 0.16194761748181138 -0.5839533208666267
Ni 7.5286797298472194 5.28060136511267 12.29368206433126 0.2514333203484702 0.2785813415181718 -0.3457760941971142
Ni 3.5911999601321263 7.2647238904180265 6.666796221155974 0.9256313337349671 0.13053207928500746 -0.7110617191820657
Ni 5.097111440936422 6.027698163553663 12.625537205490664 0.3832283255063013 0.8730605016167867 1.9478099051690645
Ni 7.4065989869913045 2.8292573964031082 11.570950061185295 -0.0104078255968853 0.48542993327773176 -0.8723475347101622
Ni 5.616293062848707 5.761930954020146 10.521310571613338 0.7153662600946905 -0.5085346376159952 -0.963728654827321
Ni 8.169988779411922 3.160373984081831 4.197794195017036 -1.4295580402653056 0.24004898977092853 0.21053658213410836
P 3.1088899904980822 1.7179538265219112 0.1630261104770267 0.2807577803442004 -1.6718274347263207 -1.1349052471065681
Ni 6.839014568064484 0.5601802102014108 8.017283743745827 0.6460598603893841 2.2286844135967874 -0.08391823608121032
P 6.481231624623123 5.95365607629956 8.491548055550506 0.42052191975043707 0.26477785997617626 -2.345200638218677
Ni 5.91013650899926 8.148784544840161 11.79326212843769 -2.308511767438076 0.2646145949254346 -1.8460793234967818
P 1.7541999025270094 3.401108805730324 10.724026228685542 -0.24141013178451323 0.2550495769448188 -0.15470867653121098
P 6.672499235896806 0.7095267416070646 10.829401283960745 -1.768383928396832 0.6042436956845464 0.36067178036202396
P 6.261159493906955 2.0813109346657557 3.041958931447349 0.569633818920161 -0.3028548693535559 -0.0625557112450342
Ni 3.4281393029056866 5.103152453603938 2.851023715924769 -0.25813438651772963 0.7308185900940188 -1.2176572307938192
Ni 2.9508526173753893 3.2771886818921825 8.212114338688636 0.8333225595972164 -1.045446797933419 2.2973002149929727
Ni 7.179804245578674 7.625849465289017 13.359583735917148 1.6553240377546588 -1.1281920967524506 1.7475374239651258
Ni 7.319839961169725 2.6597729111778263 1.073995881603616 0.6356759460518988 0.3327205465647367 0.7536283888996828
Ni 2.6110806684249708 8.165105549697685 8.816843049105277 -0.6970939441480639 0.7912140604629406 0.31849540410429017
Ni 5.072527227097828 2.4257420263071956 9.489558828669553 0.4467613130629402 0.3674366098896833 0.8159066781136142
Ni 0.5497414897032913 1.8351700135821905 0.7842093442691922 1.0345805446428764 -0.5462416652484657 0.947903514869606
Ni 3.0980684546686366 8.895153060455705 11.762158849615385 0.7094632643466943 1.165966744398063 -0.0004188327049734723
Ni 3.664803210299099 6.697765047764348 11.144584350592918 -2.2667218279854833 1.3808850005396347 -1.1720178356881492
Ni 4.638078510838883 0.7551994117220927 4.9123535576871475 -0.37709804423884735 0.0946163392250048 0.1710521508862409
Ni 8.137776269824702 6.678754998628238 1.8768996857845568 0.3235581633391783 0.9523407247053535 0.4355343339988693
Ni 5.330451390818805 6.65992235171884 1.3055141907264436 -0.13436379432627182 -0.8483005210632873 -0.0566516870557734
Ni 5.320339463896207 2.223858292308681 7.123103692833655 0.861708052718445 -0.2593633738288243 -0.9126220659594928
Ni 6.472174774101499 8.473421282764237 2.4323647315391423 -1.1858683684179965 -2.0623134702362997 2.903307687446161
Ni 0.9503717393753051 7.846360433092316 11.821809881499407 0.5401962303853343 -0.17691735141776627 -0.7561071894574785
Ni 0.9927428606816255 1.371954125717963 11.769101812551343 0.23747711527869422 0.0022155195940800555 -0.2655900714648265
Ni 6.188667341896759 6.668157549822007 6.162713396128759 -1.7322786980338425 -0.9336338923244694 0.18315819012115556
Ni 3.6193415554642656 4.520890334656506 10.220804271305846 -0.19922295689350206 -0.8055232779967612 0.14377660299973946
Ni 2.558672315870458 2.802320268820752 1.8938584049623155 -0.6503250634236413 0.9972049322078956 0.4031129802453703
Ni 6.841946373284886 4.196832488209069 6.19275039419893 0.14195883306471035 1.1881584500037536 -2.197025649040926
Ni 3.434703185294039 2.3115510140603255 11.519882495986355 0.8823118450117257 -0.814832471212829 0.9601810466853786
Ni 0.1694518058677296 4.522683030842229 5.666228988580408 -0.7244502246738298 -0.6575560339544417 0.6243327531249377
Ni 2.3604393329584945 0.3878218089033909 3.5892793476039837 -1.243208339790046 -0.3327069197179819 0.2700144257847672
Ni 5.02671076780957 9.01376979141108 7.11766491404103 -1.7406851769299831 0.4408827427949762 0.09705117391874253
Ni 0.5608403332239663 9.068876525203478 7.571867835092346 -0.746722920029101 1.9419506181748105 -0.3258256192171163
P 2.03929461781286 5.227165947035086 0.8398128042963847 -1.0935819628777488 -0.9262825941657209 1.0838459665369078
Ni 4.1816786032641255 5.50215807235764 5.119851605313139 -0.28774141075088505 -0.22172550887139233 0.4864128660162913
P 8.341956895811174 7.467251874608285 11.112374642093489 -0.42309636534583267 -0.8955499409685543 1.0745920520388075
Ni 0.6023300455723061 2.050153501479508 3.2897842399887507 0.6696936977582403 -0.5119092105151829 -0.40898100899037304
P 3.1976191147320985 5.325334737122053 7.435813398947088 -1.831149698770143 0.5563173043169128 -0.09888925556874581
P 5.111518369137315 4.63354074861877 0.48212883262361106 0.6054896522765056 -0.6467116350407701 0.5684685949674662
P 5.074301249364949 7.326338484842974 4.231711633372553 -0.07722514033175087 0.43229551534659744 0.11186844143723314
Ni 8.456745473453287 6.5004097390266455 5.7030857017237695 0.6196597731293005 -0.8057863018501608 2.669721422581441
