# total energy = -381163.661867415 ev
CRYSTAL
PRIMVEC
9.25207175337622 0.00000000000000 0.00000000000000
0.00000000000000 9.25207175337622 0.00000000000000
0.00000000000000 0.00000000000000 13.54134222481547
PRIMCOORD
 96 1
Ni 5.522561697975017 8.505004072893827 2.1757958630762904 -0.26276340064930875 0.191868830521276 2.3036400411680713
Ni 7.777014050036622 6.551660399774419 0.47543806749234674 -0.9007551393185778 1.184386127445515 -1.976486447168151
Ni 5.927117792472681 8.318815378623349 11.452089655169296 -1.2220810708931276 -0.15973081233615072 -2.775317914967033
Ni 7.0855512069140545 5.920687602524461 6.187879111205965 2.429870664864248 -0.6296541653378511 -1.2472277453620844
Ni 4.516611679989207 8.4460776271669 5.082512805377551 -0.5165976171297877 0.20623718342780611 0.5516211843928241
Ni 8.664574556400236 0.4313704491853355 10.280113057927627 -1.0405079658709049 0.7050425095711794 0.1433695973693079
Ni 1.1896684090675482 0.5422565305226291 0.6388777674539287 1.5977945760796226 -1.7124745188237216 -0.7959384625218034
Ni 1.8395061808562418 4.46892650158183 8.73393548877983 1.0739058246050601 1.1003475637363567 -1.8843036570853031
Ni 8.224832832588787 3.3206981224107976 3.0218321456893906 0.9109439069261215 0.4538305612048958 0.6287416808259108
Ni 2.408138517860002 7.1178871980925145 5.560467436417978 0.6030357914193744 0.3808125169759571 0.5495028524982407
Ni 3.8684485332086114 6.288494467562655 2.7890694468428743 0.21968662406449263 0.5251043690492182 0.20830229348695092
Ni 5.182936643846575 4.7946179354771505 5.914153789371319 -2.285796328118431 -0.6076097839433019 -1.8595688733427844
Ni 4.712875880523876 3.096233606822639 0.5033858009838413 0.030807729409475973 -0.5119269511269958 -1.470337793285829
Ni 1.48085886696731 4.3029628364146735 11.929529871013866 1.7302017609001556 -4.314940253581298 2.3161047492939852
Ni 1.469645355863363 6.210453241356559 3.576322690843001 -0.42125339859982286 -0.6774638286219622 0.22592823409883026
Ni 0.648365767154504 8.016799996638094 10.826533020790832 -0.2171216915507938 -1.7381384992487292 -2.307739665158742
Ni 5.421732618758177 7.849818603565464 0.04061659550026859 -0.46143254192186983 -0.41581680096528395 -0.13553621736781818
Ni 4.049474571376779 0.48586515248751816 12.497819881358513 0.8651746711108068 0.763372355660324 0.2921796490278968
Ni 4.863222048377946 1.962614249131088 6.603733835868761 1.3968317536768782 -0.3324683213446145 0.6312701036747194
Ni 7.01028560226834 8.252589048192615 9.109342005650353 -0.6528120915115532 0.3041833583569923 -0.35308136960927583
Ni 5.771645976803771 2.5991567936455477 9.17518067426982 -0.82763939316951 -0.32466708013264084 -0.1898507716499827
Ni 2.97808464906901 0.9905915786850245 5.739308135210937 -1.3360387907592215 1.0438352304719247 -1.283543549073983
Ni 4.508627141967173 2.7641674954103066 4.3620188111477525 -2.0042643886123677 1.7869030702469417 0.47475625561396945
Ni 7.432448389530699 1.536732128977816 7.048973140784142 -0.34825823718901955 0.4474236292372875 0.06779279127425743
P 0.17112909689102915 8.244983845117165 12.920011350043662 -0.5685534413717886 0.6240342480479124 1.5865441999767838
Ni 6.0202213916797875 4.560799575230502 3.381734040523616 -0.1006895420022782 0.3906104769029854 0.06615628411209896
P 2.9906767188812804 5.845690307962916 7.246067252165366 1.0799553732332496 -0.6504093956073315 0.05622694081352897
Ni 0.492647846373907 -0.05737024723873929 6.474400048433976 0.6538803848750675 1.8014881671499685 0.8723830159337878
P 3.5138166185103663 9.488462304168669 1.493081779112049 0.08391335098520386 -1.116218469330342 -1.1799545740367228
P 4.006128614675467 6.883023353724788 11.822634208273216 0.6422350873266552 0.25085019415149057 0.20694577945905648
P 1.041551990533653 2.9725981704513207 9.99900828357111 -2.0315561344487847 0.6517635956423807 0.30864962165846194
Ni 2.72156170445843 2.2103847337545943 1.9406507557237787 1.0730092809327196 -2.0374298196207428 -1.9897240289043474
Ni 3.9063542716515722 3.9211390824965453 2.3832763503364665 0.8532645499367821 1.8757711941342596 1.4790096100282142
Ni 6.0474779954027476 5.803880195191684 12.072201445253476 -0.08651299339158004 1.0115131213004513 0.4882807724629656
Ni 3.1199096587327046 2.1160691131327862 8.22062406509606 -1.147381782307024 -0.7668924529984406 -2.5030208637956766
Ni 2.2935145994880597 7.35819126071859 1.0409700352131595 3.119135599886196 2.952759000098754 -0.33881920326330683
Ni 0.513403019195263 5.337076161166501 10.42806571478946 -3.396800600237686 1.1908809911412395 -2.3433175622633513
Ni 8.504550721372299 1.4448868115447484 4.697721912011374 -0.6364570471922975 -0.20580138144196813 0.5812690891662441
Ni 8.110847307175732 5.86613738679107 2.5500921313226605 1.400688151308491 -1.3444406416696715 2.726756718228878
Ni 3.2129669975804727 3.07342724966816 10.086269199393612 1.2885374027441487 1.4001698169111758 3.236658668506045
Ni 0.7734843106462539 5.19604682968345 6.339690807243916 2.1545553956918573 0.38898656814631716 0.9623196902949362
Ni 9.069722783497449 7.185381062369156 5.893394915721216 0.1033452344575704 -0.18790393233625705 -1.081757459438995
Ni 7.589428292914083 8.01861340272421 4.063594158254446 2.0213195443224414 1.5223524957902232 -0.5207828588557288
Ni 2.7376140491493106 4.721471055289195 0.5169595156213002 -1.3839132458429972 -0.2794552594826929 -0.7097324588476809
Ni 0.9298239706563767 1.115522305117855 2.6961222076503346 -2.061064685430863 0.2386037726839697 -0.32951875179798734
Ni 2.6786968554942514 2.4522523965263527 12.80885048217189 -0.15859978405550104 -0.5862277187231 0.36289629881716856
Ni 4.7940443070213385 6.8442109122387675 9.625660352691206 0.9113761093675338 -0.4092198644740565 0.027699522797797457
Ni 2.7032888625192433 5.705595435738528 10.419521426419417 1.804752182613221 0.04103274957159385 0.6241846575828476
Ni 2.838609665659774 7.940997771824039 10.030180364108583 -0.013289518020054533 1.8415418406377444 -0.8419419258351112
Ni 1.468229788867568 3.9142185327393237 2.3510208521832574 -1.8095938269762384 1.0421190191117666 1.5803568402191492
Ni 5.080543964484052 6.876361861979869 6.912503230317614 -1.6356838949262282 1.4878662890878958 0.7028213335501444
Ni 1.0247779842370728 3.041461341364418 7.2592560806131186 -0.6981383262521782 -3.3319789757766096 0.3571239151097656
Ni 8.061783570060031 2.326997847578144 0.9067946385698803 1.9472339780609367 -0.7098090777218872 -0.26751891305642317
Ni 3.12577547229698 8.961862129660972 7.426546492886138 0.5504726726106777 -1.4826567198624983 1.5003289403312807
Ni 6.019694023583315 2.4451190491161694 2.3927282669567567 -0.6068770195423355 -0.518266005971146 0.01836821809454256
Ni 4.390274638632449 4.3180529656312885 8.29156710176507 -0.15523549556895846 1.3476776605497307 -0.15794492408032154
P 6.264827667724458 1.254654961867978 11.149155542447554 0.2697326328782903 -0.15583430549522193 -0.7887190619552287
Ni 2.2069244588759838 8.455561000831542 12.235902978848921 2.0639062686447165 0.11019439616891989 1.7597763892334788
P 0.4550640800319501 9.082416626100265 4.205669899065762 0.10946368865048245 -2.642341487906591 0.8772948514131085
Ni 6.063965187471422 0.8369340943094183 4.395736136656096 0.03938235845236443 -2.1942799679749885 -0.20958810217791002
P 1.1267173120780658 9.233049608182242 8.797201156212822 -0.20746411385637173 -0.42040262056375344 -0.8993070940181415
P 8.843555886685587 5.366886336725012 4.553303546603094 -0.5845071364875676 -0.56586098214129 0.1918019818390826
P 5.37845142655994 -0.020534048303712096 7.685781219761212 0.8216420379354946 -0.6013764014390803 -0.7436622788259063
Ni 4.048392078968229 4.331884813073862 11.992253367035396 0.32776834476578387 0.2720823640573895 -0.19530408145507008
Ni 6.647955963775966 4.459480136204661 10.450314172010302 0.46219744511235233 -0.7109457624294917 -0.9667013643023996
Ni 7.619062679107103 0.7392636724282942 2.43920234915662 0.5411547376438616 -1.2185571169002691 0.8057330800147221
Ni 8.564726196801399 3.51510265650001 6.00527374436994 -2.0128765557614106 0.10421735264987858 -1.4423544206990255
Ni 8.258343836894475 4.7570082633339625 12.339968432805168 0.18936560448344808 -0.747154351139565 0.6969144811474062
Ni 9.261046377654635 7.9010380734263945 1.9947346670350248 -0.4341845048391942 2.884159910873117 1.139691869861934
Ni 6.661130914115917 5.926349870507641 8.401211555057687 0.005371805834874619 -0.9148041612124762 0.9647578674227837
Ni 5.851630138102136 6.792417813922024 4.302612182890878 -1.5139131067736185 -0.8058703769235348 0.9731535476856464
Ni 4.725005346742749 5.71732706286708 0.3907196210191555 0.3812318639015628 -0.44584677166847086 1.3305222318163668
Ni 4.376748109561516 0.713296807523726 9.442079817480296 0.7108645155695951 -1.2911342169370472 1.78655185755511
Ni 0.9004541937187792 6.3208212066692475 12.49507016559936 0.03616410862538288 0.7226350258419619 0.9795370826144872
Ni 1.4798873994211759 7.271878682262553 7.892422544102966 -1.4552644438924744 -0.9498734941117836 0.5285226507021478
Ni 7.965534266417823 2.366642975532279 9.478668986096451 0.8085895756269106 0.5715024966977835 0.7113026315482781
Ni 1.9329336025787276 1.1084167139232752 10.367806970713549 0.43388882797564626 -0.8527086774333121 1.4483643743385315
Ni 0.25847328136034253 1.6542426937725567 12.584131534607362 -0.7649587263108375 1.2677114671377328 -1.5784251704140753
Ni 6.628276806912853 2.847639687802886 4.715162992689632 1.940376588819471 1.84431220429403 2.4247503129185466
Ni 2.884120607178184 3.487152147386955 6.237494271804994 1.3203602036817002 1.4001019397877177 -1.4540254292790507
Ni 7.1908305326993744 8.349384224075031 6.551789003573384 -1.2554241651299476 0.5895084463569008 0.04401754323153064
Ni 6.894264621044338 4.239808193844097 0.9468394560287101 -0.685287181321123 2.01323856708652 0.3582829684148733
Ni 1.4585058613343602 2.283716655379908 4.4330969280660355 1.0489257576209547 1.76901564844356 1.5076419290529262
Ni 7.470640942201566 9.016523370256778 12.833955979185552 2.1813565750451014 0.5451849418491771 -0.15134233116213935
Ni 6.059551949190412 0.8715470203745789 0.5297699343296537 -1.600433042143734 0.7617492182346042 0.787397772040644
Ni 7.8910920961683555 6.894051823391376 10.934823895969167 -0.831068473455717 -0.463540332293492 0.8016452830985936
Ni 8.620053586571697 4.284578969613071 8.388617634831043 -0.6619839878188083 0.6995568038662597 -0.4186211031832984
Ni 2.5192559009939943 8.4265094951662 3.471242284602841 -1.558175933246736 -1.243285729995201 -0.42198899121426675
P 8.679017040586094 6.457455804015026 8.965912686724758 -0.026867256704489213 0.9446929783521085 -0.9351261605992798
Ni 6.672187139998109 2.7051392768928317 12.728604487239663 -0.4853589708304802 0.47262892485832153 -2.4250627019526427
P 3.099925183497948 4.758886433923156 4.2911294364955745 0.01712688948827373 -0.34613579152937807 0.10783695168033687
Ni 0.7713581845310007 6.058312171560108 1.3017618857836084 -1.2084459966081962 -5.0036706562560145 -0.9359694824361816
P 0.4791536995545126 3.7810257061284203 0.48127427442664505 -0.3779063990727556 -0.08694391028141156 -1.523443929082189
P 6.280001065587884 3.5877776810227004 7.157763627843347 1.9251643998554069 -0.4976922955848525 1.073639715427867
P 6.166987007720964 6.338030060343621 2.246332733790299 -2.2378581096762553 1.2039393669870941 -2.5362269182339996
Ni 3.8196160978896097 0.8937908515594869 3.5797894421719185 0.7096872074320423 -0.11994144825335473 -1.2684928253884475
