# total energy = -340890.85595232405 ev
CRYSTAL
PRIMVEC
9.08442752593033 0.00000000000000 0.00000000000000
0.00000000000000 9.08442752593033 0.00000000000000
0.00000000000000 0.00000000000000 13.29597795220503
PRIMCOORD
 96 1
Ni 6.162494049681989 1.937072469424243 10.967559334417642 0.5666130298159661 0.984167639407963 1.239429332363588
Ni 4.809913643676383 0.43673748439036836 5.833011858215962 -0.8699044724863082 0.5424215201714271 0.10964957940904341
Ni 2.543621522739995 1.7665214281028023 4.417030324454605 0.8802760455286194 -0.4258577301410537 0.8292895271784234
Ni 3.4643009935402516 4.3047104632157485 4.775436424542308 0.30729824983689014 0.25950992670901757 -0.056173718978090356
Ni 3.710407218129532 2.92301446716885 2.3886620842852846 -1.0470977032732804 -0.5435846872415929 0.2523933702688944
Ni 5.131066323595183 4.668668965373104 2.546791079484272 0.6161988111638936 0.21327660677309074 -0.03439673231231495
Ni 5.138570060685388 4.319836034953268 11.300211991070693 0.6843158185467892 0.935214606548028 -0.5165066000778783
Ni 5.861000070808229 7.966288883694127 12.219495185368814 -0.6570551830586233 0.08932603736034293 0.020501719497777595
Ni 1.9534062700152703 6.638899595062781 0.45710386233532085 0.31151922989677316 1.2993064683351945 -0.41874888701041435
Ni 2.9180271164878295 1.7754968424431448 0.3456969860571976 0.08331094151451458 -0.990371968446462 -0.3302890543051086
Ni 8.299233150468964 9.03419058607291 6.858677331958559 -0.009939884821531268 0.010001077076769872 -0.8813574515182563
Ni 8.55203459810362 2.5541412897502345 1.5407379762066191 0.029428332563446093 0.07340293837218327 -0.9058017006035496
Ni 6.939857592715811 0.7265825019193702 4.519727960117256 0.010850826671574861 0.511933378884899 0.18726192787688395
Ni 0.8452923494406119 7.471796243220602 2.5113309252979445 -0.058940483089950105 0.20445000962039628 -0.5784089940096296
Ni 7.491236918006363 3.859400913064705 3.7701273358744456 1.902116774007324 -0.5692620374030389 -1.5415771483477902
Ni 7.685189444490478 4.076282534483053 12.446990143400342 0.5996907862065414 -0.5324250710803476 0.1180516874298096
Ni 8.481748382768371 7.253842659360796 8.80760134546014 -1.2404824562184507 -0.5161633578058465 0.567996540427054
Ni 6.788665466332902 0.7661688030625634 0.41310071255622244 0.03141296709364268 0.9905051515902168 -1.734824861494464
Ni 1.7721356042792513 6.5175952350561115 9.289952648620034 1.098891033795488 0.1355588430756375 -0.23110052232838912
Ni 0.29097875407725565 5.03681538859412 1.0474281281896853 -0.8637461661943964 -0.8358805501323797 1.3605858839709664
Ni 6.674992025401019 2.200130235672509 6.766150621291299 0.45916328627171893 -0.7103451527310154 1.1719718129415622
Ni 3.4080956407834737 4.5539235619997624 0.5652476122662264 -0.6976151067588566 0.4715570319503814 -0.34827700624209695
Ni 6.102600419372398 5.618409519649832 4.59889238641892 -1.2693448889760979 1.751059321075455 0.04719568384919614
Ni 5.478318563635242 3.2118538385769244 8.873629689640211 -0.08906327061725952 -1.2553516600207992 0.8736811659199211
P 0.4709939519369231 5.817403903379787 12.321901210909678 -0.04106385991984541 0.34278050190389997 0.17828337852735748
P 4.28359825377551 6.08211503542759 12.390987373376143 0.7488523076672781 0.8006530943886534 0.8115792543828539
P 2.4270501494451873 8.787057821179523 1.1576195080723248 -0.1757762958347876 -1.2075075439543266 0.4545185884108559
P 6.315285035299615 7.963990523544222 5.476679732919656 1.042825815370804 -1.158104568041167 1.656261976187896
P 4.813665512221485 0.9806276076746674 12.596835049189451 0.49989290278059717 0.7142380600275183 -0.7440433163144089
P 4.413269371482032 6.120442234923443 8.121170196072596 -0.4840402520190567 1.8347237892746466 -1.2437703829411033
P 4.6419789174662975 1.3170875478803874 3.5619258849036655 -0.17143267415411118 -0.48923465173580255 0.9646989891603903
P 0.09220966414855739 5.562304095595224 3.6431379411570624 -0.032687205820375966 1.0701152472143765 -0.3543892897874219
Ni 0.7787879812611154 9.066885440537376 4.552768931268328 -0.43863019931537356 -0.09210719964990588 -0.15643774340717573
Ni 1.9050862003024367 6.757796581789904 4.635363637382656 -0.4143880389385573 0.5460454900772596 1.0070088056721946
Ni 6.25707202407197 5.640511931684299 9.033154052898587 0.6519217184867998 1.0808830272538417 0.5414568422653127
Ni 8.63265889189971 2.3104969450053194 10.119608881499314 0.19041410035262044 0.7148060167158464 0.4231184768330197
Ni 2.6067492092288993 5.60476470958992 7.131975973293735 0.33961804501551834 -0.8974523001975899 -0.44176463117929726
Ni 0.775449454165897 0.1308248399952095 9.021360649157057 -0.4968209487234927 0.6856221960630385 -0.1187494848277826
Ni 1.6750775811899645 1.3078668539983558 11.231830780175898 -1.422198257466125 -0.5166438969866909 0.2785900832689202
Ni 4.150820261874255 6.801955983721486 1.604106400023478 0.44848678039447926 0.5536580123171948 -0.6650415436982094
Ni 6.008376737653746 7.846165499258556 7.868705780697076 -0.9225591225675467 0.5796747480959307 -0.34698271291070565
Ni 5.60944318973696 3.0364335441315737 4.926398714910226 -2.3238028892691918 -1.2173746665563938 -1.6498599293162943
Ni 1.0783669628242027 7.460077331784325 7.191687915053927 -0.2987796708429177 0.36583429839956993 -1.519504741928783
Ni 5.287136787529472 4.563226015729024 6.914706446822419 -0.23963118550721957 0.5686786540957431 -0.7286246677664936
Ni 0.7102105467329688 7.769293074007569 10.982504126048509 1.2346180270178737 0.10461973029461982 0.982512106082411
Ni 4.787693134084806 0.26642899728237646 10.073804289752918 -0.0877142127885328 -0.7817302893422214 0.253564250648544
Ni 8.118752829922835 7.461449080332293 4.2725561321857475 0.0944240207085406 -0.1271107123082843 0.5418844167210345
Ni 7.563003895019221 6.394546664975207 6.543070695010183 0.28245059466559097 -0.7212625709744676 0.46301145637321556
Ni 2.2480687594316033 5.557107803082395 2.675323918428805 0.3218103274101361 -1.2245866109238006 -1.3842243493255129
Ni 2.4364252785942084 5.729693756157111 11.506512071372006 -0.16031111031965295 -0.8560719374785902 -0.9108958272970055
Ni 1.1407769795429783 3.649959437744272 3.505524308513536 -0.7933377916741627 -1.0504571066638166 0.4264089746588333
Ni 1.3843304800131935 1.3020800736999771 2.2576973441070374 0.48180159249652516 -0.8536990663710394 0.39702743617292263
Ni 1.4974406864419383 3.4764832107774977 8.199948534206785 -0.4612541073624766 0.9185875395143084 0.12796020479277315
Ni 3.8760435841897123 2.667687548697538 7.053410210762344 -0.18673485172882032 0.13654717513083578 -0.8297410128935453
Ni 4.071376943649263 7.059708444327282 5.698084490775309 1.1409385977848414 0.4247069043660621 0.6879495586446346
Ni 0.5611432679352887 9.05445794375844 13.18268250918661 0.47317168473566895 0.8612820209246199 0.5299043615410228
P 0.37194916455995136 5.367315944379532 7.974448516447666 -0.2985667835011632 1.8936904976168418 -0.0373694417873937
P 8.875004163516419 2.012554977272323 7.871883513426075 -1.1094065886148314 -1.7833891435564124 0.3801052064962873
P 1.9665968587016842 3.512493881268506 10.38078162904756 0.3775801260815885 -0.9709493409454761 -0.029687756872419837
P 3.9580396265337687 6.176947373786731 3.7313431896768523 0.704821908919941 0.573998780757076 -0.07659059207154552
P 7.163788729850865 4.2031647329562905 10.348937985437031 -1.3520444221588586 -1.0044788401614895 0.5383848882082084
P 6.645958195206957 7.732482973899203 10.02054047461092 -0.5477213351177858 1.2337500225906235 -0.26520492021126585
P 2.39055800429827 8.64826593829314 5.845922646536301 1.028441264514358 0.00708853141566521 -0.036609166582601466
P 6.989295047007453 4.021993995922442 1.4340377418006933 0.07136405356528354 1.275339673106952 0.4734190248597847
Ni 5.374856019179617 3.4273818803022453 0.24324553837898266 -0.16747214684446643 -2.0938822461815163 -0.4877446974538375
Ni 1.7837455025858882 1.3653258577459915 7.172581547199061 -0.3695747392786087 -0.9504381083660018 -2.305490464113249
Ni 7.263980880417296 0.7066212894395789 8.886645857319198 -1.0176192341981893 -0.08444325534674489 0.534865305090724
Ni 2.9186357731283183 1.6799559187413449 9.126053225092114 0.9867428563343069 0.02862074906048619 0.9750265963386433
Ni 6.314912573773346 2.047493685321873 2.456019480204213 0.08317287327475353 0.4592779574727123 -0.044719454394561695
Ni 4.414159645374091 6.884142799042412 10.226149229981768 -0.35086482157393123 0.47039129377705435 0.4021285048449139
Ni 8.297797810928708 7.13659903843321 0.32752631423173983 -0.15525400751171972 0.6921008618088467 0.2911776901259437
Ni 7.715422419110577 3.9367820662540107 8.29239530191231 1.48599581153806 -0.3494959662508626 -1.3554688744593753
Ni 3.2278969374889126 8.431084530768283 12.288913837880681 0.061416198323952294 -0.14957469773875529 -0.07403594397049185
Ni 0.22171635371787252 4.8427720178353075 10.254736106344307 -0.07317642418367397 -0.05910477658195627 0.16496454993126428
Ni 8.932117959020195 2.2306175742617684 5.654846249789183 0.11809822439702886 0.6323895619911432 -0.5010828093236402
Ni 3.5358953664311796 2.6048778171700833 11.56016106623873 1.519512198127951 0.6649248156146871 -0.4145019388086023
Ni 1.186744182541087 3.5746222807357118 12.518429172581532 -0.42327428568459363 -0.08062182471812566 -1.0109431077295945
Ni 3.3297969604196997 8.335888815310343 7.899499264492073 0.7283652434575197 0.07450594162837491 0.2565071353269518
Ni 5.558270609798552 7.85487746520227 3.4625913042904015 -0.18015745562161878 0.20598830064179366 -0.4151560274528334
Ni 3.193330690965632 8.641988598911382 3.460172121255145 -0.4587544808690745 -0.34444374853893583 0.011746341902650738
Ni 3.5524108555716065 4.664708154996192 9.345171432553572 -0.1617974650571923 -1.2870032254878092 0.7151058073444523
Ni 7.816668363263525 6.573173762317461 11.351480865940282 -1.332894588703285 -1.2699915214211612 -0.19687991058262222
Ni 8.152883023927556 8.956146269678296 2.109831935063636 0.044720739946142334 0.4918216957366885 0.8632309171208746
Ni 4.6273439048121565 0.29271842193775716 1.5200091296056144 -0.295787163873497 -0.1033902287628929 -0.4118614158619617
Ni 6.177210822183359 5.769665237025031 0.1266632637712108 -0.17575084191349089 0.5946298267438662 0.3990976884383901
Ni 7.930232791065769 0.09811454200404564 11.36045537183788 -0.20938009993216194 0.27418835465679875 -0.20200746161717467
Ni 0.6797477360978785 5.09231215600824 5.83886222950663 -1.083312976851573 -1.1047978861982264 -0.6044864078229718
Ni 7.302744132431709 6.167990128301328 2.39296991979155 0.19094117650068407 -0.8759339665098398 -0.016958225120893376
P 8.716108442638964 1.5501485346227735 3.5578569698398606 -0.6965439851818649 0.7220087051118727 -0.5878914795787683
P 1.6420284340541704 3.24432158235464 1.296190639371188 0.8484203344706034 0.8615566147422452 1.1563875853500603
P 5.044855106905055 1.0332173582983926 8.05995569000887 0.36787138343425674 0.7060303274057453 -0.35410466866746754
P 8.538844009417208 2.0065229174322545 12.378316413941013 0.22470901697974852 -1.6910862829559328 0.3808742234518279
P 6.3583543059347996 7.917251144211165 1.3025688158978623 -0.03678194471503988 -1.0992188494485522 -0.07971396819187561
P 1.9365364882035139 3.246647195786955 5.864590236544366 0.1925655994779845 0.18288771006858826 0.5038089500055516
P 7.103749748701755 4.221996751101563 5.814011778162495 1.842434013434711 0.1380319872064784 1.964709509137881
P 2.6024795283180078 8.63227734594597 10.04977779598031 0.041001896333658416 -0.08354028391650128 0.6647142422657779
