# total energy = -381172.55420629546 ev
CRYSTAL
PRIMVEC
9.18950935147301 0.00000000000000 0.00000000000000

0.00000000000000 9.18950935147301 0.00000000000000

0.00000000000000 0.00000000000000 13.44977582571695

PRIMCOORD
 96 1
Ni 9.195666334581341 8.443762299456761 0.8971442306116628 -2.139507500219799 1.190160568035447 1.8808174983089156
Ni 8.23804594284975 8.770265567135091 4.988750300851109 0.5486196785623391 0.34934349983339835 1.598353791017202
Ni 2.47853013890587 4.139203133986699 10.664852009353305 -1.4136413690350493 0.16710576464398316 -1.4424999451379543
Ni 0.6938134706353664 8.65383448350198 9.994111558827333 -0.6858875339092834 1.9277635280411507 1.5081556354645511
Ni 4.026907329567076 2.7272809678612524 11.217543103647287 1.1469943170606183 0.4543463244990498 2.02807177544461
Ni 8.877727689629614 6.129954115888184 7.112887011161008 1.4121825251013358 -1.4166490455131215 -0.24989194400327933
Ni 5.344949468036969 1.937157763294674 -0.004340205272290333 -0.3958681257574989 1.1580991687245281 2.5749976112442945
Ni 8.257876904055767 1.1148528969377909 10.908386872794074 0.8702852528644947 0.671396796492276 -0.1225557459477502
Ni 0.49113884162761007 1.5264969688671695 8.560486528438561 -1.237300201835727 -0.09722420916149707 -0.6654490635492734
Ni 2.288922992212738 -0.20432965964408806 8.455268484130558 1.528656069410748 0.45565013091213785 -0.5242417639386068
Ni 5.947753713741878 4.420962680575084 12.835968248381244 -0.8561207884386547 -1.1929239897131971 -0.8492783115955245
Ni 5.91561799949839 6.208175219588661 3.077994916908154 -0.2745755627928884 -1.7223694093399304 0.11672499819858606
Ni 3.3373265469444493 4.399716534927115 8.168654119745538 -0.40562289115141753 0.1720978185419359 0.1156343362375686
Ni 4.723720256058626 4.343292947436405 1.674887328163993 -0.5748451879177713 -0.7542472534306043 0.45779108851454064
Ni 2.9124863395693605 5.714257470329588 6.057026169580974 1.3398594500568923 -0.5322620631399221 -0.12324891536003289
Ni 6.249491253686094 6.537885626034786 12.017415458697398 0.22915316879403114 -0.15304748677870417 -0.9516436986383288
Ni 9.106050239270362 6.665151141207238 11.929400175917507 -1.240990763313437 0.7902879491042454 0.20109240600207304
Ni 4.498099422170689 6.133005032996802 0.0739755503746288 -0.9006456103239069 0.8804745346926708 0.3948695092896554
Ni 3.178972921595927 2.41127211987582 1.7769441812510183 -0.6093545345485506 -0.0610313041807078 -0.7691498815740496
Ni 0.31378774357232136 3.6199407179036216 1.0581894632526978 -0.6636899147663214 -2.5330004408769025 0.6349994888101643
Ni 8.775549535018994 6.955438552484773 9.393538525995833 -0.6355445626803571 -2.870265926499844 -1.4320604949721853
Ni 6.839080984926567 2.6279791296813473 9.619024274096128 -0.5329945704305723 0.3392056400684481 1.4127126865731927
Ni 1.535199434234222 5.101078268553502 12.559198605377137 0.7105472414394924 -2.2509059439991495 0.2598333714867073
Ni 3.5399092808585726 2.8160516283108072 6.106360050597892 -0.822766638458241 0.5279163845767166 -0.0687034760139849
P 4.683130193200895 2.497322685553835 9.256955767279925 0.047474905652511785 1.3554912430568784 -1.7277782390603278
Ni 0.8921708681442405 -0.1499893339260393 12.432461486993073 0.8364575056817725 0.6952761742130349 -1.765135082442231
P 7.83740171362825 1.2876156729679797 7.106753932611936 -0.022224872836471402 -0.7204223344613594 0.3261102403370706
Ni 2.661254343085885 9.018621247187852 1.394714809842652 0.20714941082943034 0.3224343341473802 -0.1991054574790313
P 3.596112320124564 4.168462531799471 13.195629103744261 -0.4407037940149507 -0.9768993878813241 -0.6307977920239911
P 3.0831814759928053 6.881490570638233 1.6256747486706702 0.6162723447143064 -0.009043084038874749 1.1688705483084192
P 2.5964866810932907 8.340729520475351 10.748751310889368 0.7721662998028701 -0.30582603616673776 1.1463777665225419
Ni 1.1103684163684966 7.484111026155877 2.7754284832193683 -0.9815309731160644 1.16827610925753 -1.0899963024090196
Ni 5.844923103966463 1.0099362685369042 11.581131555312185 1.1349026760034069 -1.366599694265214 -1.9816970448348126
Ni 5.2829110903252765 8.082274569632316 10.298009552422862 -0.18941934053951892 -0.5882979709885674 0.35104557012616966
Ni 8.020162675845718 1.311012163806962 13.4135959952835 -1.757369065343567 -0.6248516017428851 -0.43217004551232663
Ni 8.226485540070708 3.755761666293312 8.223677226009281 0.8126868856247359 -0.1225986833705437 -2.1147102386704613
Ni 1.717041445515359 6.368495399940932 10.559513582472642 -0.282980499027132 0.372640522688126 -0.7082718151417544
Ni 0.5430237304437829 2.282242218905613 12.62975657721955 1.1206243117075216 2.47022875696632 -1.006087836519822
Ni 1.9972755335494345 6.612780127345747 8.176911812859407 -1.974035414524497 -0.4486629009610273 -0.7257136647672857
Ni 1.8381591789237577 5.8060606688690335 3.8074967661068633 -0.7805858913251331 -2.8445880621177655 1.3239000985141587
Ni 7.514868313994869 5.03584194158338 10.04540923799519 -0.193230486755493 0.6776826295009878 0.7601798168649553
Ni 8.948349069086635 0.5611720924853797 3.1421900724674146 0.9715175547441204 0.7757653300080382 -1.888104775998948
Ni 6.785092617417133 5.206178687141655 7.014004214608071 -1.4157686997906973 0.03333975180271032 0.7146468654301628
Ni 7.202443374661126 7.77253296703266 7.251056798143961 -0.6602389801032436 0.16905440372992175 -1.0795825632748632
Ni 6.838869626211211 0.4017488082469685 8.837860841158776 -0.05760248100481693 -0.32876284746856926 0.12174147757657097
Ni 6.85720269739101 0.31410202479254656 1.5756681955683574 0.2747997629885525 0.5050261102421044 1.2580646880765882
Ni 5.2877815302878295 6.921354662256263 5.864438865001319 -1.0192886514808124 0.3926766154033947 0.17953781975974886
Ni 6.063973438659634 0.38829352863721306 5.873732215820433 2.064814382281283 0.4370381722379053 0.5645450915433439
Ni 7.1867752611966855 6.885322596042733 0.8145424877976969 -0.6209934043390595 -0.24874754598619092 -0.6414586141719468
Ni 2.1687425887593967 4.753145065039939 1.5939056958507785 1.4724496974225094 1.1726405568738127 -0.20462407330441532
Ni 5.218189375879499 4.88358096094273 9.592702762426805 0.7893384407067825 -1.7705806789378344 -0.16203683476150804
Ni 5.220854333594858 8.013435954991778 1.4720647480554874 -2.2458087319819002 -1.1396026525822374 -0.3621617346439892
Ni 3.6457999972519697 7.013589767735785 3.9105892768991333 1.0091839589466427 1.1805502986391927 -0.6103732056210519
Ni 7.773194611706818 7.618801664893882 2.892952199515777 1.4458652620657615 0.2744655195775854 -0.040892367338987635
Ni 3.974058461218692 0.17097082170434394 5.0752860726235065 -0.453177243891613 -0.48840958473134594 0.3127980966091968
Ni 3.9182321918365965 5.969707451610821 11.056912317878538 0.61376037692573 1.0654052433332168 1.422706564561111
P 1.1993136774959539 1.4237306856572969 0.9589326536686725 0.17082409403583484 -0.4806070579677916 0.8400236257664758
Ni 0.11546067144434609 3.2945953284050673 10.219516439245231 -1.2648374880240474 1.1991254905382187 1.056269856690852
P 7.1801863829831944 2.8570368400711605 11.90669657408452 0.0021972647616349257 -0.9308838403831582 -0.42636089502971736
Ni 5.3008857706399075 2.756485228617845 4.699634552017396 -0.9136911306539555 -2.050486909915017 -0.9931837268636444
P 0.9949022312185325 4.782239051684171 8.97416148193723 0.1795874420507617 0.23945635049225208 -1.0175647268111703
P 6.16989172358112 2.466335659980761 1.9915752808913745 0.01863201327889049 0.14214523804390358 0.7265657283549358
P 5.15154705397679 4.726357645245896 5.630734938677418 -1.9172741984740531 0.15158247219740345 0.5939227733745126
Ni 8.784610391251215 5.486752787022173 3.2845833579537436 -0.8466796976304127 0.6603012007997467 -0.8749669746108802
Ni 1.5624463294964301 1.837479155230873 10.793915911508156 2.9084511793203136 -2.5659609549633227 -1.35021996735561
Ni 5.862842647224913 8.311635533831119 3.857462885367977 -0.11133159509715665 0.8618306943392383 0.7403345000042539
Ni 8.095057177156677 3.2701788020267584 3.0700193417317396 0.9848914049478651 -1.368042854469644 -1.0235122026438568
Ni 1.1860624049940638 7.2371797200544306 5.6327529549336 -0.007542074013316044 1.2907164126733384 -0.3006046398667984
Ni 4.64291690022706 0.7706543100294746 2.727964667357883 0.21975655807047959 0.8242457941069289 0.3016109696441257
Ni 3.595855013862391 4.355294446664884 3.976977968343415 1.0953627089272555 -0.021823266522678544 -0.17034509751688728
Ni 1.5161863393615378 7.0477471740392 13.575800025055248 2.6304866454505342 0.5551767629545665 0.34799187090151035
Ni 7.503408995818824 6.571289492570411 5.04689416449463 0.17663581562160546 -0.2500030156598469 0.07814353838096219
Ni 1.480889433897072 3.301092311524926 3.481905097757373 -1.0139045043507635 -0.36098391228580406 0.3109916395280773
Ni 1.2048825201701188 3.628422635045954 6.8440525094921165 0.7053523275021143 1.0783923996215041 0.7680193675140322
Ni 5.794739193333438 2.4865342015613114 7.365527759429879 0.7289810226646477 0.9044914664325584 -0.5842711092173615
Ni 1.8353012415117689 0.025513753796288122 4.08481777967277 0.05777088826188115 0.35725529848130727 -0.44773190450632566
Ni 8.792715538509652 2.5081387380744484 5.61575236261148 -0.7911168727634439 -1.8051131654970654 -0.913776234168594
Ni 3.9503770955894475 0.623778381875724 10.016478824617623 -0.5122617087585951 0.8026670394948886 0.4369173303893249
Ni 1.844141549519271 1.0059480214732286 6.164596728285983 -0.4610882712085737 0.12564852594046103 0.7908697897496444
Ni 3.081986839775575 1.2940575190316588 12.790884515444857 -1.0813303992039054 0.3597690660420965 0.4736167426928876
Ni 4.145948233859366 8.480584663475534 12.353700040142035 0.19297774731473863 -0.7268580627843739 0.6499293706471194
Ni 4.526908534024661 0.4987716481047736 7.549332649911019 -0.886607387063286 -0.4867288545948134 0.7800950677316436
Ni 6.957423486507247 1.4188786247134704 3.8948798106425584 -0.21160127595319686 -0.3710258699028384 -0.24391104382949605
Ni 6.952093571076528 4.589654503957327 1.451324944373438 1.4918437856784048 -0.5518142742402368 0.5191887748957316
Ni 2.7662996246178584 2.156520541306197 8.173939925531313 -0.13267895042468117 -0.44051970302860266 0.9649193327013126
Ni 4.178855866889372 6.678273760578042 8.644520915762268 1.3498281312338303 1.0144110116735368 -0.42987147928613706
Ni -0.1476101699518789 5.6858159388501495 0.9112629927974492 0.584368039806542 1.7860021556992272 0.26644702014848304
Ni 6.975977105911766 4.172055629960525 4.759431608395377 1.9483652634519024 1.3175808411643501 0.4369530687232668
P 6.51875306754038 6.988309427477325 9.054927160780407 0.3484127604890128 -1.5656928104490713 0.35147622990568506
Ni 8.335280141422912 4.576072409118358 12.38384071190275 -0.06470386793628856 -0.7461968723223019 0.28667337449768693
P 6.5841548056790415 8.481834436748946 13.017083369471745 -0.6361747400651883 1.2232660923401641 -0.652191941429051
Ni 0.2296853538793273 8.388138199280657 7.647609857796915 -0.47374144119620987 1.1816898115602745 -1.2404441467813476
P 3.420565122757292 7.870713685070241 6.92750887667687 -0.18269436311085954 -0.30122710394214575 -1.4712963005443565
P 0.15736023938634858 4.437430281354131 4.990552363637253 0.5967651279193142 0.9027055781767293 0.7390018972357595
P 3.137757972101491 1.9255330339500893 3.961793223071485 -0.07024999456549837 0.08899616482474995 0.7143828131354987
Ni 7.577375356684089 8.089111564598618 10.896537919421025 -0.30342719691725806 1.3724931769315136 0.7007508241743609
