# total energy = -381166.6254327007 ev
CRYSTAL
PRIMVEC
9.17263295069304 0.00000000000000 0.00000000000000
0.00000000000000 9.17263295069304 0.00000000000000
0.00000000000000 0.00000000000000 13.42507550728135
PRIMCOORD
 96 1
Ni 0.2625812913657271 7.77589769539118 12.339805375243383 -0.7958667287436035 -0.34358217186958895 -0.5398607014227864
Ni 3.452267132881769 3.420227126358449 8.364761461432826 0.2796918009735312 0.850057098743078 0.03155592042941017
Ni 5.196002981749866 8.50609430555306 1.1824560243142623 0.32761407857610675 -1.1686674311586775 1.3781033240294394
Ni 7.078172205496277 7.3020394826815505 12.543665305669807 -0.9484604158143406 -1.4465969980254634 0.3185511970428901
Ni 3.2422872218219783 5.098598793581776 0.4293195766733751 1.545351784898874 -1.2018107506798656 -0.4229436418180523
Ni 0.8882777645915693 3.6793723494608965 10.946753038942228 1.8706999502589394 -1.6985100862238294 0.6624403586299364
Ni 9.063652792962172 5.370283005781669 3.4618305198846935 0.8625125508976113 0.5119372355396409 -1.5944236027248606
Ni 4.829556299640891 0.5531436992214025 12.893831481744357 1.0042600392824639 1.3064261100991112 -1.0813730795163827
Ni 5.160082951533628 4.402157472285003 1.5366471516806648 0.14013669225430703 -1.06338075670402 1.6000414631322704
Ni 8.622953647982806 4.568906764752064 9.227953909723228 -1.333446090331381 1.245761959449835 -0.4019829804059851
Ni 7.353763959287621 0.4860504762855801 7.780113437446181 1.596941484050708 1.4106843432892544 -0.051618238396924
Ni 3.8059088195408295 3.39658925152003 5.012896133132494 0.8497966459928397 -0.11319770177161795 2.445375445368066
Ni 7.810927980221573 8.840409254810277 4.301608905578066 0.9558628789259989 -0.36535684454251915 2.0402899147773574
Ni 2.3453780097244126 6.566843787619811 1.8804365134022214 -0.5594013425588752 0.9719813817544164 0.29398970565344207
Ni 6.044150477649902 8.104452231222503 8.728285742717775 2.295281384790731 0.7887702269081383 1.1842575722874507
Ni 1.0502756332455523 0.613950916869383 12.995660547996287 0.8319421343099221 0.417714532208629 0.20052856307880304
Ni 0.8876448529253484 4.2258961595589435 6.977535581514039 -1.0443610210684078 -0.3679652286996437 2.4988361362903673
Ni 0.19984873808383743 3.6422965675063415 13.312599778857532 1.2004187554283454 0.5949738403468463 0.7707995013623304
Ni 3.821869200689005 5.114522484198576 11.216435782655608 0.1093616158549794 -0.01020213734398243 0.5659103473219866
Ni 3.093406218134599 0.7579740942026962 11.531803741510716 -0.7394582680468879 -1.317902486169827 -1.3487094442483547
Ni 6.073080961639181 4.245846635994163 6.244821083636542 0.21501981471644258 -0.36467241688098484 0.36291558209087815
Ni 2.271116374221177 7.294095982638837 8.296307019782988 -1.0830280986213028 0.12120977344281705 0.3681719453938111
Ni 1.8094027273967115 5.916898542208154 12.367340701777124 -1.4703982142101193 0.4888965516700935 -0.6631584677428838
Ni 1.3572928271596827 5.750607881383283 9.95335048111796 0.5186041060368553 1.3037776167326707 0.0472861866804734
P 5.245535199106274 0.49524970976460625 10.63278023754266 -1.9505740981777633 0.8029213215975397 -0.30741883457515445
Ni 8.092014141086338 2.2374069485202885 9.747329478393544 -0.7022402642356939 -1.0961646360032604 0.18708426464843908
P 3.3729330314159243 7.824164089415145 5.377333091385398 0.6140964201089102 -0.30371233225784466 1.2689697650248661
Ni 0.6496352104215368 0.7834593372958522 3.3436494010621587 0.5078216707093706 -0.09472561110935945 -0.23230354149755475
P 3.565622529565192 5.683033095223162 9.098643635471337 -0.49889634319528275 -0.6618166090030085 -0.7697548621479001
P 7.499113499330145 0.0600055295374342 13.143471105430796 1.2090214094956921 1.5044193083505704 0.8305617090226276
P 5.008055734780832 6.595104669411494 13.284031613865583 -0.383165847699482 -0.6804897599324796 1.2634532060820112
Ni 7.098030955603059 3.971823402419106 13.032700556682752 -1.2773497615584453 -0.5066222510846308 0.9260673928311213
Ni 8.512120725331423 2.002587547719543 12.115365725768658 0.7317472725558752 -1.6043202930132823 0.26216021984767107
Ni 4.930033319811646 1.0161259211681626 8.573803929415984 0.7683003890895607 1.491855869863263 0.5990099580894329
Ni 8.714505696396564 5.638298164844051 5.742226846753922 -0.24436638619935977 2.908402842580881 0.890484353520189
Ni 1.8280598626009583 2.5201166653984046 1.081384617535229 2.7692076883042374 -0.43535461388789537 -2.034955647048637
Ni 5.012972265985098 6.606368662543655 2.6661798362761746 -0.4659247733652685 -1.1362671604511012 0.05717284966656606
Ni 6.769155377622203 4.75270798167571 3.697722201464877 -1.62614227398438 0.8936133860674739 -0.14463252324213155
Ni 6.768366531197637 5.771631555861224 1.2358334093587817 -0.5800089915068979 1.892392604741025 0.21103254793392046
Ni 8.819293854003897 1.6895072434956746 1.2308178137198031 1.1309272362954266 -0.690028038440218 -0.12130413292883624
Ni 8.271999542746972 3.705468489901448 5.032282492647822 -0.03132297848299767 -2.5680214370367773 -0.05378799235473317
Ni 7.173888629221113 6.1444532177966265 7.544073159213928 0.7928035164372474 -0.5537297460953947 0.8683386706610852
Ni 3.1696674875977786 5.211688183912728 6.8349479212207775 0.431780780493708 -0.3173170675254729 -0.3762601217185843
Ni 7.862881772648736 6.732097940933335 10.293931255870762 -0.7185911947898915 -0.4888420442830743 -0.4724273503704767
Ni 8.505809953934902 5.115228776927547 11.815744425716465 0.17084903373649932 1.811930445529215 -2.1955709188722703
Ni 5.828015729951934 3.5080275679391026 9.024027019077048 1.4618708934653986 0.7082440472276126 -1.7925049898147516
Ni 0.9430108647703992 7.568779645778647 4.043767113602718 -0.5584232949163221 0.31365195996905987 0.016695458377809957
Ni 7.170320475044882 9.147298031864594 10.930884384122491 1.3110983187638001 -0.4834026184350579 0.7646224260173412
Ni 9.002608921386823 1.5704556418162656 5.579971227117029 0.3857474923837292 -0.4284458025832041 0.7117237782460968
Ni 7.708084420777121 3.0316927443616533 7.530970970459874 0.8373401653970418 -0.4305268534819488 -1.0968904584256916
Ni 2.2911585769848344 1.523262445835022 9.21949582497798 5.4745154926307205 2.5141799657362895 -0.4295986852407247
Ni 1.0742987586634096 0.4412797726383787 7.956773759700944 -1.2683925523651576 -0.3798272702445523 -1.8246869738639349
Ni 4.718906829646383 7.6626615429347265 11.448662997414703 0.772367874290715 -0.6948439717716227 1.0891722638458274
Ni 5.614550218411507 6.085042074867469 9.630424272799578 0.33958359223315704 -1.8838184899187684 1.0016575686626104
Ni 1.2957994965749877 3.0860039034296696 3.072288065538366 -2.9387390316705777 1.3511051981740407 2.489626444766641
Ni 6.568448998367471 1.7707400799601825 0.769614165281452 -0.9496045567211129 0.31320073136425414 0.22342680783321522
P 7.579071339829367 7.18266683885261 2.81151928642257 0.1385516071553743 -1.2772104077671034 0.7831487669563029
Ni 2.3077610424320745 0.11899656588234643 1.6536064758084077 0.896856832705436 1.553041697343964 -1.0685980392389016
P 1.7637230158346915 4.0562483151132485 5.1792326571215845 -0.20287649448568934 -0.4195662407053872 -1.5157015661326092
Ni 4.311522687155621 2.895332384506033 10.449823820103926 -1.4429730281196311 -1.7810406979288942 2.351456389320402
P 4.904450846810347 2.4098799638818673 6.954766355005926 0.0684067707091725 0.7547666162691841 -1.2272448744822542
P 4.062164663297486 1.4233174383692049 1.417553355890174 1.0501223490322174 0.636834228026058 -0.10886667849643188
P 0.7304809617800372 2.869511423050795 8.868000534404365 0.2783234598710948 0.2519537116283144 -1.4881676223783984
Ni 4.973089658380347 6.727034647603569 7.381200221386648 -2.1995095918050445 -1.0249229669484543 -1.135796905682902
Ni 0.4718173019018881 8.203149760621566 1.7772251313807346 -1.9803050495832928 -1.6528290392469471 -1.000759225218057
Ni 3.336893756972716 3.9341330540640174 2.9292436081294846 0.5581656703795613 1.7206115461085594 -2.160681820304569
Ni 0.17468728893006694 8.40660792972943 6.381891405274271 -2.8099571023074574 0.4402469089831902 -0.9923365483720007
Ni 7.436776286523822 0.0520987200260966 2.143286562910271 -0.30098644868624935 -0.5715323214944544 -2.0863663974204454
Ni 2.2711714100182396 2.2075867191451626 6.702884939852467 0.1056420009115471 0.4899990407056529 -0.09726611814302603
Ni 0.9115468995896682 0.782990615757535 10.47314248731938 -2.1963054830454496 -0.7848930033409192 3.6412510615104194
Ni 1.606981065800194 6.832327300017309 6.230738340431487 0.8654014424096322 -1.4570742434077035 -1.5742224451866373
Ni 2.0341780952335187 0.5563798040886877 5.153711640760338 -0.23890330620225955 -1.4879580774707535 0.331625513728345
Ni 6.581043023261981 1.5020002829031422 5.722746926383588 0.6307067749720816 1.405902862740211 -0.38582899635394197
Ni 3.9282625690439987 8.147306771868639 9.46442346717257 -1.427021389886381 1.0904896971056703 -0.09471686935861107
Ni 5.288426430283784 2.669043532250002 3.3569799883740234 1.9485429266803471 -0.5267046236568026 -0.857031216068066
Ni 6.679006742033542 6.914981894572603 5.304126308659197 1.5057565391047554 -1.8585309189965733 -1.83241905240087
Ni 4.414485490827042 0.9510827816729248 5.101918369407939 0.2593502612027017 -0.28965379728224955 0.6925523475239685
Ni 4.837261311229665 5.660294138403434 4.9517321000668915 -1.1454596255836467 0.8366863338631267 -0.41644132192316025
Ni 7.836776459575342 1.8871316181148958 3.4576413784649396 -1.0820240828368204 1.3565189129904442 0.8820079406180616
Ni 3.508477026948448 9.2827961642329 7.157793410370134 -1.2578518007348336 -1.5611851523867049 -0.5068469655009271
Ni 3.126180035285422 7.91376236703318 13.341464219890337 -0.5181143108846303 -0.4379316305864522 -0.6254663525087486
Ni 8.786052232578042 5.969210067316227 0.507756594647099 1.6685199676196425 1.0377406875384128 0.09672644358947212
Ni 8.774375470967911 8.564900054714528 9.485781942749309 0.14050127468257737 -1.09166520547101 -2.284680212236117
Ni 5.5909123435730885 8.645665086904003 3.5038375092560643 0.009904146487589393 0.6465203449655704 1.457246764429826
Ni 3.2329586542198547 8.195940071206357 3.341891007346007 0.6780122449262647 0.17772030693503588 0.5556444466196043
Ni 5.942416806779548 8.559763380322012 6.345684271650022 -1.1403022497524233 1.4578517450036763 0.4517371690109768
Ni 7.803654082376455 3.6626873303180623 1.9389973532667604 0.20346219178583022 0.5686737689997368 -0.3451096642577089
Ni 2.5929840607093864 5.781327028777098 4.112086717549754 -0.2219697636717145 0.46173901741869505 0.940271452245645
P 6.573172904282019 4.190343034656456 10.90522853005844 0.19294406586332577 1.0986933159623853 -0.36449912452791416
Ni 3.2010745824548783 1.6651447306625975 3.397792700949134 -1.318712126555316 -0.7927158418194478 -1.4242587395395794
P 1.1722166142707515 4.866696290025352 1.3821919390141213 0.577799899670721 -1.302858447352511 1.359253538312788
Ni 6.3856567710566425 2.1358108671425913 11.61548291915466 -1.520438309486646 0.026752071282863606 -0.4917378777736305
P 2.7803442591764185 2.7107331485249784 12.224470524392274 -0.4844457149875916 1.6362364249955885 0.0931837205435363
P 0.02880848797245706 6.79407742105875 7.936649920504976 0.19255351529312645 -0.26905951807066564 0.8158984505834981
P 2.0093110875940337 7.829309936440505 10.989927704474612 0.3216689167362654 0.03019992062214799 0.17253464896903833
Ni 4.921988920807653 3.1338758742413524 13.193774741209367 -2.9474489007397495 -0.7098353029741323 -1.0136399378354672
