# total energy = -340886.0602838832 ev
CRYSTAL
PRIMVEC
9.12939802058538 0.00000000000000 0.00000000000000
0.00000000000000 9.12939802058538 0.00000000000000
0.00000000000000 0.00000000000000 13.36179681682281
PRIMCOORD
 96 1
Ni 6.745465693997182 2.2751372774496263 11.560532960465233 -0.9969128548887735 -0.2846164919686582 1.2526617718934618
Ni 5.0408610156283995 0.8438439519304407 6.361056870914688 -0.6110648323714378 -0.949864495250719 -0.5498278399378272
Ni 2.60034469327287 1.89778274020753 5.030395986692399 0.7424978262041599 -1.1004342099128919 -0.9444659499429668
Ni 3.419735552640216 4.696390570009326 4.838907776424841 -0.045084808153780416 0.29696267223883693 0.5925536609411278
Ni 3.676983729695613 3.093651714608252 2.5691258038464158 1.2445036615627019 -0.4623162300784038 1.3981833826087662
Ni 5.405306584087887 4.886555930505597 3.047892432975249 -0.28533614374350214 0.29470138700848597 -0.9280407145074082
Ni 5.434703245672044 2.8974609514270298 0.6262703127360465 1.1778221010747523 -0.21949944775435098 -0.17902617023065298
Ni 5.792000495491659 8.19456591033 12.622956611250492 -0.557913188049123 0.5622768643344574 0.4392194961599404
Ni 2.430501372741299 5.393264908115992 11.751099101534033 -0.0992378971574162 -0.08199736490941362 0.36547511528793836
Ni 1.1999680741060907 7.481477761362011 11.710371944082764 1.3780981818231168 -0.5844366882609483 -0.41798681203340915
Ni 0.5756897960152813 0.3001937782224885 5.195146929015386 0.6142928523904324 0.7210828508634937 -0.7244635944102684
Ni 9.22078328155731 2.748177035208353 1.6621803658279204 -1.2798175063726476 0.5864298074315772 0.3563556694851734
Ni 1.2516861138185909 0.631144498332252 3.0375506509123507 0.17072459234349308 2.6298801222147867 0.04705298762374477
Ni 2.1571580669986754 6.662424689720942 0.6234977145611681 0.5386738802035368 0.6152516167592759 -1.112410922658794
Ni 7.822351224166129 4.3097514349936 4.102833629153562 -0.12736036642524518 0.6843739254782343 0.4043080289947359
Ni 7.642511212816342 4.248748797507469 12.907549161217961 0.9102489377416259 -0.5610553332225305 -0.9444577224128508
Ni 8.158249165056157 0.2116870033591568 6.866253107275241 -0.9694568155603497 0.4785460616737049 1.6694288525871572
Ni 7.30625722540402 1.239963966776958 0.9146378687796166 -0.28100717735084507 -0.7780818939563566 -0.5221108336385331
Ni 1.9761221045099064 7.220395237143462 9.16402764002427 0.24594452931975708 -0.39080099564723664 1.4229814154890525
Ni 0.34941492757993664 5.390453053529682 1.6903737727546886 -1.2093880488064916 -0.7579169889727077 0.13699171886742212
Ni 6.471282483637869 2.6227299771872654 7.430441687680671 -0.0226169660685675 -0.940579213294051 -0.09627907163940837
Ni 3.8861473674454965 4.442903704933019 0.35185795448674423 -2.2811310614322777 0.7998298271564096 1.2703741015715604
Ni 5.995522165272905 6.014301336974338 5.191031396393604 -0.518931407469287 0.595523027982097 -0.48118324218623587
Ni 5.496317552824677 3.168384966697665 9.772698299281453 -0.6806147155461182 -0.3576571619054163 -1.034192050955206
P 0.33252188950685463 5.693037821090335 12.734033083867972 0.8660496175165924 0.33908119867544184 0.6819414047773417
P 4.212495958019678 6.437293734855937 12.74613866562592 -0.7881595899073329 0.7912384859429729 0.6638642355606567
P 2.6503281473639446 8.852640306904783 1.477360267865042 -0.6667284444823292 -0.39186337547348 -0.19543546482661178
P 6.494982400865344 8.274229037343465 5.982450693205763 -0.32078497146941526 -0.9297576971985149 0.5611319520967368
P 4.59008785960997 1.1698593194773486 12.901442506890744 0.7258069958120403 0.8135083530847667 -0.21335656808140677
P 4.254007330759791 6.45479479083632 8.514404327185032 -0.7225465798932137 0.375281816965715 -0.4339507915618333
P 4.713088238965047 1.4400529829073838 3.990112951954932 0.054978670228724665 -0.1675917031414662 -0.18192020394899638
P 0.28396536032435254 6.020271963271243 3.9973288281400614 -0.5973590527495712 -1.3307124934503018 -1.3096777842671896
Ni 0.9138070935609339 7.669935924430878 2.495075430727964 -0.7489605511103681 -1.41111963105446 0.2425735559649951
Ni 2.0307159045947696 6.856670891126567 4.968357162532418 -1.353125056817547 0.11737137353333335 -0.27357771765599337
Ni 6.219502815988965 6.092357689938481 9.325544949573 0.7160702281402507 -0.8526418287511187 1.1733748639366761
Ni 8.805185696061786 2.92816311692626 10.499111717581194 0.35454175620488615 -0.07968517183646921 0.04805623207727852
Ni 2.4157665243571906 5.8215067098519055 7.3520082905788176 0.13951345684801134 -1.8921295808876253 -1.0234774927511792
Ni 0.949146993247975 0.624597807021072 9.357359988689343 -1.2132105078763753 -0.516072083643621 0.19816803326642646
Ni 1.5829919675108461 1.0866174684449434 11.598640893628149 -1.0828884877196447 1.4233441981451098 0.9345651458894872
Ni 4.418391271282876 7.160698103572406 1.7336398157918431 -0.582582408661029 0.4006316085844132 0.16414976733945277
Ni 5.661057539870054 8.231476066474332 8.493947172129822 0.6740239497024779 1.0085396404944245 -0.5710641236087842
Ni 6.959906123795402 1.3142681371600184 4.949650113075245 -1.7952997789510694 -0.8751407811845832 0.44817541980164743
Ni 0.9438793305976462 7.857344206728884 6.932234005494862 -0.4293508308959767 -0.10256001955211369 1.0940355054753996
Ni 4.927893844683567 4.745470213697657 7.285372814522058 0.7103937465807636 1.259375950688844 0.26454517514007986
Ni 8.404377735338416 7.864090831856428 8.880423803861014 -0.04442326331038156 0.13598076110440452 1.358939349506479
Ni 4.892462651016451 0.7174419588777681 10.605311265783065 -0.2247833218611096 -0.5872649017383628 0.22198081941530803
Ni 8.377674246166473 7.5238381681168205 5.060353193314216 -0.5114944915752675 0.018884495609328766 -0.009665033893589808
Ni 7.497664184029312 6.441128082019088 7.195982313931601 -0.935208435900441 0.9554245058369998 -0.441772087378465
Ni 2.69113655645748 5.460585089023313 2.6518755803262164 -0.6072529148245155 0.13659885430437765 -0.11963291587400042
Ni 3.7300711791092387 4.72725706467269 9.790842977821365 -0.7868156742849287 0.37868158667588325 -0.7677758840446584
Ni 1.0155268461605236 3.709876950716644 3.849840664509461 0.7071855240561111 -0.004400443060540809 0.4378866362811298
Ni 0.6758429439167836 0.6504212222250928 0.8130413630531282 -0.978202937184096 -1.6705624519709679 -1.8068530310063076
Ni 1.2687672174906273 3.8459232398244416 8.357683603349445 0.4391035394073663 -0.18016748292394777 0.36858897832657167
Ni 5.2217782959430705 3.305088572462003 4.887838610925651 0.9087638685556673 -0.39856984095937814 0.9584535224713107
Ni 3.9414532605749453 7.165801437058599 6.339757985363186 2.4512727846891074 0.6220365008915932 -0.27514043415742295
Ni 8.255221630691846 7.5203689968739695 0.3048853758585439 0.3880992804453574 0.5659784815557607 2.405254408977464
P 9.561401121217218 6.062887993170264 8.165714273806891 -1.4477092572530357 -0.08510145775603407 0.952619689398353
P 8.809513030717342 2.2732018450720357 8.265848249972578 -0.6946025451847779 -1.194037791602666 0.1088291403902771
P 1.7063301345922008 3.687710772354429 10.638248307914532 1.595726123586368 -0.3935135094823932 -0.996018110988646
P 3.850086245315863 6.664460545476615 3.9677322327395403 3.099205436621172 -0.3611389498064297 -0.15935388861270622
P 6.957404668741346 4.386201013908423 10.686244292059373 1.5466460782302653 0.8555340626972492 -0.3417674872583533
P 6.6598593288808345 8.40820295310356 10.645557303959338 0.5823980605643647 -1.095447812441894 -1.4244526007179403
P 2.6544728940593507 8.828392625796857 5.9820763878874565 -0.7299667836166848 1.940545253186852 -0.3803461188624998
P 7.2733822631790055 4.327754607864394 1.6102030512120071 -0.9385159030071192 0.5315979471933618 1.8025430907770439
Ni 2.6033482652173383 1.9531981861130683 0.6736391072377725 1.9262584042505342 -1.4421078519058583 -0.5882059254953934
Ni 1.4396695481910688 1.3127070101007356 7.282700639725263 0.6143239627386838 0.9107757567793735 -1.3067210156317106
Ni 7.2824203672064325 1.0781545164919888 9.460807023391952 -0.33641882135193024 -0.2029176321362699 -0.6070875928912448
Ni 3.087516759147211 2.333318930951438 9.21732780441147 -0.584937796267083 -0.6739326755402522 0.787573635496876
Ni 6.598126339554104 2.6671444984937636 2.9247231597570327 -0.09453200704131462 -0.896010939765373 -1.0354488061804423
Ni 4.245818260747061 7.303947487708122 10.628574797785783 0.03235090552687977 -0.2194215433285641 -0.047946188861975485
Ni 7.704362884317169 6.530879193830843 11.70500111923495 -2.84718050543529 -0.6133813963197565 -0.677151439587866
Ni 7.911664124873522 4.335706313528928 8.422795382878752 -0.4141836362372351 -0.06221992517217026 1.6617749355863252
Ni 3.084540575396765 8.717872133518036 12.588509566688586 1.0877314176342427 -0.7992179046040235 0.9145303387257993
Ni 0.12168209428279399 5.624603853626098 10.417805298926378 1.2462751516408277 -1.441525497039827 -1.7325800313243451
Ni 8.519892008327343 2.576672164239417 6.078494699064089 1.12736728685831 0.24275867539260773 -0.2654589452036009
Ni 3.6411234543221447 2.6398658572473472 11.59131820348633 -0.1341989866136334 1.0420891943150956 0.40933016479967566
Ni 1.1494825031246034 3.2732817498038655 12.734981628320952 -1.1087309027040453 0.8006842047369049 -0.2341609064212677
Ni 3.3408027774673523 8.969186201868556 8.130466581039725 -0.1336513416402795 0.30118930872567484 0.2838978686350788
Ni 5.5553208521471635 8.335414262789746 3.962040053081863 0.8684183748590851 0.00456062278748892 0.1679686268649107
Ni 3.315167427862286 8.750153684872563 3.600630009459869 -0.8111802191722223 0.7332660231932469 0.5727327695604588
Ni 3.7578701960420835 2.878325733203305 7.008409702469461 -0.32996715218931555 -0.9452827894173074 0.07757352481010511
Ni 5.143128532108439 4.727047088518518 11.845860426972303 0.8154194540645506 -0.649802615261268 -1.1738595168825785
Ni 7.790206613781713 9.149939153019092 3.065329583169578 0.12738762011875482 -1.696985164938871 -1.175488567845569
Ni 4.953976534791001 0.8171833709291321 1.7778005398337329 -0.5335920948052553 -0.6355301645026539 0.3873708869197651
Ni 6.170596630862775 6.00456939869834 0.3894820295552624 0.09445847349090183 0.08629907760856105 0.9601530216609205
Ni 8.600577627917646 8.702050886771033 11.694698593583485 -1.7251742257785772 2.987090683501088 -0.8882415802325991
Ni 9.102749294718313 4.847089542919164 6.446025091110312 1.8798309660259303 0.43585726455592677 -2.336943026195575
Ni 7.16864980923694 6.622291856079963 2.9337694802426664 0.7565525045250131 -0.5458197472196986 -0.6922669550730658
P 8.606365666254403 1.7931780978375695 3.7263244741669603 1.4420435743268263 2.390170003840516 0.09497886477074612
P 1.9694485145664222 3.779771621862081 1.542432790982916 -0.3498363803094169 0.4359714215362879 -0.1233792702903101
P 4.971696696323562 1.4000570902365168 8.487880687153837 0.24049507616941163 0.23961164512319377 -0.09791300769840557
P 8.528099337136087 1.6349838891635713 12.50185788550038 1.5452090886734227 0.23048217201809984 0.6260530782501541
P 6.335811346604543 8.164877108009604 1.5094017160519722 1.796242602480313 0.03936461784055156 0.4573174913122317
P 2.003272934184218 3.679083491237339 6.070157732803637 -1.6941430675043854 0.4089912934030182 0.5295711465713202
P 6.913620075897365 4.411553352175257 6.344421281865418 0.22792726680673003 0.26098856813707305 -0.9559932338562761
P 2.63210586894097 8.858647450793718 10.346199778594336 0.45269413360760746 0.32824708417441534 0.422439191377808
