# total energy = -340875.41937630606 ev
CRYSTAL
PRIMVEC
9.19899068202230 0.00000000000000 0.00000000000000
0.00000000000000 9.19899068202230 0.00000000000000
0.00000000000000 0.00000000000000 13.46365271137055
PRIMCOORD
 96 1
Ni 2.7284022232771457 8.88182783236231 12.988802750341387 -0.10178354639740535 -0.5599978384922936 1.7659318673119138
Ni 4.526896881612383 0.768766086355361 1.3976486415741614 -0.2530615999805126 -0.9211838394865749 0.22482394529105795
Ni 5.481200169708632 7.554560668108607 0.4320462332854258 0.0008446073884824164 0.4440824806791965 -1.5907368979018928
Ni 1.7663993800224573 0.7880950054699536 8.691124477482855 0.6053680390969768 -0.5531191090945893 0.4184578381325567
Ni 4.091987002543418 2.3958863089257374 12.742175971716767 -1.2667930690885214 -0.3770651341183828 -0.5824782789829969
Ni 2.1285084472349185 4.45792284985852 1.1693158956181076 -0.45584939140713754 0.02078119841140937 -1.1386711419069036
Ni 7.181679582866836 5.813394119387942 6.543550202265401 0.8345227505529047 0.7333971494544724 0.22516204535676707
Ni 8.53914703336326 3.8845129678439503 9.647515016553358 -0.33921155360571903 -0.37401554865878167 1.8480405609882107
Ni 7.80254705754854 6.311335482262917 4.231235803326416 -1.6390116737478806 -0.340695080129781 -0.12775117410576065
Ni 3.2745278990791324 1.8371120210056446 4.267520301972712 0.38075543848577653 0.031160484763204398 1.4176191227358748
Ni 4.313967845468525 8.437461390924318 8.512664059234666 -2.113288675732586 0.15335370516521332 -1.324066963109326
Ni 1.2002291036347592 3.564397292863602 12.33888578314494 0.9769716358801562 0.4758101507997805 -0.34578457883754643
Ni 6.782728558175817 5.429327061538449 13.14187119474986 0.47176092043107143 -0.9488088002926949 2.0776544714687444
Ni 8.688667427085223 1.0410681677311415 7.7379517453352005 0.20526479221220778 0.35820300710655734 -1.494935023009219
Ni 6.333569442618891 4.093707213791481 5.1081902985980205 -0.6878528851657703 -0.03981841754851852 -0.4885013731142039
Ni 3.322022287708792 3.8821672252329558 3.195826854631681 0.15905024132935836 -0.3441056484732268 0.2667326697097019
Ni 1.3888636055212222 6.215491198874883 11.589808296437859 -0.228409091539155 1.2963234744474708 1.1575129572037548
Ni 4.240219537576992 0.5262779336157858 6.2583768931982355 1.4408199863323703 0.648568742854167 0.3813295658216917
Ni 0.4394569401380413 0.1208029847690144 1.820582354740172 -1.2306068489759516 0.15302871772562676 -0.5053788655958329
Ni 3.4371844514226626 6.282027498111437 13.007450024250195 -0.3945604626896689 0.29724472225563003 0.39012505262613456
Ni 2.282251177656671 6.395156684895779 5.077655169096317 0.18555317271589336 -0.9402295432641162 1.5393282044126135
Ni 7.898428136899101 3.078911363303475 3.1990713386273577 -0.46303022542629285 0.032981082911710945 0.9229764126106234
Ni 3.7324904486702604 3.257334985589139 10.259680246097806 -1.2328393378508962 0.8645051558476079 -0.49508648253088927
Ni 4.916087777243539 5.29789188339772 7.191125106447106 0.12627664644276318 0.3308138164603271 -0.6643692002215332
P 1.2680992565128595 4.875216661868451 3.1780415261450283 -0.22753388802305333 -0.5157391257842343 0.9126863435385248
P 5.03112115508857 0.51586835581735 4.009327632427297 1.1617696755975797 0.21926264915319654 -0.21564896366000924
P 3.008235518282812 4.675773345990152 11.60946561951799 -0.18241539841786003 0.8994914421148057 0.34424808758836195
P 1.6727352574140517 0.16192615248740141 4.751941908316792 -0.3465165719075645 -0.10747571168617619 -0.21322287071701987
P 3.973310824408372 1.2912623149225988 8.998136190308847 -0.026836146356237652 0.4696302472413138 0.2807973753328841
P 6.41567043400369 4.867222739009808 2.993669836517133 -0.15068335742190178 0.15237642885360855 0.10529490198477351
P 7.632108159130887 1.8108673007344032 1.4651554343223234 0.7159912952731992 -2.313879202397576 0.8931426170786424
P 6.921872490465617 4.91493790341462 8.49390915713547 -0.44832994310164076 0.8294587057664361 0.2122731052092409
Ni -0.02213277145902809 3.1284203308814007 1.0641061198682946 1.4472009501580496 0.5375366812753001 1.1360604437569337
Ni 1.3170654836435354 6.84087537795658 1.302057330428488 -0.134020294943924 0.1968148616726417 -1.049801732468005
Ni 7.326370506507339 8.957103172698647 1.182939600743137 -0.5597060182834876 -0.5064960099194116 -0.2990910314357494
Ni 5.4262086037144215 2.5422606478517786 2.988150442138323 -0.1365050090389907 -0.7595604381134016 0.8148540684793837
Ni 2.2955621171002343 6.232030984030049 7.524310707316476 -0.09205526336604793 0.7636289517558204 0.2590227026599539
Ni 5.592268782591551 8.521779339051271 10.26607538438472 2.516054299940867 0.20589651225893574 2.078953907006458
Ni 8.380096485347218 8.900363798484479 9.578513387827602 -1.4539673223476057 0.251061024610716 1.719119277833749
Ni 5.395189607305509 1.8025698111849253 10.70534098551763 1.7627241590078933 -0.7724221245674181 0.1908984961882067
Ni 8.074073664014097 3.2555779783785512 12.508218042989641 -1.5378547051908806 -0.7227802931705746 -1.2098996983355872
Ni 3.765064074495871 8.029716131189728 4.4958364897456295 -0.338179769907095 0.6473145587320916 -0.25512388182618
Ni 4.396694368216255 6.1149922262273835 9.432648672982538 -0.9699818348258844 -0.3571308570883011 -0.15649379345609177
Ni 0.7429481992494141 7.133872428555709 3.6369230549002287 0.8759290814138335 0.10042908925203994 -1.3365627815834915
Ni 8.9291842361325 8.317718129876035 5.397106676953082 -0.12760462122556734 0.24701128002137457 1.1967611040711001
Ni 5.829197985292602 4.495905482175365 10.308876447994265 0.7358044733443845 -1.2019102523722074 0.38785296876250624
Ni 3.021785631482791 6.088839495862456 2.8092852683023537 0.33554361783582853 2.513527676864271 0.840893429965939
Ni 0.33939399964646866 8.019321271776302 7.871269036959104 0.5868535252325571 -0.9848965471541877 -2.283572323883919
Ni 2.691900628451949 1.1219088973994453 11.119025113603819 1.3569104920019084 0.6637374801748053 -0.8511251349962761
Ni 6.377522219855481 7.2150535208773725 8.503656407608448 -0.5455181568188799 -1.435475177080689 0.4560633071901565
Ni 3.0715153748358692 4.0481078172318785 7.993734279335203 -1.0941535191105027 -0.4993136332383594 -0.7318259483126106
Ni 5.143505223631774 2.9601155982902205 8.140891452363972 -0.1977144906687756 0.44492605962641435 0.010037072521027875
Ni 8.215885303586989 0.5805547380379401 12.106246989674352 -0.5661625725421089 0.24813176677906296 -0.1835608248762129
Ni 0.8050809416707413 2.0302264313295755 3.935371427347495 -0.29180658195919423 0.09523906041066824 0.17599998180981946
Ni 1.3525919854618091 1.9921518091064176 6.514213701242963 -0.10217589673981758 0.16348873671668618 -0.39756119718920563
Ni 3.489149549499159 7.8234471642629675 10.80581972038574 -1.6790049263113664 -0.2675209699389522 0.7831222845937416
P 0.27133066796511 6.144465792210229 6.120441708277395 0.922523898454237 1.2694734441341622 -0.29353179218041703
P 1.8067829488940839 7.521849057423527 9.300489534279121 0.6428115286554155 -0.6211813519801496 1.6141537341639363
P 7.598550241307723 1.8330000721934312 9.971382959812233 -1.245687654568474 -0.012083413527095318 -0.3001243577962702
P 8.119443085807916 7.891924450522737 2.8209587874135367 0.591624207148323 0.9663174986004197 0.1967238446207322
P 4.230275428704503 3.242405023794458 6.097486547055924 -0.41016114534140324 0.5344243608985635 -0.4378503837265556
P 7.374168461827834 8.42405846157444 7.225268999973487 1.240807186547721 1.2951693062383693 -1.2079119784815973
P 1.290820763372294 2.9181865989925275 8.65738441964519 -0.31780300602295586 0.4567747314348843 -0.045626282479547225
P 9.013106627662305 5.123138658373964 0.13236059659824254 1.0735540976925961 0.9287048304539682 -0.4974598678590723
Ni 2.2820487998627814 8.773804085378368 6.677217975432359 -0.8001944095846799 -1.3227348745614638 0.09052545698508281
Ni 4.709377258766473 5.326077590692177 1.5332813191399752 1.2300394065082558 -0.7201066029931533 -0.32604853386119975
Ni 8.836734380287432 7.686970939256259 13.10743109372515 -0.3557941405547485 -1.1215295971306105 -0.39377499067389604
Ni 6.219722734565304 7.929502327251802 5.370004610754998 -0.16112512158051603 0.726632062816497 0.6048669310908422
Ni 6.335013684148013 1.0164976637548058 8.26584778140304 -0.19066838245527162 -1.8988648427289296 0.5587531674519152
Ni 5.030891180322787 5.9715891612752685 4.695569573828817 -0.5126841410079945 -0.3150275001603478 -0.38595112375410306
Ni 2.003328582723508 1.9402603029549723 1.0556283301024425 0.07766145653822108 -0.7460181806525927 -0.1624988619995911
Ni 0.43632928332338233 1.9207032488727223 10.527418708221374 0.5157573806166795 0.031723042134893756 0.1731583985959663
Ni 8.286542750626388 5.500711228837725 11.450836385272865 0.9835145792049966 -0.17859782444398273 -0.0036728208658969004
Ni 7.566574549873151 3.0506060691308106 7.6768538893599 -1.1364173128757202 -0.607333904574096 -1.7170068594764363
Ni 1.594525439066314 4.883652136277399 9.795305080137563 0.3666557658596008 -0.5402612792953148 -1.0073204233753428
Ni 5.490895905834075 6.2775567886646 11.778245939924812 -1.7316737174599919 2.2919569484031883 -2.467247562850809
Ni 7.354344637017274 0.3393590434820695 3.905414914356504 -0.6332038303623224 1.7976343406215172 -0.1654980538372311
Ni 2.4660010155178873 0.17217474794978843 2.741011279735537 0.9953038585304408 -0.9180722904407868 -0.2889151193440121
Ni 2.052166023985345 4.030924102732517 5.340370982335169 0.49079274025154185 -0.05864300645418933 -0.10841236456783264
Ni 7.753902795089961 6.245415515398664 1.5994818552184853 -0.38495379283784026 -0.5070829927711331 0.3833203709994753
Ni 0.9477536067667272 8.789598752292395 11.220420067938809 0.32960925462926455 -1.8320318442647805 -0.6046414453435974
Ni 6.0929606436653 1.9206756519008281 5.779797565804126 -0.028543873075963747 -1.0320516075734356 -0.07799492861823988
Ni 5.552151984448234 7.60650736820384 2.759052340161741 0.0004836245046378768 0.3415761971831537 0.9822413689195277
Ni 8.533259679359196 6.4137202479898425 9.282878986614465 0.39576168208662166 -0.7635212225333625 0.12273932271346603
Ni 8.675016124988298 4.352171253560521 5.148945506691154 1.5748724200658104 -1.5396647618164259 -0.08046370187370658
Ni 6.320470079959849 1.3920004613265127 13.242740886719803 -1.006451647617144 0.20563220285395553 -1.1528358634430598
Ni 6.491884071384424 3.462233302911829 1.0944821068320754 -0.4088380556546055 1.9787055663066568 0.3659872790376665
Ni 0.10361651057246321 4.534016900361048 7.5668827160592995 1.6226430025818699 0.7700703365057898 -0.6512084944698591
P 7.584806949304485 7.475348159782052 11.051194516385433 -0.37881888358469595 0.6352018346289576 0.6758604886905845
P 1.053928356633769 1.2995782024533393 12.662646098213429 -0.1161668117022709 0.009704114661641353 0.13071179939598132
P 3.903343301666324 2.8897157229884995 1.3113593497549092 0.5555449449272626 1.364291872067644 1.561267684798182
P 3.581672997269277 7.746580398547406 1.4428322437572265 -0.5741371061071532 0.0012451852610107588 0.19310218870774484
P 4.762519827643782 9.161421953611562 12.208772499957938 0.4183915036709956 0.33489132896381035 0.3174327671677307
P 4.28190936311827 7.444632730063975 6.625813095885312 -0.2486670704572427 -1.1643821735197626 -1.0921154056345512
P 5.791896078282478 3.6155896757270645 12.529436434779914 0.6774478877823623 0.21874174365272006 -1.6408214732631095
P 8.260344025308305 2.125629163167306 5.514793043696196 0.6692437547050152 0.09473923795611426 -0.3544378836371702
