# total energy = -340860.14347384975 ev
CRYSTAL
PRIMVEC
9.39801532930189 0.00000000000000 0.00000000000000
0.00000000000000 9.39801532930189 0.00000000000000
0.00000000000000 0.00000000000000 13.75494540038293
PRIMCOORD
 96 1
Ni 8.61750067425446 0.9303583980657105 4.760847498949115 -0.47722811419322975 0.4845218196411656 -0.05522472480125973
Ni 1.8810973319760407 7.700649103688467 8.639467595071215 -0.1459342727726906 1.5152336253572551 -1.3173792666765054
Ni 5.222430077550477 0.3075754232970402 6.747212939404898 1.742433269969341 0.19780782171353029 0.675735790187262
Ni 4.684252734959797 3.1730330886965192 3.9960041258463708 0.6880472605647634 0.6139218422042589 -0.24506289804575218
Ni 1.8370488345566307 3.615416461968649 6.551549081559178 -0.584078019369949 0.3035858339823094 -0.4579638666469791
Ni 7.814938366994942 6.4700072023486985 5.181157753832303 0.687074612238849 0.2864517454051841 1.4421898700967033
Ni 2.7536936487873924 6.092488930247632 12.448569632678035 0.3451906540072894 -1.4852936432647128 -2.3907009366433214
Ni 7.773446129720204 8.432143619719998 11.997599292883159 -0.16188951055036635 -1.3480216741527107 -1.7626933057699579
Ni 1.4524914490424763 1.537270944502365 5.2789553799995454 0.5032708181138946 -1.1148992362982864 0.44354434878753934
Ni 0.04979444393578032 1.691295016234115 0.609052474506294 1.976703191164647 -0.029499295010697583 0.972536482926938
Ni 7.52726512056692 3.753219559400015 12.324362643891146 -1.515949163367041 1.6258900487642578 1.4330647678669837
Ni 0.9423201918603392 5.947533943220327 0.07170121745501329 -0.18833510633640468 2.6170839988913834 -0.18711151834194872
Ni 5.875714310773318 8.012202706835653 10.467651281854062 0.21389495708338002 -0.26606392577745147 0.46108107211972205
Ni 6.977255676791891 3.8527069487070076 5.615222943817486 0.3677253447746957 -0.15612612570402787 0.1936752876023955
Ni 6.058308348827876 0.6377718692713836 2.3019996618192082 0.01699216368262235 -0.8637752196601188 -0.3035614085022772
Ni 7.813453480587374 0.3490498043428261 7.670073600913919 0.06456631391715978 0.5305517653170346 -0.40789034702935556
Ni 5.1775827488358575 3.13545982377593 10.892045914159583 0.6318678851597183 -1.2505403546750848 0.6204095068111315
Ni 9.082589652341033 8.482357215135382 6.396145381190524 0.7618572045673782 -0.28585550658208186 -1.317336329253712
Ni 6.529430852697096 5.81886571660007 10.258864975331848 -1.0292228798753889 -0.3478743714870396 0.3094510345138348
Ni 0.03128035391738095 4.558591873215625 4.154557101121201 -0.004716431639062844 1.6543753006881445 1.0504653341939327
Ni 8.952333161145594 2.596765590347173 6.710762737305222 -0.30324876235786485 0.11103540401297651 0.2692916886861298
Ni 2.3842482717755664 5.406321041707848 8.724279983584436 1.2766576205874272 -0.2739662113436636 -1.6666590031515038
Ni 6.5626152445016475 0.8656812571994037 9.359511569337052 0.8916092111532515 0.56919621716211 2.528247242462633
Ni 3.5804464472689213 6.34168670229224 0.7225682811587002 -1.0982279462901925 1.3056707199903257 0.47999307853287654
P 8.764673592877879 4.853680153666245 6.794612769058095 0.22078602777625847 0.5069050724323722 0.07323350267385452
P 4.52609353652343 5.075022208546114 11.324088651265598 1.0765139516518685 1.447521566722262 0.4065929683741707
P 7.822860893840379 8.257490904541351 9.609548584142392 0.19949446538733384 0.21540445174937098 -0.09207968884608013
P 0.5861861636312851 4.307928010793925 10.93994101921581 -0.18266119588007895 1.2526622861140944 -0.13974228502936578
P 3.014892686290628 3.0371377883584207 8.233544761715523 0.8362603020693018 -0.13800987571929135 1.2013361250362924
P 2.190320227344261 0.5903861366410427 12.989331429459101 0.4912264853548508 1.5793453682354992 0.7656374975454169
P 7.284645959188747 1.6641347521969707 11.794508183595031 -3.1350545851092972 -2.556739950585687 1.8979047928085055
P 4.704496059781945 6.303211227908825 8.187300887936571 -0.8399524062089083 1.1218329873036421 -0.011911920946237548
Ni 1.52429228545901 2.2033740705095184 11.287789757211248 1.1963160461138818 -0.8554854688475009 0.5064913819337212
Ni 0.4270608492284756 3.7403724725699883 13.427563699400709 -0.284816009573974 -0.6869573699346944 -1.8483696621928556
Ni 3.1729203125136665 6.836971503337756 6.669429326488002 -0.7441757281272152 -0.0475821206543374 1.0434801611253512
Ni 1.3921092011398286 6.561186746185507 10.440181823115594 -1.083830797028256 -1.3589401208374274 1.6494668076429335
Ni 5.630632869402851 0.008018386600862104 12.3356139477338 -0.9591158386456579 2.1623910896861918 -0.47936110137583254
Ni 4.9057451580834694 5.2396190474203514 5.723239971754276 -0.7926317667460736 1.0341545128490512 -0.8801202366770455
Ni 8.644059465316387 8.452509118740236 3.2781611667492196 -1.3818339947164653 1.8050635432060524 1.2741690498376186
Ni 6.316171090921705 7.700752481856083 3.3039239459205083 -0.862054123203954 -0.4216573189064609 -0.8146177840988615
Ni 5.676006486970786 5.766659741954279 1.2190729445820776 2.1528733800037436 0.6253478246530133 2.9967793715437616
Ni 8.064624835831914 4.481180421702145 9.165717916523647 0.850906848337883 -0.9173320698406525 0.040790808764116844
Ni 4.9885792643891405 4.495192862421654 13.442240579797529 -0.514994534308726 -1.8740392990448178 -2.1741338320444172
Ni 3.471015957840372 8.25947388575652 12.419793849821518 1.2426331840128664 0.19134921057238014 0.9555360917141995
Ni 5.8996322595534325 7.173373458773596 12.937791774093666 -0.4289767353860096 -0.9401022736576324 -0.047319868131886246
Ni 7.758409305339778 3.184639637515161 3.299357450316477 -1.7777360590356934 -1.743150864861656 0.17336717217266273
Ni 3.0254184633569263 2.3083592987306045 2.542381155769268 -0.8262250293204866 -0.5640504112951125 -0.7336313769524655
Ni 1.6381022499883584 -0.08167345142380698 3.0375597592425967 0.8185675127752289 0.8279168152006129 0.8698615350635148
Ni 0.45448895669989625 2.493434412807934 3.2926998963220435 1.488474869206172 -1.5069855264158498 -1.031566440406901
Ni 6.529600016971375 5.613594267776781 7.265169512410001 1.335270030913997 0.7073395331354722 0.7909098989589605
Ni 3.7191047640869233 4.562764591981193 2.3790276743109873 1.7284780933408295 -0.18040788106952801 -0.3375174537327477
Ni 4.380537076520907 8.460516227722813 8.777209605403534 -0.9209138736546397 -0.8538168228958263 -1.3254363326530272
Ni 0.9658810160614191 7.080943978910165 3.744095966207191 1.1544667141782634 -0.4803247508406825 1.5528894880368158
Ni 4.610581693510948 7.791847443555751 5.255723486331787 1.592352836238761 -0.1420213108715296 -0.9282335472445046
Ni 7.529586430330648 2.644112791115039 0.9930055676406598 -0.8506214558869802 0.9408486649053537 -0.9128411239488344
Ni 9.481939513839432 0.6016177046516971 12.39249073595276 -0.8489867484970347 -0.14043596866228072 0.007082874988710382
P 2.30757926346587 4.17357398495482 0.5651120542621181 1.0939884542875482 -0.13597433334650133 -0.15520129989691336
P 4.172427427095813 0.0711984236397928 10.648225686434023 -0.41373060786021654 0.5936363524823454 -0.28070198740560043
P 2.08497787454414 7.713421006396591 1.585092745039738 -1.4299017967579695 0.14130654419269215 -0.719626063812309
P 7.4648341053424385 5.6673415169215655 13.444482006431736 -0.7064987824017317 -1.5082808481885057 -1.8627344155549597
P 1.0583010979096117 0.17287649029870888 7.83439037893407 -1.2145503097337214 -0.04024213534949844 -0.4300699684501883
P 5.819523577666714 3.4828762530704327 1.9439315220542215 -1.073451767786777 0.38337719237933976 -0.12469490377794008
P 7.218465135884398 2.7731945304057573 8.201399790396268 -0.4754414546064522 -1.192887480048307 0.05825939786252548
P 5.212985072236522 7.993359686283933 1.1217940888559599 0.4389212481932312 0.9835418328985062 0.1384593045518841
Ni 8.756412737483881 2.592498891429227 10.911385149915857 1.4195659620496004 -0.15483183237263656 -3.414359177946739
Ni 4.3134728397842075 3.1793955450124876 6.507712039482617 -0.5597890649155972 -0.8142866260116879 0.38795401311674477
Ni 8.767662161723488 6.628608107501241 8.527612417711321 0.4990200132573405 0.5772630533306445 -0.40142762212314737
Ni 7.74275221195366 7.057712085242407 1.1513273517406402 -0.29672175987262445 3.42035550473949 0.3594687611928583
Ni 6.803476977030357 5.225813363036073 3.4632334614219777 0.925636990161922 -2.213293532963014 -0.467693178119601
Ni 6.212351216590101 0.2175377383116213 4.659254014427338 1.5970273588962947 -0.1480217514293386 -0.28912569269292143
Ni 3.3735021517333097 2.761324837160459 12.891327046956627 -0.6700379684715364 -0.2763725067923111 0.32805836520237697
Ni 8.654124739636035 4.970582065208818 1.3359438426743666 -0.10394635837667902 -1.8424442978473559 1.8252875835624114
Ni 4.136921725527532 0.33877683388642393 3.56103108758922 -0.7315431269648691 0.026285158948774083 0.25640197720765523
Ni 1.7028357789460917 8.970913037270657 11.093322266705297 1.5752994803009 -0.41823980858447973 -1.2203203794482789
Ni 7.364867417258319 9.666704493413913 0.030275706088463746 0.6527547559110565 0.9681175279236358 1.7815397490524996
Ni 4.955028349990315 4.293210718931584 8.70835222735947 -0.05746055611031394 -1.2094857507266203 0.43239347437704245
Ni 9.48231543444894 0.48979636014665995 9.796891439296594 -0.9526536279600819 -0.04664521066236483 -0.9004502064836493
Ni 3.0600501495080947 0.4481274401854523 7.055502611860009 -1.5828209854889257 0.2811321329644835 -0.06553639113991294
Ni 0.9749501007658634 3.4204640338764274 8.738144875464712 -0.7991346008615979 -0.4944282801216001 1.5067052761712696
Ni 0.13965262683015786 8.89050361889633 1.2555372437046104 0.4878336576232179 -1.0198087856503404 -1.9583300879740984
Ni 1.6600748096142557 5.328326913249626 2.341421516337066 -1.544578139957643 0.13472272032758734 0.019550668438417945
Ni 2.358826640557409 5.169556843822805 4.921561077927107 1.0613135897623465 2.5426163667001114 -0.5471924591975093
Ni 2.7146636915049496 4.11610512177588 10.707083576265106 0.6936242404319086 -0.23355078364109455 -0.6977369770487015
Ni 4.587114849462245 1.5087385702405067 8.794059306923327 -2.1724312475310135 1.167612507531602 -0.11199005461676198
Ni 3.638328823118323 0.470052069933637 1.1599932615913844 -1.0919518834734936 -1.6333555039033678 -0.8364474783794433
Ni 3.3921760080107513 7.12169377298112 3.1870897000876464 -0.6815349133675423 1.1542139747375089 0.4918191246335271
Ni 0.818748508903523 6.537015050993973 6.302268606980477 0.15971024351086044 -1.557694365624627 0.42228261119528565
Ni 5.385476243910483 1.633976521298979 0.37836409347246636 -0.16278631133302288 2.0169052173048296 -1.1504437090617994
P 6.787284196775685 8.097179560615535 6.271622619091645 0.2708356361344819 0.44776121508236433 0.07603523378870776
P 0.30990143206838733 7.613040805642012 12.05651169120262 0.7519165484148986 -0.6506937596169697 0.6064784985523362
P 4.994481217958459 5.932327954565621 3.613685347561853 -2.227599150952409 0.280625111421078 1.549876669352421
P 2.7450286787381724 8.85608808709563 4.983705453686836 -0.9779738518924255 0.007607894254244962 0.2947867476334407
P 2.3130395103190122 3.2697574615236094 4.309562325643773 -0.235957079089742 -1.1791804148748595 -0.48074666886944956
P 8.439351897407365 6.406034912625225 3.0867611884168737 1.4355217140479084 -0.7661337204555451 -0.8706529206165585
P 8.136012159577986 0.9801096111313972 2.2996755326509084 1.326028200600755 0.35926924358754253 0.7588276737124351
P 5.733390768012587 2.108134584089996 5.416711487354722 1.1643965716974656 -1.3539524378148489 0.47454722492695695
