# total energy = -340865.14039428433 ev
CRYSTAL
PRIMVEC
9.29049295927372 0.00000000000000 0.00000000000000

0.00000000000000 9.29049295927372 0.00000000000000

0.00000000000000 0.00000000000000 13.59757554331663

PRIMCOORD
 96 1
Ni 3.534010548262862 0.6856374380523789 4.473357408374802 -3.0477602334670024 -2.6133893236486156 0.40093731275029015
Ni 1.4334672928669785 1.7082150358249366 3.8833590901388804 -0.5628239950871791 1.1034969079986154 -0.8220966089744098
Ni 8.797864399540535 6.247670584126316 7.342989953211825 -0.28409687201976236 -0.6836473317248548 0.3339739593558635
Ni 3.696018161345771 2.747403105637346 8.093725874167745 -0.047875740635356254 -0.24831611487572716 -0.17027053552521
Ni 4.002790232913477 0.12464961256864796 0.674110723661281 -0.28504663752754134 -0.22882561025128334 -0.14325646883021134
Ni 1.9342991776056793 7.39776855673628 10.384794839281433 -0.6249071375711689 2.420976190588095 -0.9972689526766115
Ni 3.102541482613334 0.254511191586402 8.353194472701103 -0.15567412576827383 -0.23506053541740163 1.0867271447394444
Ni 8.997164050638972 1.6094756785680746 7.321669201332942 -0.19010659641453065 -1.4026990110909325 1.0029953136374274
Ni 0.8804321292022047 0.5617078386741154 9.087015193454016 0.4966024049547834 -1.321969457150349 1.2395943971865426
Ni 4.447321731410497 0.765425119089042 6.687532680952532 1.237145678535734 -0.20848689869393128 -1.4148474735280083
Ni 0.306904925614448 6.713598087493731 11.678209811601201 -3.0137463384154035 -0.13723468811616366 0.7236544682454118
Ni 6.174507953490468 3.3278730944789654 12.465169363903048 0.029932011672742 0.26278319814365064 1.985284247965439
Ni 1.5289178156800196 3.8200926924113894 5.051757475425225 0.7354026099202754 0.7782297323881308 0.5241517753279619
Ni 1.832856286950083 6.29228353045182 5.90185057140782 -1.8588510213401535 0.3526489100575475 0.9909851765504287
Ni 1.4045088268743517 7.729346244024331 7.905847954892001 0.3133092319176604 0.17930282093080732 -0.5001677537085386
Ni 2.8817900836878265 5.607518469671404 1.1261740246543621 -0.48880476328723566 0.9100350219586069 -0.4862051208808594
Ni 8.217933259280105 8.596706649886265 7.179424324489853 0.26987481488310944 0.4107787243207442 0.500602527253112
Ni 9.07790772338261 3.972912008135714 3.4944683528962215 -1.3564309812623283 -0.1337906954316212 -0.8018748826108965
Ni 6.839948789290242 9.013310927089144 11.095390257135735 -0.3596996462567418 -0.5625180338109861 -0.8506258267623544
Ni 5.172546888244134 0.9933116164689408 12.411500045216423 -0.9024060446584393 0.276918094883136 -1.2067495827423798
Ni 5.446969463954821 1.2182623181306267 3.7749046645828557 -1.3546412363517573 1.0708806646254911 -1.3152249393376638
Ni 3.4988553235865383 6.532349863865191 11.606713895369934 1.96037745742143 -1.510345444027018 1.6417784378597402
Ni 1.3178285292448333 1.2272555151408489 13.262421853154919 0.22324117418497036 0.22022655572836267 0.11468637050200249
Ni 6.29238572587239 3.6265995992999227 8.561686137355238 0.14431961998740306 0.15666888558137534 -1.4449738605997435
P 5.179877087046887 5.650301188919413 13.165621421741069 0.010316808544975782 -2.627331387651004 0.18692048537706518
P 3.040648219718602 4.961355406388377 3.5763250266748026 1.1677814290092987 0.8559464676443194 0.6572030214903972
P 7.80996914036184 7.781883980690454 12.71543294219082 -0.1153340313883304 0.9242277685192211 0.8075061127547448
P 9.044861440567155 1.9785776661911332 5.289429648849408 0.3552804341431236 -0.32089630023629895 -0.6664093705800136
P 9.177808392236868 5.3022421674411415 5.3064126696497045 -0.4592177936587381 0.41023673577434516 0.5510635121171412
P 6.3029861781334064 8.008321161196804 6.5817567044647385 0.3424480582651457 0.9162239243781382 0.6663918870785168
P 8.022498453177796 0.22484386099472556 9.15405074410201 -1.752368269694866 1.3315177629604167 0.48792621733702424
P 2.8924462789055174 8.376401194614157 6.401765484509219 0.2931440698236952 0.12287199163658838 -0.07899354508608332
Ni 6.824145661072899 6.353480006388114 11.479671051861375 -0.8015750919822904 0.796307415825448 0.42608450143987914
Ni 8.80075374279485 7.622124666860101 5.106079915754224 -0.6733760317058338 -1.3351353051083459 1.1814501847456427
Ni 8.165507008527332 0.47350482927809345 1.650813726188926 0.3592597305058458 -0.21592227192605395 1.4106154377245317
Ni 7.307111928197283 3.349408456741047 4.949857492524895 -1.2566076439150875 -1.1538496494195547 -2.054375960556778
Ni 7.840033174995186 4.4346587897525085 10.951840995106451 0.6437340404696849 0.5155694329755894 -0.9780795242323541
Ni 7.1540510596607 5.860257035235542 3.374319984079074 2.540799625206347 0.307138070109942 -0.7602278964940714
Ni 5.402272903194306 4.870345739123772 4.164678927688812 -2.7689541775325344 -0.9236482418666675 0.9727082326181118
Ni 7.247912908208507 0.24532475232637327 4.396462786789567 2.717040519382379 -0.2125700676243694 0.7831685644506448
Ni 8.132126267971827 2.939326105469135 1.21279207598226 0.5517937054149464 -0.6794919147955847 0.043942467019221096
Ni 8.647442030953231 4.762956933089517 13.306832266737839 0.7134659577481841 1.3573249538315075 0.09729671427064533
Ni 2.179391667612574 3.5644462026073747 -0.10806794105641167 -1.9550398472586004 0.4308297294343484 0.3147091975889806
Ni 0.4938045560005477 8.264320689726427 0.07425890878378784 -0.781001895816629 0.03392082111716094 0.03398124204145115
Ni 1.8925755745344932 3.5815592903065787 2.4773424162864717 -0.3663976271022077 1.0081133515902831 -0.9943394377346423
Ni 5.922651984740349 8.573852037649543 1.7409110670626176 1.3837823766920878 1.9102329753565555 -0.5840463948010651
Ni 4.862253719913128 6.545468039669358 2.135539612645683 0.11785988313397767 -1.220140402226989 0.3508553084922344
Ni 5.246006814648915 7.67095549690734 13.136861772293916 0.9156639381096101 1.5463558006833562 -0.6659517142173047
Ni 6.957928757092734 2.3057795313802014 10.431298400887494 -0.8676879244509637 -0.4708335235207956 0.6732569896294662
Ni 1.4036076490747735 4.563815220368324 7.712490502975109 -0.16693427206312542 -0.9631306162320058 -0.13377038371664704
Ni 6.989516432541863 5.526914154319452 5.680617924956352 0.28650111058588074 0.7225028711394718 2.16723864758648
Ni 5.875595638813928 1.6899592175138967 1.02484076181356 -0.32545049526588465 1.0370027809311237 1.0606952394520572
Ni 6.657548544557087 4.7638488203963165 1.3910050956198496 -1.5577496443425947 -0.26406052219417747 -1.2102210862307479
Ni 3.01350139981791 1.592678467623362 2.093265083352693 0.2462180946961179 -0.14218277615005837 0.06295294668345287
Ni 8.86763600031199 1.1430650695761442 11.040619086005503 1.7000941428814977 -0.4009072308433031 0.890714467253124
Ni 8.667974019995164 3.22664388515729 9.07223401944238 0.2936919719073652 -0.3528962501816632 0.34666029657428044
P 4.445584409260795 8.350908082428155 11.035112610935297 1.2030682772360506 1.1114243903758083 -0.6169729703257567
P 8.46665833196365 2.9105906113032076 12.268425527368155 -0.2876948737836658 -1.5530537815288221 0.6510421440953239
P 4.512485247763491 8.476051020163375 3.1705060825392444 -1.3763693720574683 0.2164604038177111 1.4568837246634523
P 8.833948673494772 5.367702979563069 1.8486445503789797 0.03272988613285331 -1.098919058819946 -0.6035081030701025
P 6.940388306725689 5.818254717380982 9.247330078752563 1.4082906462460973 -0.7100463905436739 0.29722878141603004
P 2.488997339477922 7.954287655193238 0.661572274606533 0.39641294251737536 -1.070872179985059 0.9327733440963872
P 4.65272523626484 2.3848416249308126 10.036193253024857 -0.23392590759232618 0.7016293701245723 0.9424527761676801
P 1.4321387523995595 2.548103454538908 8.845507904610598 1.2867438011788355 0.5859623808768554 -0.7003448469851938
Ni 6.082978018630231 7.441731168567243 4.568907339460579 -0.13913781867614747 1.295833936405562 -2.4459721984118
Ni 3.4489560868696953 4.851653267652113 6.469372400463131 0.7001805534931876 -1.6573127860499137 0.4488145960475432
Ni 2.9356935227924854 7.158417591266905 4.222972124631623 2.2086462639989897 0.4641615108172587 -1.0329777189321305
Ni 5.40277458980438 4.382966487929289 10.529118928408499 -0.034342739145927954 1.227386285156125 0.31559185730425005
Ni 1.2193307248002294 9.273296077021023 5.154296644228761 -0.28932572451886945 -2.0590198870866927 1.8095478042296513
Ni 1.0759598402323058 4.105663859457063 10.515045689946634 -0.15102942790741086 0.08840506820797032 -0.014121784113362776
Ni 1.9349680930857784 1.9203169859730507 6.480209760290015 0.5572295317185371 -0.0040520585821865705 0.5298190009160682
Ni 5.777599520979398 1.0184981423932307 8.847357641722928 0.12572257371150605 -1.361344873624178 -0.7159756115439153
Ni 6.579592019647196 2.051452291550827 6.80046047878172 0.8388540309384069 -2.261618702430963 0.04594047128585636
Ni 1.577822969669493 8.446014857008366 2.810007091229684 0.015148425605664236 1.693092514752684 -1.5635845058568167
Ni 3.275855625408475 4.1088040460164175 11.4030895198828 0.4156201115734455 -0.391551500660016 0.7383845753667347
Ni 5.187792586894727 5.762976285345008 8.082589360473373 0.982343955935663 -1.2020660612237812 -0.28276401214095176
Ni 3.8382648962874164 2.821346137666642 5.101674364078349 -0.5006686046043571 0.6723252218438163 -0.9453768917930105
Ni 8.76744732618158 7.514169140766317 9.519309254862334 -1.3982080651991147 -0.1678156462268142 0.08799986234975167
Ni 7.506244350425698 7.011042504311164 1.3193233695329993 1.1343190355857948 0.9491636125289525 -1.1286934618689013
Ni 7.485805266311556 0.7511279797511998 13.058417496513117 0.7295672341854209 0.5632543977563783 -0.04610193656438512
Ni 8.407292083104847 3.7130104726388455 6.852838418972042 0.6526670812932567 2.103248774998081 0.061421340530274864
Ni 4.7478134298594945 6.703954555988967 6.159633874551042 -2.231026945687035 0.9848320124648393 -0.4023429348485651
Ni 5.93517556900665 7.743848703252593 9.329052040385847 0.3857181818076905 0.2755731508194673 -0.5664363950287857
Ni 4.44992306938866 3.9519526564259393 2.169262243335461 -0.37122564461847035 -0.9655297125918016 -0.8159146485334143
Ni 2.9145669422126863 1.6226403068361377 11.230156287291605 0.6821951726593606 0.6601093965039148 -0.14090776609237665
Ni 3.4411706539207634 4.893887847826152 9.154431654305956 -1.5473963261327286 -0.5668773392209463 0.40740312298029185
Ni 3.688176985440164 7.162849156322561 9.03316842635531 -0.015037096838780555 1.4896040977146088 -0.6210507399395562
Ni 0.7518795806170336 6.379409771734737 3.427269289575314 -0.044574701286581295 -1.5959847765643933 -0.39486179598017157
P 3.8926607315093706 2.541674433535732 0.24410212347663646 2.204058130407675 -1.1723155694342262 0.03766460443030933
P 0.9244495549405642 5.9096267138639735 9.270799721611265 -0.08031560633161652 -0.15434949341957932 -0.49701686678438284
P 1.6480590950799063 9.25628518474239 11.459832133580768 -1.819072198780319 -0.3154576457192309 -0.180611769550218
P 1.6973544497661042 5.420407945099217 12.347469039933207 1.293294972033792 -1.7293111307650864 1.2615665305822596
P 0.707498896611009 1.7428128309345108 1.770105511571835 0.44640110151004414 -0.1447757336882152 0.14283300813954755
P 5.300356197406972 3.5328399461726883 6.369484738298766 0.16103436163892265 2.321709754185589 0.20654288759368303
P 7.052951917237934 2.2035283678528192 3.0595497272777936 1.3753357885866313 0.7906741287990706 -1.8229530218919638
P 8.648612633043404 8.191975622455145 3.1366069324866626 -0.3847455334817761 0.187433934678374 -1.2741567085424443
