# total energy = -340896.0953369374 ev
CRYSTAL
PRIMVEC
9.01681965176527 0.00000000000000 0.00000000000000

0.00000000000000 9.01681965176527 0.00000000000000

0.00000000000000 0.00000000000000 13.19702699446322

PRIMCOORD
 96 1
Ni 6.354035687244857 1.9455231387751923 11.415151388188132 -0.523574305557937 -0.3029829102909879 -0.0749851952576386
Ni 4.372778891642518 0.19562261038657355 5.922588073756718 0.2484287291941915 0.8250348656671275 -0.07317719551462236
Ni 2.638573941462079 1.7645104814941008 4.676564567182108 -0.014632405201194154 -1.058521885949822 0.7559015012045756
Ni 3.407537349959651 4.232098469281393 5.005962519334745 -0.11225410691142604 0.7177797546321897 -1.148209934635274
Ni 5.231369488851127 4.483171816329563 2.915342519865363 -0.25485674420772236 0.2617691550568395 -0.09381878302437391
Ni 7.176414736177458 6.103683685779876 2.6192797504757737 0.06432874398505695 -0.9296494537554247 -0.3059977858579117
Ni 4.976427926113115 4.865187420365827 11.28702147729249 0.47029359185692554 -0.9933547052238699 -0.15330999641147147
Ni 5.7538220611141915 7.6590219817892065 12.329336089492996 -1.3788448301811542 0.8339262546194864 0.00605160551071861
Ni 2.0137083300259824 6.384323184918938 0.33575571178645536 -0.013013381540532425 -0.21552375093605464 0.5442765711022949
Ni 2.7016556127118183 1.6275089216072312 0.12275137789100209 0.21612847439958907 -0.246204210739047 0.6284398333147758
Ni 0.6588482018600557 -0.05749484970795276 4.348922189842553 1.1555890007081646 0.1981533779784071 1.2995689779679618
Ni 8.694089775924615 2.373353204163647 1.3564164312616538 -0.5099222619921412 0.29130830216653697 0.2255975902322889
Ni 6.858788242260459 0.652297482282735 4.67965282796013 -0.5246677957324319 -0.00044582928816697413 1.168286393670175
Ni 0.6925350405949079 7.3321081634886704 2.466999189455016 0.6642776689489915 -0.5807654100569482 -0.5056403467873356
Ni 7.59061137004367 3.854104366871399 3.8798068116823456 0.3783324308665807 -0.31333288606674425 -0.6492793957679462
Ni 7.519522762820551 3.858017666660191 12.639004338263478 0.12957511468837685 -0.17161830780235604 0.14871954882731162
Ni 7.899013657315659 8.92543432127261 6.9391551570473275 -0.14024647835929396 -0.3923755392232081 -0.21118244324822338
Ni 6.676747667523327 0.6445484273553442 0.40714638247253465 0.4990179563748115 0.3820818706066839 -0.15269961652098218
Ni 1.8866162550881502 6.422644669025771 9.200307564156068 1.0590502476494665 0.5648842200503175 -0.061908050358706286
Ni 9.335203696622008 4.882535781641484 1.4119627462130215 -0.34333380330420876 -0.5733230948462901 0.1607656813585683
Ni 6.360807318907029 2.0121484202023394 6.877010333373753 0.18601262885081513 -0.2687748969507113 0.6015491795715189
Ni 3.5475956117552774 4.1232744712377825 0.0656821220771299 -0.5222334752593264 0.6948277738217066 0.6870496725381845
Ni 6.119977079140122 5.7458241419605995 4.938090211730662 0.15100217421390125 -0.060475174566921655 0.08575734617247811
Ni 5.464625599994567 2.8849855926788996 8.971022460448074 -0.3945841168387527 1.398744654428875 0.8501458018021424
P 0.11999313271728923 5.519979856684412 12.502903558673614 0.27718163295716775 -0.3316180575291773 -0.5272296429223371
P 4.081878251582615 6.233300470258865 12.627060658769853 -0.9685060216113061 -0.30941812439337035 0.5299856084009195
P 2.35598680924841 8.32194758955823 1.4466847158597476 0.7410994031947367 0.46372827993458193 -0.1978705566306657
P 6.210397747992664 7.827519293201997 5.8453328634793245 0.9526708543512625 -0.2855814269850888 0.5516476667553855
P 4.593041765468795 0.8738714017064546 12.437380132624785 1.065389559603933 1.4161787907449221 -0.09325519721142005
P 3.9382132618710517 6.020187934525932 8.128365485490097 1.0692325874991069 0.7142624855075506 1.7636746958466207
P 4.698745943865121 1.0471773831131677 3.870477108245795 -0.02791163880860354 -0.29843051503361506 -0.914977710675863
P 0.16439014999851653 5.501819981627667 3.5458165932107417 0.390283946801502 -0.3683640067999592 0.7240157082395724
Ni 1.47056215634523 1.1546488581883023 2.39192154115687 0.6334473138316962 -0.008488754197301511 -0.1416400162727109
Ni 1.733276217742086 6.532415433147315 4.792949168619502 0.34798467181265874 -0.8137127557860889 -0.05298015174145714
Ni 5.921444741007366 5.638839575154116 9.092725182197517 -0.4862169479554014 0.5458570282155373 -0.1592649284433257
Ni 8.494763957650353 2.593417707954547 10.388990408641131 0.3777102239015495 -0.5540076823471297 -0.36462279458997204
Ni 2.4098713243125096 5.0222243538257265 7.115335700603043 -1.6436427447619886 1.0085635517538243 -0.47117985111662075
Ni 0.1826798672602334 0.20452671992904317 9.41863903518336 0.6006174117858688 -0.5109000525243782 -0.032233406112409005
Ni 1.4551884786035483 1.0952280157732392 11.32512114763249 -0.21325346684463917 -0.08360481860584956 -0.3085660608057202
Ni 4.29302512060136 6.8456146685475 1.7907313934429632 -0.2194318277412092 0.18597431941371195 -0.6784516464565283
Ni 5.4189734413985935 8.00033566129412 7.961740065865678 0.7111092845905495 -0.6278222543354349 0.5373011682257263
Ni 5.406530230088611 2.834816007368215 4.912474328389699 -0.6430994922094795 0.2173024401030322 -0.8612997615364327
Ni 0.683532647716729 7.362188274307586 7.051713020165912 0.7908602766679477 0.4019181886063207 -0.31424177103425877
Ni 5.0223866565819435 4.446383191587004 6.863206483957483 0.9618638337044402 0.5825860082054547 0.587273386378795
Ni 8.202411609604285 7.035319540106 9.200214690912231 -0.00022857107103831602 0.600761650673217 0.5146384365208878
Ni 4.5617353671584615 0.22174073058983182 10.297534608876715 -0.17382791385916513 0.9601946735321333 -0.27641518710478846
Ni 8.202907534692727 7.250271507076059 4.463208577314851 -0.9922352469074459 -0.5864454911608609 1.8117756651189059
Ni 7.4221861931892 6.359148224065699 7.032814667568382 -0.6871234631989134 -0.2916366320402332 -0.7737547273359126
Ni 2.5854468392603263 5.168044363467062 2.6534994832602057 -0.24858788047987512 -0.16152595656336052 -0.14170557940332368
Ni 2.5357551453985034 5.253217243201916 11.295533355174102 -0.7111298534158398 -0.42836995503994607 0.23324482236490152
Ni 1.0698637017044117 3.328991832770332 3.615206431585455 -0.26563917953520705 0.6083302070490942 0.11419066181250657
Ni 3.74002356289031 2.732393951375392 2.7481751893715742 -0.7505510355259396 -0.41242371612333484 -0.7408731461165434
Ni 0.9264872502261235 3.3712175998461653 8.232344746260626 -0.11847951899584758 -0.23633374570287038 0.11168203645803991
Ni 3.441647979224626 2.749066051166811 7.001247683166121 1.6187156425030058 -1.6433601805245632 0.8935197979124031
Ni 4.048434866982088 6.763273070226656 6.109497731180366 -0.10591068119190147 0.25489505364482556 -0.7185153472466336
Ni 0.7449705527187799 7.295418723763801 11.419057474521093 0.5153447185592931 0.2546942504879291 -0.5867977322939572
P 0.2796350254144746 5.52288327265674 8.09770919988661 0.16677049279175152 -0.16512344410663174 -0.8566159829075184
P 8.467361842309021 1.698128654201279 8.067870739838064 -0.462308773879236 0.4483934493497246 0.04324132718713844
P 1.7474596752715084 3.228508393032325 10.350230707092514 0.39169856776084155 -0.37628994651525516 0.7582010958720297
P 4.1739580152764875 6.152004823033643 3.9610609815365336 -1.3261153609979226 -0.5463375673963817 -0.7672310672847819
P 6.768061001535063 3.9876164174996 10.397660982551043 0.528612896423109 -0.02401873151210057 0.026855172519631168
P 6.472805237516665 7.890204224380983 10.234136447252352 -1.0544562005208806 -0.2986485445816921 -1.3236458164115075
P 2.2720402170049745 8.377933023633362 5.772182109570268 -0.18456304088848213 0.8435066992190698 0.5601721592866289
P 6.862367919717028 3.8202552253803295 1.683346479837811 0.2300062608229458 0.605864519117421 -1.3958832737206799
Ni 5.188305157534838 2.614913806333532 0.6307797435362544 0.36370696764392196 0.6281978925072987 -0.46559181550588197
Ni 1.4452970272940906 1.0799264725898763 7.116074178143831 -0.6935111118928121 -0.023699657609784992 -1.1286512957770563
Ni 6.697684723075341 0.8910628703177688 9.07820900401785 0.8675172032010544 -1.2150442186510042 0.9370190067466185
Ni 2.5910643179893977 1.6279597625967235 9.109815662427184 0.6207473497665246 -0.6405664413749808 0.773513557859384
Ni 6.448378672705981 1.8590698706301807 2.587619892829678 -0.0386202834753593 0.11320284397794052 0.5881159368847485
Ni 4.120875997173684 6.960443868571145 10.380372132285999 0.0038738811331094575 -0.36791252108483735 -0.7787676071694717
Ni 8.104588131704283 7.015644839324564 0.49236434630633763 0.9356956599495045 0.49289975929221563 -0.48967199638353726
Ni 7.6090327328743195 4.157421167781917 8.200236752670975 -0.2872935245801891 -1.197278410027151 -0.04652822546852632
Ni 3.154480302557717 8.245854647351747 12.486050220804419 -0.19681563300359006 0.42766341589122475 -0.5190381082504802
Ni 9.321678466937243 4.928485495290522 10.309240244327889 -0.7246672257806422 -0.3155769449059146 0.17682093504921803
Ni 8.55973916105596 2.206235466178703 5.804620118764228 0.6349439529818807 0.536374799756715 -0.05725255386456591
Ni 3.86607870355231 2.769444063891856 11.209660770223556 -0.4047075784259998 -1.25195394719316 0.23549788006513633
Ni 0.9702188262068605 3.262934610989945 12.475743995784628 0.07654482643527463 0.8553337737609851 0.035924738921067165
Ni 3.0463055155389744 8.464774015029338 7.963257596636309 -0.2144022357371017 -0.7569134874088578 0.3270296668275465
Ni 5.644475087522769 7.837464845430193 3.7006444058221297 -0.5927310670592565 0.49975894830589424 -0.48735003311858005
Ni 3.09986542509064 8.32302059111322 3.5151603076072555 0.2999076137997738 0.283662355585505 0.6472268841142917
Ni 3.41278513907734 4.049147195745486 9.226055093065963 0.10976887859572709 1.1226369712621762 -0.4996023681233719
Ni 7.226683506505831 6.010918643781974 11.284289380896167 0.45772526827361176 -0.217447964541961 0.35534574016342024
Ni 0.6957125678888484 8.948328026719018 0.1871215526887099 -0.353757569740694 0.07333711813125433 0.3813830447674464
Ni 4.543494340723609 0.44489980693260583 1.472036406380869 -1.0056330083705907 -1.0487756051963357 1.1378900407665047
Ni 5.993633400244846 5.642852059960597 0.397497483615424 -0.10997071019388803 -1.3374307860107417 0.46691567652362814
Ni 7.809837309594116 8.650502469060516 11.70894372235464 1.0267127118590251 0.43217981570433955 -0.7635117094516657
Ni 0.06466682816879361 4.707537343160217 5.831344169257362 0.24322635905764564 0.7435445223011193 0.09251060573591165
Ni 7.836743499847006 -0.27990823505410684 2.564089599906105 0.04420883330673031 0.6083952559590747 -0.758899664600951
P 8.541110411370145 1.5872668548851634 3.6771799356830224 0.014522876206523375 1.0015058735760944 -1.6066389138441297
P 1.9343783495149467 3.2756573437134127 1.3467567122207953 0.09561572702379663 -0.13041432276022055 1.3308901566787468
P 4.630353365759164 1.11524535570669 8.1702792706012 -0.3956927765218991 -0.42279606049659446 -0.884575958455554
P 8.383811990136339 1.5589450239252676 12.487079941624419 0.39581207570858284 0.7139372409576479 -0.30480376554981053
P 6.299483927516309 7.74192262293702 1.3225925368659959 -0.9366816780118578 0.03166519231376482 1.2654509532383305
P 1.6818983785795623 3.240095006462273 6.107703384042187 -0.9641498015251395 -1.0901107164996968 -2.1557399029182616
P 7.004743504198643 3.9942257464055544 5.982660832242587 -0.6756141770077332 -0.013067374706919429 0.831568038799955
P 2.296611050932296 8.39761674123459 10.10554397350149 -0.17353660787099146 0.6529815272098819 0.5694533274782387
