# total energy = -340893.4405555512 ev
CRYSTAL
PRIMVEC
9.02295144317398 0.00000000000000 0.00000000000000
0.00000000000000 9.02295144317398 0.00000000000000
0.00000000000000 0.00000000000000 13.20600149100062
PRIMCOORD
 96 1
Ni 6.3374413280955215 2.060950367446391 11.569803905982198 0.576724150108039 -0.2595785751634239 -0.9698445379170717
Ni 4.8361214732322155 0.2353140601536616 6.033743221832902 -1.4296539424132217 -0.34655642400656445 0.13582932312820478
Ni 2.909784517217503 1.5208184527655695 4.740056816922164 -0.29503151665439514 -0.17881559688174364 1.197222359978235
Ni 3.4958071625465936 4.454504768152019 5.10970547931029 -0.0026999154296663175 -1.1681146439790013 -0.19515521458203164
Ni 4.888815509210565 4.37547273713586 2.779202560456222 0.018259203320504038 0.43041321072222005 -0.60142756639199
Ni 7.065413044316976 6.156477015495899 2.506961169541431 0.8310350491146204 -1.4917589392740824 -0.38004170024820355
Ni 4.952598752417921 4.668258486016251 11.214971832032436 0.17550992954727837 0.4331146688137831 0.8894129748328811
Ni 5.673415268206014 7.899287140723001 12.29901357113109 -0.5959326047156898 -0.022800028613651057 1.3544057233021836
Ni 1.8108882932847477 6.604854537734283 0.3324632752179251 0.8966274903034495 0.39904086705852565 -0.20365631007450732
Ni 2.759985478636584 1.5975947459401894 0.3263141338618899 -0.17550041646558162 -0.1572214156507357 0.6434291076347565
Ni 0.44240162154857793 -0.20947052285071802 4.595701324900445 0.44129077686667223 0.5906862687150859 0.9202276462208926
Ni 8.605333085124697 2.3825824918443828 1.3126815221267691 0.0558844698724457 -0.03067043250066331 0.8849420835457211
Ni 6.916805035316389 0.3819099509995958 4.796445751484955 0.33647101474610436 0.5834830660984274 -0.883242327245795
Ni 0.5836820917447096 7.423362547963745 2.3336456128149 0.29232414502556103 -0.27574155807653156 0.7619883308286038
Ni 7.8863572514152995 3.8407906850801967 3.646625794631889 -0.6960868430397883 -0.26625135919790915 -0.0893563763776461
Ni 7.5366005876090005 3.7896666426395575 12.833050482164072 0.5077175410313385 0.18222205146013135 -0.6630646224774968
Ni 8.157614238336043 9.015164559126863 6.841382184846692 -0.28825640271409064 -0.3440154027522656 0.10121430415749666
Ni 6.595633081438071 0.8291722364491219 0.3364839023466841 0.39625636233485306 -0.1643091757354525 0.10020694593890483
Ni 1.8418279935192963 6.530866336531805 9.027411411016145 0.3217069690630524 -0.16253074367879106 1.250872541203523
Ni 0.14746660565276823 4.934029518506372 1.4311339253665267 -1.2539519514597952 -0.7032905598770791 -0.31147115026765715
Ni 6.515482204452509 1.7109681298559378 6.815643313779597 -0.14549564257337524 1.7447182093487759 1.1851487166431527
Ni 3.2524040264931733 4.293517269877067 0.3802641646704089 -0.26864274224822116 -1.3073537641197033 0.4855217216605896
Ni 5.904619374012391 5.336263667458234 4.792101200402151 0.36017015813525716 -0.08715782606443054 0.6743093421533806
Ni 5.333737241075711 3.0128717365758337 9.493887169104765 -0.19392057084398215 -0.773595576050229 -1.3945946368162432
P 0.17394896791243566 5.454671858236297 12.43597294991797 0.2691891016699945 0.5110682026711263 -0.749078050524839
P 4.0115229708305975 5.986782369152607 12.734586623085761 0.1210169407057206 2.3757162903090308 -0.9141176766684127
P 2.45375553222062 8.673690964674694 1.544309706647356 0.15646551132131764 -1.3353782743570872 -1.4154547680947043
P 6.391236164140543 7.542339184677877 5.994772192587338 0.6496550339398102 -0.3341963597793148 -1.3873618665132301
P 4.652197632584494 0.9841874432148161 12.48696074579298 0.19520715086588963 0.36029408530763113 0.5474536832786958
P 4.005612937685766 6.2277583312885305 8.31798456673755 -0.20022491579545518 -0.5264547124295256 -0.570877718629591
P 4.882896453114367 0.8280091780180243 3.9175074267758 -0.5092961983723681 -0.37047771070885227 -0.8249135095979148
P 0.21835271617556185 5.612753966171348 3.5443587615527417 0.05094872313372516 -0.3708273807387872 -1.1357102595063666
Ni 1.2051234303665082 0.9741719671983831 2.666780195614467 0.7288118440766351 1.3224785355762838 -0.2685488969828343
Ni 1.7348969968789831 6.602418340865421 4.778776105824612 0.15343083826005188 -1.346825082741448 -0.21297373082069126
Ni 6.137646115994732 5.616724064772456 9.255439437941636 -0.27006044853135425 0.7107886680263372 0.7148106447015367
Ni 8.65684511447408 2.308540152933708 10.267071992326889 -0.25417257365650425 1.1560343157756994 0.642788388726964
Ni 2.1495647728134077 5.3414338185910415 6.907583579020178 0.2851618229491669 -0.5258247921550105 0.5224841578175518
Ni 0.49441713158419315 9.310512826195243 9.390008636911622 0.2005280488581708 -0.9089641574919315 -0.893463490753171
Ni 1.5776720693237174 1.1166714381240823 11.376203852289411 -0.6267804433344818 0.35855833356344696 0.16118245718101273
Ni 4.250874801720614 6.712453232775691 1.755883479461525 0.22928223817272775 0.8206441927985996 -0.2650763650532016
Ni 5.624222137357732 7.796786413203471 7.922993140847303 -0.11814167604045461 0.3330535044241232 1.505200923711601
Ni 5.26832084367108 2.7291269849643305 4.758755981333385 0.01575109218666965 0.8229754120349374 0.9001072213219337
Ni 0.8258238191971414 7.551912536077368 7.183826648865859 0.5375834753528355 -0.08990016469625808 -1.4194680030191553
Ni 5.190407658624324 4.512928378247878 7.401647010910818 -1.0810038691024222 -0.920500440266305 -0.9345553756974744
Ni 8.205814844534048 7.406282101027612 8.831381476520454 -0.8890208816007851 -0.9218785515607542 0.8784459342984162
Ni 4.910199903948354 0.3511759740561957 10.369431961805107 -1.2531487388322096 0.8627380366448562 -0.7625655434883125
Ni 8.017767515111993 7.017302667632633 4.551237122863166 -0.5138910168319021 0.3588678943840658 1.0950451776868366
Ni 7.102181571134062 5.72287908759528 7.028405409288688 1.0840516547898105 0.7000214022075041 -0.9160133510292289
Ni 2.238630325748732 5.413536222957993 2.43402414217311 0.35436357875580904 -0.42671159350091675 1.1957974546062504
Ni 2.3937348597329513 5.352658370090539 11.329005695988188 -0.6828145514109144 -0.705717681261333 0.27675791515618786
Ni 1.2993771803373724 3.1943503574033265 3.832090755372949 -0.2934685430426494 0.3937757620048444 -0.07951445058655983
Ni 3.507121943559753 2.4469161350850737 2.6621315710706237 -0.15923458942602253 0.28129308402238007 -0.5310510735509564
Ni 1.1675608838292013 3.3800066047133495 8.231155803445898 -0.9028073938619161 0.3827297886033279 -0.3107967499084518
Ni 3.5698585244086347 2.698539179833062 7.104590699148824 1.1398294238810627 0.5208324811467417 -0.058798558195447125
Ni 4.160663333961788 6.782137486176514 6.078366227814225 0.09220130202560894 -0.0050208502533590944 -0.03658422688193699
Ni 0.7813632263404084 7.337797900158489 11.279126820836076 -0.03522385619930063 0.10022828609514352 -0.002980937005194866
P 0.10918492989157877 5.533613659738795 7.842806172056275 0.2135632847755741 -0.0886997166302537 0.4000559385866013
P 8.585238972432268 1.7735964352884255 8.05934527500724 -0.1927077814828036 -0.2677400279282937 -0.47983598412972195
P 1.741131856272997 3.1806805860836005 10.433651915858585 0.543124973996355 0.6426552055832093 0.156538273540782
P 3.7840543668898086 6.180802892379056 3.9336585097212193 0.9995958010375753 -0.12026797835483802 -1.3918687532446483
P 7.022310405640849 3.8664790276196426 10.63606107697015 -0.39110541426153295 1.8545721914591413 -0.8296757068732485
P 6.345246181027247 7.759043407638841 10.135223213193798 1.0589057516518021 -0.4491789213654974 -0.26871884690179526
P 2.374308445441618 8.287905656063334 5.7910294392638555 0.03604095278395729 2.488928904478984 1.2204090825073435
P 6.777616987542069 3.859964456733278 1.6827082461771377 0.0914806218095005 2.0958501685411646 -0.633474824635522
Ni 5.117033018114745 2.7622953541863193 0.5022833405852078 -0.32969461525421934 0.8680921018679179 -0.024572032912409295
Ni 1.611977330417842 1.1496683712701143 6.98851042982323 -0.8164476382187488 -0.6747855104588508 -0.1999492935365653
Ni 6.911815343210905 0.7100999564505095 9.11854592669973 -0.010486758463936778 0.17138793695910484 -0.1053463240479992
Ni 2.724795968308576 1.6619103432781483 9.123260418788547 0.6584880588504078 -0.9551517117915873 0.731720790193314
Ni 6.241346896045962 2.094281149792971 2.566388131829207 0.5209085858003157 -1.5912922561847305 1.1808984260072308
Ni 4.229499429934191 7.0588533586737805 10.520983257541335 -0.5450417314030935 -1.4433676924548884 -1.0435266980925706
Ni 8.114944701325493 7.133671671401945 0.2508100768298977 0.3314383374182034 0.05794880860064213 -0.08045881677770014
Ni 7.537033689274576 3.805655312460386 8.41069088054912 0.5979221243418928 -0.9758226098773776 -0.408934986243786
Ni 3.139617134416225 8.555454209972588 12.088470219362934 -0.3922061035248794 -1.2961113584366646 1.2542980219453044
Ni 0.08539411402443563 5.043568148091504 10.064227924959475 -0.1401148378774361 -0.4753936320876522 0.5892747330795399
Ni 8.696934087393911 2.1971879101239784 5.703777499553128 0.7268896873532578 0.479435920477826 0.06627069820277619
Ni 3.765097146069515 2.6390869532814616 11.335622226224988 -0.9161817582862931 0.001875876866474189 0.22268967255687455
Ni 0.9559275595360158 3.2333565761592182 12.607135630448536 0.646789539466557 0.8755657845371437 -0.43095159972419333
Ni 3.138714839279609 8.392806488646263 7.882503548886816 0.791004772665612 0.1029107180233131 0.6446904908456832
Ni 5.743622852786073 7.561043762859917 3.7568429501597556 -1.940296884621471 1.0444942042121623 -0.0429469358751712
Ni 2.910055205758488 8.39912255460257 3.6601881928303577 1.3911393312777913 -0.5529316756741316 -0.5153619449504737
Ni 3.2154279717946666 4.402352109255639 9.197438101969713 0.6828430906560047 -0.551852840787656 -0.02572620112151053
Ni 7.0836754978820755 6.185530918894921 11.485074783473447 1.232636992032103 -1.37455751565971 -0.6425418199337967
Ni 0.6369418667737178 8.98137360626061 0.4415688031374817 0.335932368633815 0.3476015774416272 -1.7162419562859539
Ni 4.524838674051204 0.3283289589019525 1.7958975618850166 0.4132809219173076 -0.4078862332642975 -0.4682894169427032
Ni 5.997393359959206 5.522145488552411 0.42099015795669004 -0.61677550960297 0.1979698012126913 -0.28710223450498945
Ni 7.9009924785312045 8.854754529739344 11.369614390906708 -0.13112780388747738 -0.6077501661759082 -0.20750962238232648
Ni 0.13717412502939424 4.875172806744938 5.560519198417535 -0.5559732907139329 -1.0477978146640987 0.995474322670034
Ni 7.92332428316244 9.124549798538771 2.0860594365081297 0.4206499606878691 -0.3740129775556204 1.7237691179009347
P 8.36968968724617 1.6002023788850086 3.6261166261766165 -0.06434211372149563 -0.029583112973755505 -0.3689221932962743
P 1.7075303853854324 3.294757760205909 1.611977330417842 0.43737935762740804 -0.6378672972762627 0.04543782061782497
P 4.758036852109502 1.1577800045482887 8.166842010698211 0.44636484895547 -0.25737256865104063 0.30681359689098775
P 8.558576151145278 1.5133654949371247 12.43370097076397 -0.3973189992714125 0.5928709350712307 0.6699914315043171
P 6.398905672801775 7.874266496584652 1.3046529000011635 -1.8448968731529065 -0.9102975315913743 0.5985289046879563
P 1.83592698332583 3.132082970025485 6.013062617301672 -0.5912994768190526 0.8232309796891694 -0.7774020942805128
P 7.04120446580158 3.638550253159179 5.854260477847602 -1.1370901705730287 1.4828328404290463 0.18884932696866188
P 2.3674510024033393 8.395747970791628 10.045726363183173 0.09773560158027683 0.7541595788128044 0.3106016031785102
