# total energy = -340863.1410122761 ev
CRYSTAL
PRIMVEC
9.32669127382383 0.00000000000000 0.00000000000000
0.00000000000000 9.32669127382383 0.00000000000000
0.00000000000000 0.00000000000000 13.65055543564335
PRIMCOORD
 96 1
Ni 4.904533806084288 8.426105849025957 10.16427184646017 0.5278829602356199 -1.0185995958335876 -0.3070272555636906
Ni 4.414434839739411 4.450389234107598 6.4328240706653235 -0.36384400744241857 -0.10629300423198468 -0.973880141439026
Ni 5.6964631512990165 3.742810483618132 9.447767452543896 0.07767456916434363 -3.5011994727707507 0.00816608075056013
Ni 2.186306978320166 4.348373886351636 2.4238885798919276 0.976601139914615 -0.04336114059445435 0.37223197439579764
Ni 6.936530679392351 5.1837189788514255 8.353498491122739 1.0517544853190015 -0.6490965903331788 -0.1852119873263907
Ni 8.935958747218258 4.371261586424148 9.93963849020653 0.8117620598176214 -0.9674490411017016 -1.3827657625021152
Ni 8.020460071008948 2.616584547654005 2.5003861006721797 -0.8055371619538321 1.059311214620337 0.20776467581592603
Ni 3.3955124854110794 6.8335173756837575 6.4448909436701385 -0.18270439041318856 -0.28056571893805227 2.9214871865686654
Ni 7.54921967416147 0.6300338422935079 1.2577770492415352 1.7450095153369498 -1.3644332827415147 1.7611791831182766
Ni 8.948297959604538 1.4850330710454582 9.950777357442307 -1.8316523494381747 1.3085300438159917 -1.5030987897669337
Ni 5.014458187932136 5.656479626355717 3.6370952374845156 -1.4147425725190281 2.0678948209788195 1.3314012919872102
Ni 0.7889905048345943 3.9237949253080604 0.7171115615098873 -1.7945942682436125 -0.23473091999212478 -0.22585470054841747
Ni 0.29511236323732026 0.7500226565571044 5.730707963180125 0.7316948220513849 1.7011398105371929 0.2576114241347241
Ni 8.831947487557033 5.218302349621138 6.654413194928882 -0.5882259801000514 -0.7208370534012747 -0.035261651415771526
Ni 6.385351212731712 2.22658895738014 0.58617974052458 -1.4909690963829354 4.092783056489125 -0.8717140148912214
Ni 5.006726360972025 5.897257484983245 9.336597957428044 -0.7952074978930498 2.285814840061192 0.2854299890088891
Ni 4.933418568563737 0.9345997396765076 4.956830428678659 -0.006145193665789417 0.14123918128986643 -1.379329997347689
Ni 3.060040731577273 2.1560978256979713 6.034418602985028 -0.47515477660396876 0.33238887425693076 0.04125643554662572
Ni 1.1120773454955049 6.745044383471922 5.875854594141192 1.3901455999059544 -1.475338331824214 0.4080368999095489
Ni 8.740228806826357 8.015544904774957 6.0782372633276 -2.634388808718418 0.6911513534113839 -0.5733606329524448
Ni 6.617511208740251 4.816415228136004 11.501111256547135 -0.6261440953020636 0.7882403225465974 -0.5413046329581644
Ni 9.254847644194312 5.266213562038615 12.263808886371779 -0.5755275586967765 0.9556523055770897 0.43702171717767313
Ni 8.252965154589893 8.135271639017349 2.6352938900930667 1.4832272476539874 1.7477102020975646 0.5003335898624416
Ni 3.987533532600457 3.274368094114482 4.227003789129303 0.16510570349481885 0.24801683846775352 -0.9918863482084596
P 5.358547804384933 4.3158796943986495 13.21212632338596 -0.8453820618649118 -1.141435077805286 0.16903897711095406
P 5.668594998154492 1.889028024729608 3.0908542537857335 0.7729805681740494 1.4366992792957771 0.7743226840242405
P 2.080131926313047 2.1043440165283034 1.1103780223686868 -1.3541501556479518 0.32373094147161663 0.2570648076026347
P 8.413272322008932 6.415084704105456 4.614829991042587 -0.5228284285308479 0.4561224425628661 -0.208842225150821
P 6.005307201910728 7.872911817077761 7.817195096840119 -1.3566461825969283 -1.0187397209558777 0.2862144325833974
P 0.672394740809946 7.539613182280994 12.804998534145838 -1.0413096358365939 -1.917739825256562 -1.1534339020383748
P 4.25587176356469 7.634885332338331 4.810673717066471 1.2865453120147843 1.3825158512748383 -1.816745607529671
P 0.4946158828669299 2.8227603821295286 7.500556730437617 0.25297032581828693 -0.3074134352585157 0.3931928929181809
Ni 2.5224502539164915 6.762336068856778 13.52614388957641 0.4487189510099434 -0.4027180587997967 1.1544070645849216
Ni 3.1275006886369607 4.155563200288463 13.711573432266565 0.37046742629620716 0.05958840108659414 -1.0961049864099188
Ni 2.8521954193865975 0.5501899047300377 2.950458639294486 -0.06845330767639178 -0.03545628392508087 0.5164299812036718
Ni 0.4991840961902862 7.978545920998408 9.553204763281357 1.1519413766532485 -1.67241390335741 2.424201639503928
Ni 2.758863221087648 5.896072995207691 4.416077270050238 0.14565505096937498 0.09114329307473981 -1.132731379383701
Ni 9.049231411187552 4.937634232961771 3.1086271964337278 2.321363169479447 -1.2307004371310224 2.231672549690834
Ni 4.306012055166084 7.669804463989302 2.0775055300863072 -0.5610568758844272 -0.6316966496891766 0.603687051850128
Ni 6.416856775423214 7.628739042873056 4.349161991753482 -0.01219088563923707 0.9332294577971991 0.4093669315748821
Ni 2.9268742353933614 0.12160233183187076 0.6900016683555398 -0.8801482617015034 -0.03630474796830522 -1.148459331641919
Ni 1.3478560976687275 2.337110247461338 3.80670298131444 -0.21200699603204776 -3.3358824245960736 -1.6981668439517978
Ni 4.5320817218562235 1.0249380701175612 9.348718925241506 -0.8420949064732078 2.176023335757646 -1.4241978043946568
Ni 6.802552761078729 4.333777614708001 4.234524832869512 -0.5999000740038701 0.8277823465052776 0.7935367950588463
Ni 6.709864104468861 0.5261792710435368 8.012725446041493 -1.7816729321962541 -0.9717358414025136 1.265148077285931
Ni 5.98551596329872 6.036663537543892 6.147596134704633 0.9825825543090303 1.4855921483417383 0.23276608295627008
Ni 3.3797037439184523 2.984914234395496 8.325992213594683 0.22877367396742537 1.555156943914754 0.8346618472339303
Ni 9.190605395580025 9.379760018713931 11.621523502588765 1.1881124272571668 -0.6664494797893297 2.5013020813323568
Ni 6.424262168193211 6.030050913521313 0.14304159676939396 0.5922389579141865 0.30940372621566714 0.3591088067502783
Ni 4.012100037079265 4.319964785120638 10.80224363558812 -1.650250222776177 0.5704005218828564 1.2800311650453504
Ni 1.1308519747725894 8.122447438691472 3.9512219259613746 -1.3869155230044308 0.5992688681777745 1.566980161801927
Ni 0.4416953046348856 -0.11019951923665787 0.3864337269251719 1.2382476533506612 1.2776387535537739 1.5233567686850216
Ni 6.396795062767968 0.5011688160661747 12.633848155600349 0.3428020991704548 -1.1979795498592336 -1.0265149940259226
Ni 7.574606927461134 8.858453943794228 10.273776527206445 -2.089948201234433 -0.27907962131082903 -1.4194716025635812
Ni 1.5470369137846822 2.7247928183309718 9.882374471907749 0.5055542148314325 -0.06545591561096469 -1.27911071011361
Ni 2.539219644597166 0.017907247000497915 5.332808002159947 1.4078964961314722 -0.6738259747590589 -0.06528365169915855
P 8.889418558399255 1.116927224891473 3.7150393280615264 -0.9219968223061734 -1.510716711323508 0.5271777066384792
P 1.5636104439512888 0.5660247609578738 10.187327426973312 0.6044416706279655 -0.44927713750625853 -0.3239474283577969
P 6.408164299275055 8.142891545683707 1.1487060596335545 -2.1518817055144357 -1.1642726445250915 2.184944035286043
P 3.730816358804257 1.0992624718607735 12.455722344746698 -0.4299468126087628 -1.8093328600053677 0.34666775277344813
P 1.5779735483162718 8.548378769951231 7.109031562815793 -0.737191326389582 -1.033412235366388 -0.3493036477343985
P 6.809286632086208 4.004489457104054 6.545304898556316 -0.8700772506187467 -0.47222037656599314 -0.46461479630459335
P 1.6971313543987514 4.082180794351006 4.5242445032861625 0.5173964588819993 2.6998269837175695 1.880384781646871
P 8.102105925301842 6.202174998622453 10.298675061890053 -0.864025387997712 2.014815938875969 0.14054626898789987
Ni 4.422175993390668 9.228565028544622 6.909802247905879 0.3251489048650658 -0.4025370531372422 1.1367829237452551
Ni 7.5924675410059015 2.539135704376851 8.01888199486703 1.2039645637980747 1.7764793038104567 0.08704341197375332
Ni 9.375003406229423 6.39139490859438 1.2156297319523426 0.9434539637386848 0.5809813827224962 -1.262524780730471
Ni 1.9900547432240838 5.932148636560778 11.146552429282849 0.3640265557668698 0.6000947065131794 -0.01904261845374785
Ni 5.2854731792552965 2.4448801636544384 12.091183957956094 -0.15889546091904894 1.41128366743615 -0.9017498991316792
Ni 6.303957179099761 7.28068558268317 11.508400998346922 0.5895464986836878 -1.1404071507614038 0.9491193895545784
Ni 8.255557974728505 3.080018504012203 5.216764378251147 2.4575231364741934 -1.8812221899465018 0.7345811424602446
Ni 7.158338048228726 6.205112906333471 2.618271746082333 -1.8037833909420484 0.934780604334403 0.2223088921786881
Ni 5.1975504618210815 2.4355627991994924 7.114205078394531 2.01649744034345 -1.5063262955652963 -0.3300152318184316
Ni 8.103253108312813 3.1228373430639147 11.685967207731807 -0.07879814124582558 -1.6162823504711648 0.5988754893940976
Ni 5.755547739709513 4.202150022563195 2.172717989320309 0.49963862067794607 -1.5710360770388556 -2.46625460280992
Ni 1.1594196297530712 5.816180558850261 8.686120940811415 0.7733348661896746 0.10872423938129663 -0.73666347891057
Ni 7.228726586308288 0.9648088922987016 5.811901472952434 -0.07356286098881525 -0.15121866110008148 -0.7159265034735347
Ni 1.1520422170565119 2.262403451381136 12.528807229236595 -0.35300243674222426 -3.584705561015207 1.906454739261046
Ni 5.086600143947163 0.5253948963181504 1.625425887529362 0.4832115854701742 -1.1254572143197905 -0.697839821175153
Ni 2.9678277362158543 8.079432739125691 8.73926256162362 -0.4346781566461611 -0.15521466963335204 0.38582591103014846
Ni 4.008518587679166 2.58508831165365 1.7416336612023327 0.013098485055170991 0.5576067125522978 0.4784367897893503
Ni 1.9587077342820665 4.363119385053609 6.692785067642135 -1.3248845739146151 0.00968791671172525 -0.32949946852427775
Ni 2.276337527953398 8.47760783753468 11.665314182857896 1.349960028826004 0.6163618191043192 -0.19688736678178995
Ni 4.642901466054097 8.134283009755864 13.30859508791734 0.1701275821894425 -0.26686173908839844 -1.1362321934481077
Ni 2.1622720952366845 1.088751290939127 8.040736297560553 -1.0612092029739981 -0.5464874627106846 0.24459598571166263
Ni 7.871718000611063 8.059081899044918 13.454042038333311 1.2430093364053625 -1.2324662707821934 -2.411764699292156
Ni 8.90826780120551 -0.13315810216187957 8.098573907364818 0.5565559026902802 2.578126386681263 -2.053561177964966
Ni 7.9680627201502 7.075134636514433 8.060966823325542 0.5680867861480152 0.7216104412321894 1.034026214801303
P 3.994248750225644 6.899569002380385 11.345945893956934 0.03494386306503659 -0.5253455385257468 0.43767323471874303
P 8.34701550810709 1.5571377202959005 13.132734730343074 0.1932034901722995 -0.376941464056325 0.08636309807727707
P 7.887731929308903 4.75329218245925 1.4004241269754494 0.22105445094629672 -2.3325690654975957 -2.503681380197811
P 6.334026431354764 1.6472988436051785 10.299520992777005 1.6182456448451226 -0.25519587271469596 -0.4753779483583684
P 1.6046385583029505 7.781444957008031 2.08124553323589 1.0999081622060927 0.42728649216778025 -2.7158912362692837
P 3.926499665740427 5.5086422449990025 1.7059777209508205 -0.3446769475956645 -0.10936058741371488 0.10466601015152296
P 1.5494618534826663 3.8741116415728243 11.567493980779448 0.7919193140600813 4.465887406187548 -0.48340441820727065
P 3.3498396788686637 5.1900144953750385 8.130434816988984 -0.43760201516117536 0.7580743404861783 1.4190566265133497
