# total energy = -381166.7174995608 ev
CRYSTAL
PRIMVEC
9.29531732025708 0.00000000000000 0.00000000000000

0.00000000000000 9.29531732025708 0.00000000000000

0.00000000000000 0.00000000000000 13.60463648327027

PRIMCOORD
 96 1
Ni 8.9517995420772 3.572497179158124 7.479448240115549 0.3365206370371172 -0.8276926150049486 2.0566179625134193
Ni 6.797526102782349 1.0030298025707283 5.572309401550475 -0.09496240971051387 0.34978881490093305 -0.3140070293156334
Ni 9.489868278596695 8.595937615032451 0.45560532920109875 -1.4803800080131795 0.5623054035795477 1.402771516200081
Ni 0.4847006018435282 3.8752177772687277 5.27722490659177 -0.15431221242374069 2.169523844076231 1.3097975976745055
Ni 4.71121072817834 9.109197149710905 10.039895440806898 -0.625758944048503 -0.07792036662656258 -0.21487660427035896
Ni 8.2769966882547 5.731269552020253 6.534620137210426 -0.5153519176481447 -0.44914189747997485 -0.03572624975701589
Ni 3.8023146037807964 -0.008960685865404303 7.759812670617352 0.05239034067625816 0.22385669628178223 -0.009518995234028767
Ni 1.096308311553438 7.5214082318842435 10.649600399068003 0.4860074030477566 -0.9305781362172812 0.9916711468738597
Ni 6.344676835157074 5.377657091759142 12.7354630917201 0.42625856512389815 -0.144861351423486 1.2401484699177996
Ni 8.529206532223595 7.98016002598725 7.283432307278101 0.6912207731967386 1.0224518797001423 -0.11708161020705642
Ni 3.198778947603581 2.1921425619251997 12.675535251634157 0.34153223131909566 -1.3228166356419928 1.3941143547457153
Ni 2.319925288680089 0.8371669494830574 10.052928405176072 0.4747362010093114 -0.5932933673206298 0.11162470085754324
Ni 1.4500044296701382 4.280335590621338 12.689425244257261 -0.9599727873293145 -0.400531078450807 -0.8142493450158492
Ni 0.643169030028783 5.477665410458192 1.7264016187535238 -1.3604948669190569 0.817179888399083 0.4248169475813652
Ni 7.640453360388634 2.4733073192454795 3.6875499688874207 2.2276842544670474 0.1280062275393602 1.2465003802777566
Ni 4.670515829092511 0.006720514399053227 13.227434490746116 1.316330770807333 1.4047196410653873 0.3331116113555682
Ni 1.0629102365385028 4.505960827147229 9.656067622170184 0.173775720464991 -0.051006058734221836 -0.3923251456012469
Ni 1.0336764636684854 2.7492945848364743 3.5506336633655753 -2.0733378463712615 -0.9581627307037691 -0.796759415761202
Ni 0.04090311419307582 8.656747580729002 4.946278148005142 -1.4544663734712113 -0.6734549645728853 0.831318127572678
Ni 5.239751764477878 6.108501413509571 10.875954388469255 -0.8225802334790479 0.17143833058106603 -0.5323993600487347
Ni 7.005843458518425 7.417560947145346 5.047823912183589 0.7137217825127321 -0.46329273505906016 1.5201338908723496
Ni 5.681297926281234 2.365416571486405 7.277582764108912 0.28262157302581653 -0.8536473871974976 -0.920762178568124
Ni 0.360967844830918 1.4573849115966229 8.864359421882936 0.24322378795448435 0.8085672070294074 -0.286831497342106
Ni 2.5377238680496825 7.019702776594481 4.385876482170065 -0.9974093349092177 -0.07143681578474795 0.5400607332487344
P 0.9019051162654171 8.685321386071587 8.997113284323321 0.27922437441880943 0.3464726060435065 -2.31422964375846
Ni 5.02674956882877 3.7796433249159405 11.597476436511785 -1.3435245576133057 -0.4669336742457571 0.43741483885103377
P 6.606730420133711 7.59632848922362 0.407747458613318 -0.3408645158281097 -0.1885441370234172 -0.5752457657902996
Ni 7.419847595198137 3.6484771026683056 5.816567101579688 -0.6753642657804563 -0.9154649347249265 -0.3074386320694963
P 7.274933598681899 9.13032540590599 3.87264111531656 -0.32747678166729405 0.6569363980925719 0.1841832889515602
P 3.826649744440162 4.269497250663805 2.330678111718574 0.20780529924587438 0.9692485562042856 -0.8219220310697586
P 2.1032700333368903 2.700475578441139 8.27423133136159 -0.25421345419676866 0.8819801727039197 1.3671535098861551
Ni 5.483642299474225 3.129751921424647 0.37961703990535844 -0.31789993661213634 -0.7036713402552655 -0.8710002766536483
Ni 3.311466079083141 2.6367747690680936 3.739016281646311 0.8699132142370567 -0.10842470586300682 -0.05947321566496855
Ni 3.4975118545977337 4.46239367501948 13.570461443679921 1.7965539630731444 1.1974637865650797 0.34761880383280774
Ni 7.591903918194645 0.8344378443273699 13.238413189994693 -0.18030889359781851 -1.9710727323517476 -2.0588702488827058
Ni 2.4953744024866307 9.017712636964733 0.47455290396047645 -0.01709937868444797 -0.4343868506579874 0.8377016625015186
Ni 2.1018664404264378 4.88006016671057 3.581406740778446 -0.07010704122973087 -0.1862013478228535 -0.4139324394583775
Ni 7.781361075153845 1.0619900001270142 7.652784528302582 0.8527289891482863 0.15954415024664134 -0.7245936922302295
Ni -0.21610497255976302 0.4490716506795296 2.8874480970893215 0.3135547722695632 2.341308759363439 -0.30662899168400737
Ni 4.800938425957125 7.994855922619205 1.65252801414075 0.7069939768705954 0.3877290415901323 0.07327849697917703
Ni 1.080329661135772 0.1936865263251343 12.019655804746085 -2.679747696469191 1.9040443300473402 0.49560198871472716
Ni 6.843984098586594 0.03582322329531291 1.7806156273026772 -1.4220769013969123 1.5335244532466428 -1.2598996844027979
Ni 2.747742266849418 6.44869143560715 1.8411839147497462 0.9794926025297969 -0.1221597960609122 -0.327454670180107
Ni 4.705010751547403 6.128384097188098 3.6923937587260744 -0.4886260716175262 -1.583435222034157 0.7457055345081803
Ni 3.042840704784055 8.661934367775574 2.7372664442661083 0.2149791912864943 1.0978803331427867 1.21582017758508
Ni 1.841699804859217 3.5767079578894814 1.386910604515984 0.15275875189369173 -0.6555719136448773 -0.22820263195530377
Ni 4.659435810885497 4.30692949338163 7.481162296623413 -0.8857013303092488 1.2141548740675152 -0.6144409479325226
Ni 4.083553723639378 2.1604083487047743 9.102304671942028 -0.3549631600130209 0.6608519310968942 -0.12247629886006649
Ni 7.114198972141887 2.840323627035545 12.174762116668356 -0.928530252549317 -0.24270339667464008 -0.38824197667080873
Ni 8.297715950489126 6.229349833567787 0.3014239013489606 -0.3258641857645356 1.993967891782366 0.5282498566567354
Ni 7.231812621783962 8.362615855792292 9.317067400685437 -0.46888437021422474 -0.23391870850347457 0.6118076240747333
Ni 8.840841339613164 6.509064521391176 9.174953153736274 -0.11252844361873524 -0.4378596396979363 -0.09598827987186695
Ni 1.5606744772982541 9.163240124421963 6.687821838620433 0.22845562850637427 -0.5421880640043824 1.0710246464025233
Ni 5.9690251776066745 3.6853888076180157 2.4668061743344176 -0.1791657811323108 0.052256900422187426 0.7225555787542782
Ni 0.9472393082095699 7.898454187027807 2.826594443401518 2.3449610114040453 -0.9956257606462339 -1.2314342299732532
Ni 8.228261339714955 0.9349694893897217 10.66734144164343 -0.6933339628849995 -1.2351091077216794 0.552294556310765
P 8.008761717281699 4.511221976732102 9.350357650019836 -0.34926996628298557 0.4897784400544145 -0.9219536277730638
Ni 4.857453955066728 6.844225776836075 6.8594440702996025 -0.8996976445883408 -1.102384134550411 -1.489535963480835
P 4.725209476013713 7.060648649247081 9.062592287893516 -0.8286950881275341 0.8906255070837436 -0.26833472408949915
Ni 1.4652394547047831 5.233979372442177 7.43183204777725 -0.3210366824689052 -1.6940967876474822 -0.20094328201871844
P 0.842007021194796 6.721685609031486 6.126168093546694 0.4362670983998358 1.4864979479854592 -0.016467144417087767
P 3.5610453482595994 8.154967762900936 5.795928708605667 -0.4597533544472341 2.1092078207949934 1.063810130931955
P 6.008335074416628 5.41466174988173 5.566282317821089 -0.5716469926954478 0.10508664262870934 1.8811473708445086
Ni 2.598784807313003 2.2965382703840755 6.245440027792907 -1.0026299598782087 -0.4212469708419197 0.3033104688337357
Ni 9.382786223441656 1.6598462174414061 5.872128001603838 -0.49093697913888995 -0.13061409747585248 -0.31774952707720117
Ni 2.6607845736223874 5.691318278317444 10.944413470761907 0.6940381880408757 0.3749946247425993 0.9000043771954821
Ni 2.0240925206797185 1.362293815742799 2.0798086525025745 0.5466070190076845 -0.6820393638077866 -1.1068881930683518
Ni 5.113474879123607 3.5433842454128484 5.082842161001781 -0.09738516021939357 -0.6762908913597836 -0.1873794272913547
Ni 5.014851562700432 8.283131597664624 4.199220933841396 -0.1299337835793762 1.5516191059648246 -0.3036136018964513
Ni 1.3061315086901302 6.9017916767991965 13.065417110420393 1.2709382016051465 -0.5419350674533118 0.2796879443187893
Ni 2.9503522977708054 8.528509383427012 11.957617927635821 1.6890427701633428 -1.4173003059438753 -2.6013017963564615
Ni 2.6093535830691903 7.106046978880519 7.920700669892612 0.5401201257317602 0.9539085834131055 0.6975114913014568
Ni 4.282631533991415 1.0230054394221326 5.490586831019913 0.7103397534143766 -0.5962995011368052 -0.23505976408645327
Ni 5.85074226511988 3.9409542611277937 9.485927993598413 0.9149098335524048 -0.49535310592871457 -0.12891048452118445
Ni 6.451898320071429 5.950295113271831 8.250518047428775 1.2589728017131545 -0.15161563942818404 0.8053885521911097
Ni 5.714872612324637 1.5641602212811656 3.360018309872318 -2.487346390483213 -1.537745690416842 0.4558342218984859
Ni 8.433604193918944 4.021972246607943 13.68055053397755 0.3553958766750654 -0.6709735929119284 0.14069822118473188
Ni 2.874232944501308 4.4084901300677375 5.67975862173838 0.5241075523535877 1.109455696685212 0.14393086918941664
Ni 5.600754001982761 5.8580204985562 1.6204350016730165 0.4773175885832425 -0.6956225018088601 -1.7042500740314004
Ni 3.839291375951521 6.9520421620568476 13.387887469172307 0.6347997140945326 -1.104429447115214 -0.9629588665408321
Ni 7.057460355417376 5.369282010882866 3.7980471236139843 1.454153727326799 -0.5124306302362917 -1.6527310802165018
Ni 1.8457432678793944 0.6768961592757052 4.4316010774403045 1.0543659547999198 0.11907678626021427 -0.2209266671191808
Ni 9.048387184014354 5.686298806982051 11.814075919951257 -0.7943983717281932 0.18535288377962916 -1.7522309727860532
Ni 6.112544876529748 8.656887010488317 7.32753858780854 0.2745786481166819 0.9851665129861227 -0.1674001559559504
Ni 8.794160256194013 3.140646033285906 10.721092543391652 1.0464960651335395 0.24899000101430024 0.48216591781447926
Ni 6.2739766518663425 1.3267764083862537 9.182884847977924 -0.19882289324160599 0.26339126404129476 2.0725058373882694
Ni 6.144409224192202 8.323278073030476 11.652017640229468 1.2699344429309805 -0.5476783976949922 1.3312632237474493
Ni 8.138793910820228 7.642265947259748 2.442046237675001 -1.4851992837786938 -2.7229759110302076 -0.3484438708372644
P 4.693242879861094 1.2721943052725047 1.4558725634739036 -0.47264229459476026 -0.27915726862629986 -0.0022998517777702327
Ni 8.193422490520415 2.0219731883381082 1.324618035712035 0.9070229746051606 1.2526604863418813 0.9794041565810488
P 8.517355002681695 4.01042746253654 2.559617128857553 0.4054470276951856 0.6022973705914532 -0.8359476559248893
Ni 2.743122494157399 3.242234555923876 10.818719401801578 -0.49313038724578295 0.6782027636705159 -1.4966604903407579
P 0.8332554799683664 2.1861470822745925 13.031500356700802 -0.473675620955281 0.03934122080178386 0.6723789578998871
P 5.26202334469936 1.5161499074898657 11.583341047512283 0.1233468743904779 -0.02892002546845987 -0.3399923976358015
P 8.271874968429142 8.01350232909846 11.210696425104475 0.5133955652527222 -0.28639312425310676 -0.04330894720028026
Ni 9.247158248895895 6.3494081516565455 4.237476741670917 0.3464651498443388 -1.3642466206520052 -0.34084034745839364
