# total energy = -340865.24139913166 ev
CRYSTAL
PRIMVEC
9.26606468724213 0.00000000000000 0.00000000000000

0.00000000000000 9.26606468724213 0.00000000000000

0.00000000000000 0.00000000000000 13.56182229795340

PRIMCOORD
 96 1
Ni 8.27116751245754 0.5516635133313028 1.445161426920351 1.82722028180875 -0.2679341462169708 2.162802209081682
Ni 0.033458833750527016 5.943782193113021 11.770902775911193 -1.8472756577977283 -0.4821263228257955 -0.08193283022006534
Ni 3.1962920232931653 5.267581840907627 1.7084779730276514 -0.5672594051507134 1.762066470819236 -0.5728669811454778
Ni 4.955500775046553 7.344551756306316 10.30724257702276 1.6914945741379448 -1.1673911355494153 0.3478036661501042
Ni 5.559564811998727 5.843717958248599 0.29522887362587347 0.1410005829164991 1.4559483573333762 -0.7848158702460807
Ni 3.910372048813289 1.3409941785178265 9.866551310157174 -0.1067213500186549 0.6965820375086519 0.19046655085711067
Ni 0.8437521175622736 5.014368085361737 7.379082673765874 -0.7900642631292135 -0.07299747540364847 1.3262673131947544
Ni 6.9859087143184055 4.413806620942089 3.3164080226030554 2.1406321007425455 -2.7362967965088294 -0.2279043839885946
Ni 2.585009721783219 2.7583314657538653 2.6279829509739523 1.1312784489872583 1.1673903642184669 0.7610298235700764
Ni 8.124930476192116 1.1646053670649943 6.334836076911172 -0.6669973818729997 0.012380633052539967 -0.7590444177089315
Ni 3.3598380687934015 4.777573796820178 3.969667451326893 0.2518801780779017 -1.8690888970180777 1.1146264422528738
Ni 0.1743715891239144 6.3154718544813475 4.7583013084328725 -1.5724398993649178 1.2104380873375604 0.7833860797780895
Ni 0.33069937006637784 2.161810005630994 3.197511437434119 -0.4582906538587785 -1.2636858909181077 -0.7699358678104546
Ni 8.665901877234313 3.432215301734044 11.571571187763825 -0.27887650416108745 0.21541396483106773 -0.4206707866234755
Ni 6.539858882120652 7.931278985828976 3.933159155617492 0.1582413722748178 -2.567358863752114 -0.7838424505892178
Ni 7.715055361367332 8.054369391972044 11.490918432260221 -0.28861661426698676 0.2508072567286971 -1.2991136355980981
Ni 1.9937513865240373 2.626429031890077 9.703185952922507 -1.6504129736062865 -0.6151649705827406 0.14020585492934565
Ni 1.5972101390915956 0.06394511388085711 8.396327957499459 0.6964362559594071 1.1312591657135487 0.283718405634421
Ni 6.783649049662363 7.727221704582166 1.1687862155482638 0.15003004010861906 0.6530869424394946 2.5118428329626807
Ni 5.520869724972723 3.3679736737763597 11.714268587237118 -0.5989359103183879 1.2175543866673675 -1.3152347095296768
Ni 8.195185780270462 5.112634703635392 1.0801081212340227 0.0899515867594838 2.440900697426164 0.34638467431539055
Ni 0.07148398428419943 8.056083613978704 13.441556672013522 -1.2202627867374665 0.294389512195022 -0.7631725809446921
Ni 3.2714398096391664 2.2293503526933858 4.98584157795794 -0.3175736636209692 -0.14490685994944075 0.7989209421888951
Ni 4.093997656953696 6.805702284126418 7.993894419396559 -1.2643129829791453 -0.6613646090672546 -0.3272451252724622
P 0.26758171578116785 0.23968993382307946 11.177952457201116 0.512209515364421 -1.063879807827626 1.7124958589799606
P 0.3805044689085177 1.635599445975872 7.945234606176166 -1.0410124163111492 1.209389334358072 -0.5173568638933155
P 7.969798017621865 4.502946165288393 6.325153039089769 -0.03328524441569106 1.056392498311645 -1.009614618726158
P 1.8168807396963602 7.07247229262227 3.737218020617348 1.5620703832051357 -0.12112955502418493 -1.0707567374531173
P 3.248858409475763 0.10616964502760073 6.5051583956734085 -2.087411807965825 -0.6128198673893317 -0.5522719306029457
P 3.343214748361253 2.744182184650247 11.41758957445426 0.11033040752615193 0.7780453842914665 1.8613038537560203
P 7.569643004878086 6.6423508259891 13.175717903040207 0.38095778430456967 -0.6251899589189104 -1.814012524869224
P 0.6453647414283019 3.9107982877987286 0.45107852561945233 0.7565941563962261 0.02109641565898302 -0.4808022046977332
Ni 6.953366294386574 0.3135117462817667 13.370980762089607 -0.964658622840758 0.7289689384797897 -1.7353887044177336
Ni 0.9491044956656184 4.929750380687054 2.508584145087389 0.15921299215946774 0.7561951211855944 -1.10550493956758
Ni 8.01130998837773 3.226953432050122 7.955622791536523 2.6243851605384863 -1.5041282594727128 -4.515628482166417
Ni 7.06216842845251 3.4149711549535375 9.655814122723333 -4.044943568408343 -1.3318679472109836 4.909967058653267
Ni 2.24173908146584 5.9392603534414 5.706963812802719 1.558879901292296 0.11885592849865981 0.7932490886150985
Ni 6.857064081871902 5.460371587234987 11.388635901458532 -0.16337946483233154 0.5196407748314857 -0.04314619637017085
Ni 5.227431981692186 7.933132198809149 12.649152453099383 0.30383985897464444 0.2581446709303748 -0.3072465706633483
Ni 6.086748308468439 8.015859626244055 7.063648219017177 0.9422936248819964 -0.524745700158219 -0.9464169030217506
Ni 3.7131901877229194 5.2173412370151455 11.030454309502684 -0.31957758142487547 0.48354248644703174 1.084502369173984
Ni 2.8687551611774524 2.1921100378568164 7.431702803124896 -1.81938690180726 0.12710685565354238 0.5313308095749043
Ni 1.809032382725329 7.2473229373015595 11.752268719395557 2.079175793209277 -0.46462045273154823 1.1458288359976072
Ni 5.383898753608163 5.687167791748514 2.615627580035141 -0.25465696949209043 1.0909380974969987 0.25933483458373396
Ni 8.65342048781285 6.774438581150905 7.337149097057017 -1.867843454646751 -1.0154636213077672 0.9252181574569484
Ni 6.148877273628728 5.518608805136912 7.979464376526444 0.9155981178686812 0.08708660650686291 -0.2525579208712167
Ni 4.000132419507951 6.974103747634706 4.1614592424644306 -0.08568792638712339 0.7477716730085896 0.7969928719282467
Ni 1.11110310832741 8.072345557879718 6.563908953570842 1.0593986321278206 0.5881326490552968 -2.1738916341266235
Ni 0.4723404381409731 7.571561080312565 9.922059671945796 -2.4820033810037447 0.35640632021745067 -0.21295110511287196
Ni 3.881517522712001 4.042330079066482 13.41802642680427 0.649524679009533 1.3058725515884864 -1.24162479735301
Ni 6.295735136242509 3.8816287154908116 0.6762290770065874 -0.14760369005531354 -2.462638603323888 0.3373323343051352
Ni 8.342581074648493 5.1675824684975105 9.385988166023175 -0.14280806843888308 2.7631200873492605 -0.22952829274526276
Ni 5.914723813583914 0.8976889547437085 11.181668149226361 0.17636919222378014 -0.4257011499585314 -0.3797964170066169
Ni 8.313374438080972 0.18742840117572077 3.9191766636820895 0.06588966071427362 0.49293241230236406 0.5708419802956491
Ni 4.976859054643042 1.8793618153228808 13.376242960346806 1.2324004505412647 0.3567019970809986 -0.28360244888184705
Ni 8.35780521928061 1.4073392032080072 9.842845009714807 0.004466006191153599 0.4230305451049037 0.0938195543553223
P 0.9369010881911816 4.49539432239419 9.728478603675901 0.894769096938472 -0.24546399013891274 1.375645092296934
P 4.848820569842915 7.846235042168853 2.33748903651242 -0.03019683529835444 -0.11034249171100996 0.43742538037399503
P 4.482811006258817 5.553134162957528 6.186415029148615 -0.12399607793870258 -0.2025237391319609 -0.033031476533672145
P 6.184199513030818 1.3505289593008147 8.871154480853335 0.03918464061926155 0.012379090390643197 0.35149037097307206
P 8.032473680611304 6.279482458406395 3.1238434416527867 -0.8066131686268302 0.02890279907727926 -0.6755411576779526
P 4.4988690967320135 3.6246992679196763 1.9751571740874752 0.20032544592906146 0.05470896150710579 -0.7124879101056311
P 3.6923878720204817 6.307326983433489 13.038498601136304 -2.262117753554569 -0.006374793178092247 -0.19868071123678685
P 7.083684231152315 2.4326756148130273 12.764550172161751 1.4465118945108248 -1.0711051219314716 0.43416213624169103
Ni 4.8344118389220725 3.4737828688793164 7.9426984842128 0.2165506495386722 -0.15221624912666043 1.2957282640656331
Ni 2.7741208403449367 2.1626902817965754 0.18275459803972538 -2.1627232762146305 -0.9997624085224266 -0.3183691629390711
Ni 8.292701847287146 2.8661606630052106 1.5258808980912406 -0.48838515925131376 -0.2866720889461063 -0.5605819931305378
Ni 5.170529077135986 2.6773645906501224 3.704357774659417 -1.9284019329560982 0.5357747042788709 -0.13123116223456108
Ni 4.678908737755786 8.924610409266414 8.704601597292768 1.0117792304776445 0.21664500902469142 -1.0959586906400416
Ni 5.952853670650966 0.7602732122639069 2.583771775512463 1.2826578040349201 -0.7352259751330951 -0.4950067783328895
Ni 4.498368729227367 0.10784216974220655 0.9007680681102653 -1.2381095851108999 -1.5257499515075466 -0.17209884698320038
Ni 0.20458544694615913 1.6549562555537753 13.124698023089563 -0.36861546068913287 0.12799851422987632 0.031425565499132974
Ni 6.370113839201738 5.590948973817952 5.205867995454898 0.15898544952969393 1.4297063929177118 0.3859272124947031
Ni 8.093898424839125 8.97179321174161 8.220919495713138 0.29672330253452117 0.28686595012446725 -0.09156341133129393
Ni 0.8647601399055109 1.8547233487514856 5.3428287741480665 0.6748402749561861 0.020451840096448647 1.723228414906116
Ni 5.877446434487742 0.4414205061732826 5.036440778562083 -0.2259151214727077 1.432059980751553 0.042439143000817234
Ni 2.022578114430623 9.245253319095886 12.907261470732397 0.5199454505560981 0.8991294307896966 0.31605079921853957
Ni 0.14793365274877146 7.80025682813077 2.1806599614588196 -0.26669924536860523 -0.9558790768759151 1.1220744138904868
Ni 2.7837482817769335 8.190839995831956 9.890678289946043 0.8597529858746032 -0.3791065900284439 0.4537192324380121
Ni 1.4167535251472845 6.157652237089845 0.32001189080972225 0.3832568647513916 -0.775893113835154 -0.14883859090367915
Ni 2.887000042967252 4.651397791065123 8.863139334714088 0.1948186571782193 0.6750356787964439 -0.9639055467248174
Ni 0.2718885827470891 4.091421690911256 4.414834227539594 -0.524096239499678 -1.2903682853053002 2.6203032771596293
Ni 4.865286367171749 1.23164534662274 6.905476491159442 2.6453738469750117 0.8613532404821875 0.9118337657302426
Ni 1.549981006291896 9.209717960201075 3.992302594666722 -1.5252064202992508 0.27217081000613774 0.03917769864072608
Ni 5.864362750847722 3.2888970759123928 5.8981319977724285 0.9159560154287322 0.15827376817465 -0.5234418937451307
Ni 1.7140274192967784 4.310184217155736 12.038287124509974 0.15567258310637705 -0.9675727111637595 0.006272977492905326
Ni 2.464198767605764 8.066980506302118 1.5934731351170774 0.0006672012703536896 0.12981602705458936 0.35435817943917036
Ni 3.637449373223264 0.12223792817218766 3.4207531794516766 1.9173431040387756 1.1161691041496455 -0.1233116502771683
P 1.7276948650255517 1.0886977633971229 1.8115879634249872 -0.7994508465504361 -2.3737532530453893 -0.7392150416878301
P 7.092079285952496 2.0958448896017483 3.9841920080589963 2.6375011290951544 -0.3814388377060463 0.6242468782793507
P 8.272260908115841 8.059456461602617 5.69774222501338 -1.5201840273839946 1.7525096803687368 -0.32071272347058316
P 5.36047414153878 4.640556495131113 9.909081621445647 -0.5069004444466819 0.8176421727474821 -1.5852213674003024
P 1.8838465907348985 3.721316526640977 6.138867143716325 1.093014263299737 -1.068201060910799 -1.7899464850589561
P 3.7196949652833258 9.090491503121669 11.548420851215507 1.2115899415538165 0.4782023051810409 0.49772340593310416
P 7.242967886798152 7.276575904193584 9.204097165232211 -0.6606012485386688 -0.754928595768345 0.4801702275406891
P 1.8132855065148252 7.06807091179436 8.363982904750017 0.3915304176140934 -1.8003052025854607 -1.6360515626782919
