# total energy = -340870.03629544954 ev
CRYSTAL
PRIMVEC
9.21343111215188 0.00000000000000 0.00000000000000
0.00000000000000 9.21343111215188 0.00000000000000
0.00000000000000 0.00000000000000 13.48478774052333
PRIMCOORD
 96 1
Ni 3.070431101020512 3.1671905514817715 12.47387326784178 -0.1209295231982369 -0.9657559696699949 -1.3574460527904042
Ni 7.384362105959737 5.008596048400238 5.448460898532241 0.3554848368444459 -0.48641980799482676 -1.1133300920389535
Ni 6.60071374764871 5.228336373433664 12.750392281640448 -1.6586782989388722 2.3955580076253065 -0.14846346695244755
Ni 7.315233734524693 3.787632196264828 9.903861369668144 -0.014448571325162213 0.4877670660513407 0.05627193511885147
Ni 3.3780214889132125 5.504914353189571 12.792329976042424 1.4750596242415306 -0.24513591737553267 0.33223512228788593
Ni 5.903607145020659 1.7818498801043763 0.19028406536196357 0.07191889762748906 -1.1868021930861754 0.7364961000947703
Ni 7.10992164215384 6.693714118335812 1.1512679333619154 0.23396010326437125 -0.0670523135638071 0.9247455886959042
Ni 3.0361202846505133 8.882254048222178 2.1148592022836477 0.3762578077257391 -0.059598428388923166 0.5789800360217512
Ni 6.641566099900206 7.472451718020306 4.864907066719262 1.1238644159113742 -1.0877211332215977 1.0087653833519854
Ni 5.595519231863731 8.925594026794808 10.446543501024907 -0.8179103388072042 1.1360758703759015 0.370833037165742
Ni 5.028183802321458 4.6149061495038755 5.16546944958322 1.3906140549019406 0.05821131823340942 0.33597787715976973
Ni 1.9037619967015371 6.342461281791817 10.212285573049964 1.1255759992858423 0.6292268479924454 -1.970925665250922
Ni 3.750962741605162 2.7532587450760397 7.781154167012862 -0.3677266303262764 0.34069019503377457 1.1255209776781907
Ni 3.0268976404006827 1.5175441901993918 10.158332643516914 0.18243133925746 -1.0167933958627844 0.10667866970617756
Ni 7.43029105859251 2.8207747661177565 3.8885948138657205 -0.8271745377179496 0.8796098726995303 1.5882853510376065
Ni 5.973942475892993 3.082279573053761 11.984605080315156 -0.637149959494264 2.175306512196279 -2.1340595897313506
Ni 2.826247544024249 3.8774723601810095 10.044898725959408 0.8335439315794032 0.6840026581817445 0.12384772528629638
Ni 5.545398168208308 4.0929007995911375 1.1039560447632093 -0.34939286501409506 0.6644771865543073 0.2930394259250308
Ni 9.057511929261414 6.685016639642666 4.748370987004994 0.0021478995809382363 -0.42437651760983686 -0.3994941525458604
Ni 0.5054847471111676 4.25133495595486 9.7896046927385 -0.8640621547729183 -0.08567455665068471 -1.2167815130570852
Ni 1.6264008753260133 4.889899419158913 3.5369384290518515 -0.8090698576974389 0.3298465674510513 -0.5379699121579767
Ni 6.173293478523945 6.318082543844711 7.127815967490524 1.2081711456802549 0.12017181909660593 0.7088744817227598
Ni 3.6878415270641143 1.1536228862792548 0.47361364722204286 -0.3117344312313728 0.3603300807518891 -1.2722492071070863
Ni 3.934494283519872 6.252114379180589 8.98196087520244 0.23347750720099789 -0.8410299555438032 -1.4312552254620707
P 8.862675507731778 1.1631864274693888 3.714465578101812 -0.737365132963285 -0.9393049745673178 -0.817433913391418
P 8.779441373712826 5.515675640386177 2.694961682911826 -0.17335277399495952 0.13550176458545696 0.25800043204302664
P 3.3321109631420778 8.353135929717164 9.577920591613218 0.1342403813745301 -0.3400147662333048 0.24198065957600257
P 6.765284048937894 7.61615359850443 11.871993000786704 0.044687315605045616 -2.042119511786928 -0.4400520193635647
P 0.9227250965240065 7.229088156366935 11.798407171521422 -1.3357865655390995 1.3937873104235996 0.5530576597290346
P 0.4318897044150672 4.516838391866316 5.307639136522142 -0.3072789665631805 0.18478081332624305 1.3501711163955457
P 7.153703865405783 0.5621657735097266 9.096823795879974 -1.0816936960805952 -0.2689646443640142 0.15893788412121015
P 1.6001518109226494 0.4588177986697922 0.7334213402011857 -1.420818860620095 -0.35722033147831384 0.8614288309151293
Ni 0.8503277998343776 7.332333862124778 2.5311754445853394 0.7264690548760714 -1.2540838490519692 -1.3536891568511331
Ni 3.8169861868541988 4.061105249834728 3.2796487667155443 0.04610270789533351 -0.4513304204908614 -0.45741622167362517
Ni 1.4173481300426414 8.496450846106887 4.324409439809687 0.8456484281524211 1.4813616552001585 1.0058968035549387
Ni 8.239948932105607 8.346880010191054 10.45042696211512 -0.2353986354831107 -0.20796984984819666 -0.03616976505233771
Ni 4.557018163668025 0.516694728388659 8.176555000012316 1.6583193729375572 0.3351741503115518 0.562074261405348
Ni 7.231327020055955 0.8750179517431647 6.337041020440992 -1.1948919120728452 1.9409466023903283 -0.06183117437418384
Ni 4.797608482644875 1.5213769774201007 5.85282916374784 1.2339693376902812 2.3869324707398247 1.2357670530206524
Ni 8.963341452860298 8.309197078141297 0.624120567709088 1.1384040042884458 0.5057794434683611 0.4270136981223678
Ni 2.4522098930648375 1.1868373043817917 6.3375394670483 1.0653409657541846 -1.5732888776287743 -0.2819646561681079
Ni 1.277469823348408 5.06217214861279 11.933793930691388 -0.43115908774930906 -0.8097172614734507 0.8304735201841956
Ni 0.7320549884107264 7.7595422223407065 8.564215629780717 0.9648388571723642 0.4330570761029703 0.43693789921461523
Ni 9.331270599186706 5.895609887069757 0.6707322355655493 -2.167493443909764 2.075608387572993 -0.9442291513418125
Ni 0.8671201988451079 2.766314176546579 6.75585133846539 -0.8406514891584618 1.9669692517063349 0.8253868496899076
Ni 7.823630847117751 1.730448149565111 11.054652968656717 0.5627052101211276 -0.6749724296586763 -0.22374588173553078
Ni 6.023925338086129 0.5098509919762972 3.9163327686894367 1.6905314388937274 -0.2662935252897543 0.042872630993810036
Ni 4.436091884168499 6.814078378555379 11.157084207130158 0.47425411916657034 1.904723615502552 1.3238736161515974
Ni 9.364346815826957 0.7343362338815136 5.863846584321213 -0.27076827323165625 0.7861009076060913 -0.6718855632032364
Ni 2.8903177419396555 8.564307764088907 11.81868777544023 0.9111817339685403 -0.7702199747097768 -1.3603146325874507
Ni 9.329612181639282 3.0290351563506936 2.2280102675150104 -1.3675273482858061 0.38022579123455164 -0.19689533720158994
Ni 5.689238250154716 4.283167359434545 8.259837043871524 -0.16302670947860312 -0.7232060678540835 0.33102181870607505
Ni 3.990843626408947 9.035224640110226 4.70499046933676 -2.3693569237499066 -1.6207660972741313 -1.5976002006806291
Ni 3.204965617839719 8.20132623011231 7.383096180565205 -2.5295898725334567 -1.0493828997630315 -0.37883379598303146
Ni 8.251253811720535 3.9753374223405507 12.189614050812063 2.118144204052675 -2.3877683363775586 0.6739511874830135
Ni 7.779820983573351 8.082039941298568 3.003938692142788 0.7966509152077959 1.214168243803954 -0.5961604044557798
P 4.713646487591221 4.810304590313472 10.864369824637835 0.27162522191531285 -2.1421691062123625 -0.20354163887351395
P 5.135354429608199 6.519073537161448 0.3796182260064871 -1.73878795990727 -0.7306319280045095 0.18810010750746314
P 4.479035685215912 1.3636983223835373 11.901511911787734 0.23039835405504192 -0.32356150577328796 -0.8133353178420122
P 3.237737791262943 1.8021010010445635 4.215614484669552 0.22531579732581195 0.9033421833194636 -0.5741548467189661
P 5.62833747244105 8.715629151860353 6.2162575491191605 -0.03171558593572603 0.6308939512822231 1.3814254464241371
P 0.7623865240099942 8.062562748547176 6.35249470795372 0.6898357199237539 -2.054147132375424 1.305295596039094
P 7.837948518610495 5.68100144300252 8.756130472397647 0.2363064920093608 0.4012165345536058 0.06424235491883776
P 3.0780137545845587 7.291380162134272 3.4594543972070464 -0.4543676646552885 -2.0749581555835035 1.6119510700856627
Ni 8.336524113950485 5.9768631334626185 11.10275352693353 -0.3636794568400963 1.2507355014050265 -0.8682006024213241
Ni 2.0580224689042472 7.312875096235026 0.15690380550468475 -0.5147978449168876 0.7643817707614449 0.6025467675980978
Ni 5.397154066330412 2.1483785849462937 9.817612601085212 0.44363870827355856 0.18314764859819424 -0.09822616806345018
Ni 7.312985657404854 1.3838849493079914 2.010392716942285 1.0237392310529982 -1.352927338984444 0.43895801496843756
Ni 1.121891830538579 2.5842659969937296 4.4187218030454165 0.15298192364809138 -0.12792832311357324 -0.5858790771344297
Ni 7.878506041075783 8.253741438041667 7.530121345545745 -0.33607712174179544 -0.8026456993386499 0.2719877474610542
Ni 1.3895512092616835 4.294435385326197 0.6221654776892936 2.007864961479432 -2.7484959096781827 0.6915413897609509
Ni 0.1350025591048124 5.984187810963732 7.113279016344287 -0.4857739468807118 0.2742734581714373 -0.4008442388158516
Ni 2.9837235035827945 3.595071492147487 5.696729690753655 -0.11730889572651411 -0.7245065318330619 -0.7667564416412086
Ni 7.438748988084362 0.11740490624050035 12.912479563323906 -1.6178831192993814 -0.8683589823760592 -1.2199635103294926
Ni -0.46874895574960473 1.7235380764508523 0.03384738079980272 3.202363751878917 0.31831902642742593 -0.22852427696078065
Ni 1.5553008296957014 1.0087877538043934 12.213090793881985 -0.8037353328584029 1.873734109099573 0.34543002371160514
Ni 4.45229830897914 7.0556453211990435 5.870790747129503 -0.5536137893428207 -1.6490112081627537 -1.57749905905538
Ni 2.4172264962450507 5.870899465613167 5.719518190541398 -1.06793135218918 1.3866632977843085 -0.9018026067464856
Ni 2.074431589192907 4.747164948910786 7.812627246690605 0.17262489468999948 -0.39719532920935463 0.9955920791948207
Ni 6.218144459750894 6.8112498552939424 9.626749010924732 1.21675528780484 -0.7457135049279803 -0.19876067254510285
Ni 5.1357229668409605 8.56392079999451 13.05073907022324 -0.6806576529689117 -0.12051994646464405 -0.6594745911333932
Ni 8.5988581296602 1.9591162890621583 8.583983966945988 0.9453982319492493 0.04807962911604623 -0.04512466025278035
Ni 0.7684425120873305 0.5021421144100302 10.121438381145266 0.5801108071920849 0.6542902187189764 -1.2921161212343426
Ni 8.131562131950753 3.9399486345647268 7.456075766082596 -0.9030979285191414 -0.3054457700091836 0.19758439284881454
Ni 2.380243784937538 2.1745815821955623 2.146629875776845 -0.6924854988417751 -0.20732553139597845 1.1242392827522896
Ni 4.932640524728307 2.096580676881811 2.579369979856507 -0.15077180337065 -0.0655243069550549 -0.29526368726985924
Ni 5.28084371567121 7.496065741209433 3.0274025364095642 -0.6685385011078744 -0.37759195315613037 -1.2839101883847823
Ni 3.1384630741880932 5.759158976640196 1.722074983636793 0.5952952282420071 1.3326673031838274 0.007602752047922389
P 6.003526802252838 4.819186337622999 3.112207560383156 0.17195692208869742 0.20476831219176345 1.0986858597632174
P 4.10108232615842 5.10878289512617 7.065974498490237 -0.7254254441029055 0.3076834010904508 0.02113318243418941
P 1.7337741980907742 1.6520418532953225 8.335931690348824 0.05093972427266066 0.058149611757538563 1.0951693619695266
P 5.498741354540833 0.05860663343973246 1.5959919469078658 -0.17281258522077336 0.4163140523166766 1.4882856360135015
P 3.419610915630231 3.641405835736296 1.0202345202539331 0.2251155083895478 0.05740013518602373 0.5585559638394445
P 6.497956353724273 2.9799552103778186 6.216891433159508 0.053558135732114216 0.9043500557586877 -0.19467698939403247
P 7.495245745866542 3.2045325865912253 0.6929706935333975 -0.0710380376844325 1.3493362791990762 0.3452243354587022
P 0.880681447667611 2.9363848960347134 11.480058260461362 0.03511535564589437 -0.6844970813196598 -0.03469755138218541
