# total energy = -340859.6692689544 ev
CRYSTAL
PRIMVEC
9.33599039574132 0.00000000000000 0.00000000000000

0.00000000000000 9.33599039574132 0.00000000000000

0.00000000000000 0.00000000000000 13.66416564053910

PRIMCOORD
 96 1
Ni 2.941070368569574 1.6024480603190818 11.74247820235144 0.7541469804073141 0.0512845092065891 -1.3323795967400796
Ni 2.4511829455080667 8.387892546401803 3.371413778604496 -1.032075261722519 -2.101261569364723 3.423655258536684
Ni 0.5045178535815781 2.237379429880381 5.842032388879765 2.726653616992111 0.7481208288178923 0.5072922805684618
Ni 4.190823384419736 3.179623594687151 7.68759617381375 2.4572274596106456 0.7847220249806937 -0.2201928742769498
Ni 3.7956775917058017 7.720443922356803 8.464049020705533 1.2741783058089993 -0.3530823980505403 -0.300051852687122
Ni 4.702855776655903 9.06698315044714 10.878506980866907 -0.4062193870848359 0.05821903154289328 -0.9320143544431755
Ni 2.928317405714353 4.81023833797417 12.316427816368071 0.3673648761114835 -1.5480000211549987 -3.0709456704445306
Ni 2.8888541743900333 8.677859071526484 12.308407267035038 -0.9171330664559689 -2.629583931130607 -1.2824945389841782
Ni 7.6936029500224254 5.124917229627233 9.114312887263265 -0.4611340368448446 1.2657751693469685 -1.4375132905566403
Ni 7.339535514968061 2.765142965902087 9.860417230235965 0.5005894146269895 0.9777617358816194 0.22119740428206422
Ni 3.19416906769479 6.721156856345493 5.176163414406584 -0.8788007465346737 1.0185093501126266 -1.405995165343701
Ni 3.9191740724150734 0.6326449855179286 13.680016430085203 1.1578508001591479 1.4324973253992876 1.436732703636874
Ni 1.1849705786229447 2.7669354760545044 12.518356885835027 0.3834918635803331 0.2654023809340526 0.32986585072476093
Ni 5.880320219015599 4.163254204835939 13.483593727742704 -0.18988291043949881 -0.4676777515006333 -0.5362763265056377
Ni 3.1603541105486617 4.39693404397663 9.246363002356107 -1.7247422804474812 0.7810723440432484 1.3816074805279561
Ni 4.234021011894925 2.443947552965756 2.4450660046129413 -0.3073895239991158 -0.771844140576761 -0.1354721968991022
Ni 1.3247863705115184 3.7699102582647988 2.041932338532296 1.034284353558696 -0.21943979816100917 0.5046779828740663
Ni 6.063464342244642 1.608479110102737 11.495621546392405 -0.7696119088121326 0.18381587830981244 0.90524248566597
Ni 7.043313876290673 8.654397727708641 11.609936080565724 0.016833526617571006 2.1439930467949786 1.2345061840303577
Ni 7.9764554504796985 3.766157190133174 6.292430439843898 0.2657965310486777 0.44874311937965944 -1.6619096613919766
Ni 8.282255815284067 2.2687483575476888 7.835538011726618 1.032514406142467 -1.9185324963611863 0.8175305868702823
Ni 5.876576486874351 1.5675594642795787 0.8785801792267381 -0.5447468258704941 0.7217662500837634 0.5087529242743883
Ni 0.3869235859887564 3.9030134730721837 8.718065447684825 1.1731126114142247 -0.7611396096750634 1.0898276380416394
Ni 0.6171360383033654 1.263486257694987 9.793982322711987 0.3253522791251235 0.5082453885103505 -1.4224293996403246
P 0.27650496059983154 0.7254624682487654 7.321956778686878 0.4595006150064796 -1.1224634217987894 0.6636894005456891
P 5.367970403106608 8.412408857132265 12.947439003569993 -0.6643406609764428 -0.45265042485386564 0.8708871481145517
P 2.8514075169871846 2.847925192576498 0.49920567505696545 -0.5896249173301071 -0.7633397026501757 0.557407194946982
P 6.6994693506993155 7.966176525074428 2.821021669106593 1.2918857503910912 0.046809761264687125 -0.47573533169778714
P 2.1301089004466394 2.7638265912589053 4.220860999859259 0.4028239882500418 0.48546361472914457 -0.5310811554579434
P 5.005005769222796 6.599620933615428 6.226255072852406 0.8802462207319484 1.1770173457852695 1.1219872534933193
P 3.6006020727747288 0.5814753558596698 9.026274498006504 0.8855241813014362 1.183855708863342 -0.21801309301681163
P 1.5177986355692357 9.123801987882628 0.1179284960483245 -1.2882759215526458 1.4362074272610232 0.9941424912324878
Ni 5.295597805702747 6.693961116376783 10.040470207051127 -0.8598188061155321 0.1909162368000196 2.202233932714743
Ni 2.108374714848576 8.622954112118316 9.87551632747297 -0.6275119221838676 0.7115736258214777 0.8041626502038085
Ni 7.659395881280456 8.529622216317698 0.7774461962679138 0.13131035221192872 -0.22630515782227476 -0.2769350641640005
Ni 1.797159475625445 6.485805874927287 13.32148172363536 -3.1690211718627297 0.754298932604146 -2.156451070052673
Ni 9.444381225454062 4.279132517397435 0.06583460334272538 -1.21601943808008 1.2162600933359764 0.4795346508392193
Ni 0.29547102505106265 5.88133784196671 7.598204999551337 1.6229394507763664 -0.45106559686524894 0.9553229472621289
Ni 5.913929784373429 6.81499289562648 0.8147780209891237 0.24841484523712057 -0.5242402212767101 1.0765640881635137
Ni 0.3556358814377296 0.4437004114675465 11.979811214526721 0.10190927334199223 -1.436000710566856 0.8377991073113313
Ni 2.160068093566994 2.1204368144158856 7.827270992247629 -1.1548364388128562 -0.020885328089441452 0.8716949887278278
Ni 0.46195040545684835 8.686485526634993 2.308601833269774 -1.1892699379003777 -0.06988721190944093 -0.8546588591811474
Ni 0.9343459169476802 5.2260913573446794 11.074137057626384 0.1842784197685278 -0.12692507866003946 0.2650997620919692
Ni 6.63497632917379 8.068050852070161 5.069473583574303 0.8998164295543923 0.8599453043910673 0.9758310945178098
Ni 2.990775181337654 5.016171613713898 0.7579181051959767 1.5868581316727768 -0.5275338044263173 2.954676014615808
Ni 1.8846657134307068 6.341546151619179 9.230581444222528 0.004267774137418457 0.37361419945530494 -0.07797718800642699
Ni 8.643623994813382 -0.10892299973050144 4.767017370523038 1.3195523630684243 0.5112150126616357 0.4548217214735716
Ni 2.6877569416656826 7.758114643528705 1.1606045773375555 1.3622658427765506 0.3799997912666746 0.594205337611938
Ni 8.243362079372755 2.3814617693713234 11.975643628422349 0.1431579955791341 0.4456575384758002 1.1188317385834732
Ni 3.9053568066568545 6.32970811582092 2.5450329887746195 -2.0458650948722896 -0.4404855073565575 -0.38043276503903517
Ni 8.45158267275489 7.4620143727262205 10.237807836450589 2.200143625844617 -0.19528736928452176 -1.5368272923676307
Ni 0.6776808694983834 1.4832741431544423 3.271064952436392 0.024500813354841677 0.9622320156771363 1.7333117672840472
Ni 7.634870234559616 0.8683890121310138 2.5854783662866168 -0.051861978976613904 -0.06879372173494604 0.07076704341123297
Ni 7.137299291417694 9.629607274537218 7.079964173714349 1.2723032002734733 -1.8134520243800638 -0.6807972638705695
Ni 4.396448572477017 2.765824493199621 10.019372735996786 -0.2000624220756619 -2.3613330250041655 -0.0797363367893788
Ni 5.410243767534457 6.529890421488308 4.09631235303448 0.8162062116319041 -2.3192762050434315 -0.3719236991267595
P 4.527404509497652 3.2158379013602127 12.10046581976518 0.05983059900438727 -0.34048399256023937 -0.06773005635712206
P 8.253911748498963 2.1145458044878884 4.609045878147972 -2.337604313928658 -0.5774574287296378 -1.7946009531118319
P 1.7175794936504047 3.0481355062150173 10.435938091433073 0.7909235258057152 0.9693244037475436 -0.527802998927304
P 8.33307161090703 4.478409231998237 10.970507564439739 -1.2600498368274171 -0.5742952289515723 1.854207094810239
P 3.042468560056072 6.959093907098176 11.001047456161556 0.7700572238796675 -1.604106377230263 0.2139998580923605
P 6.50949128251418 3.444233569947424 7.920829752614414 -2.035910811873055 0.8076272117136414 -0.2355269335308589
P 7.230957946881515 4.974813176343012 4.393357426063135 -0.5487060676285581 0.5738671402752181 -0.031048127555056204
P 7.981347509437337 0.6912638018981353 10.196910597004337 -1.1543911237453217 -0.18630599172151785 0.18051201074756007
Ni 7.158258589814452 6.492462436066213 11.784973763350266 -0.4497185959190513 -3.324950093954287 0.7845500181792036
Ni 9.03105825947577 6.438332363859352 1.7233790108727058 -3.405653422642625 -1.15357634115351 -2.86813962418546
Ni 3.632409791989764 2.0980771174625517 5.886194424160918 -0.9340090162757011 -1.037109481712317 -2.589543113158637
Ni 5.295989917298589 4.450345244924449 2.043680969529941 1.0018033502118553 1.0993173226996293 -0.2119388617982737
Ni 4.960538447056312 9.139141020072325 6.153411007934497 -0.777776704011112 0.08124608856568588 -0.06564874834806113
Ni 5.658571775576936 4.396709980207578 5.861367224950896 -0.968377466453242 1.4813917371071454 -0.35206758363278073
Ni 5.378361360396403 5.399675426427494 8.299791606009515 0.7945402966226961 -0.7903339718508323 -1.4093522547413924
Ni 3.3463737188138745 5.651709822649713 7.267724010585868 -1.102481322249908 0.14286694670127653 -0.24414270022432794
Ni 6.536677686492514 3.0489757453489634 3.5610314775610723 -0.3213359588768788 -0.5144085798982689 0.228952879857767
Ni 0.5872767402800464 8.08085049487727 8.059233942757958 -0.25224013252048166 0.7626287926260802 -0.16581867040144344
Ni 2.6675631944798535 0.7145057499421127 2.0431208101073106 -0.47787551796924155 2.0136702553072996 -1.1892845931883969
Ni 5.904042970564 1.3240394912813445 8.741253246984614 -1.7006168481541872 0.6419579224058687 -0.36102967792207497
Ni 8.129901788318946 6.015925479244066 6.200934933350469 -2.8231969980364995 1.645123185962257 -1.4259839497608022
Ni 3.6959972224487037 4.257846459337475 3.9329427910233314 -0.11316376320988897 0.2755433260227964 0.6253640226029294
Ni 8.475473472130082 6.825066429243451 4.0446199079150995 0.11385873239438454 0.28457072633238734 -0.9165121450425184
Ni 6.025140101746338 2.104014807342435 5.960144803938521 0.9790693989494492 -0.9894144896291992 -0.018914320405999684
Ni 2.762603576519495 9.304304025834929 7.039340478786148 -1.448961384492582 -0.21608296587363432 -0.6726862047276608
Ni 1.0757581631907507 5.575061341653105 5.244388964884904 0.8373188252408031 0.26916416196933 0.43027077160708477
Ni 4.617394120743242 8.647666478646698 2.9035938359975173 1.2043898242609516 1.1287384561742237 -0.31379928418020153
Ni 6.414936371974152 8.515664910703821 9.253182009727594 0.8494325777852015 -0.2612055692438856 -0.7535196312359603
Ni 9.181293016625272 4.270776806009864 3.775791932202419 -0.6011102922618874 -1.0447194328490912 0.19672204484851927
Ni 0.3664441574973852 1.720791074340153 1.0705244069853066 0.25526220717625714 -0.34197111862872714 -1.6771953839064535
Ni 4.878297707823776 6.092247200577472 12.496303409366064 -0.8361934533871084 1.1418953052711558 -0.659663824326064
Ni 5.839577957009607 4.403683965019328 10.779195383229707 0.8512112669521792 1.1229889552849563 0.6924957832544203
P 1.4774204771879536 8.296119760994172 5.430084614284029 0.09777622501022516 -0.7430796668495588 -0.2203463691356786
P 8.869004138508766 7.568341967131867 12.71155493710125 0.4205499447748951 -0.06855872290600451 0.036280322488273
P 7.767796065549835 1.3129296627325062 0.19396453607618908 0.896532873707114 0.12413003241340557 -0.2534652631768345
P 1.3712796025898504 6.512245399675447 2.6596070634804243 3.8622954851543874 -0.1995299466109596 1.8574410283665042
P 4.949139202805781 1.17074252928813 4.195732248160055 -0.10698874474742866 0.19453583583047787 0.28927404534532764
P 7.410302322027047 4.88453414939573 1.047455174763307 0.6684659959987261 0.715927017694167 0.5080512702216734
P 7.573215354108752 7.144114564393032 8.013309272493597 0.8925373793944757 0.3464867471108936 0.5015548638640523
P 1.8424670369258755 4.181515402013693 7.028245587821913 -0.7085518082760184 -0.28991964934912656 0.040469420868956114
