# total energy = -340864.31095143943 ev
CRYSTAL
PRIMVEC
9.30155442276231 0.00000000000000 0.00000000000000
0.00000000000000 9.30155442276231 0.00000000000000
0.00000000000000 0.00000000000000 13.61376511324261
PRIMCOORD
 96 1
Ni 0.9131503156999272 2.1132107904057045 12.868996914245436 -1.8027858029154693 -2.1155743864429697 -1.3848421854151698
Ni 2.498769512320528 7.886257592444809 10.236802188283862 0.0849559333171053 0.25369923356451146 -0.4128080960459471
Ni 5.880321626285653 8.16683897399316 2.8459035139576714 -0.02603627616276161 1.8116784774194088 -1.1672579524056605
Ni 3.171346291269578 5.907705401763138 0.5228831470640768 -2.4682207253973556 -2.210461719941174 -0.009887691427357166
Ni 5.276325206234531 4.208888151200315 7.7328089231412696 0.4778099548386287 -0.5304414649914155 -0.32996663796868336
Ni 0.24949279704481775 2.6694530313462943 6.6322453130848 -0.11748373074148155 0.7232718880950124 0.5625447732838634
Ni 4.5503668079018915 7.4820864606351325 0.26595561777090504 0.9452012854470948 1.9468334001884087 0.3068228528623683
Ni 6.690970675339251 7.530761493608529 12.899041864371057 -1.042729913222888 0.3697768279870858 -1.50755733975892
Ni 2.9841804182539673 9.140553569207015 7.292920753472899 -0.12971961068604113 0.20950505554580048 1.9083480996290167
Ni 4.961021122968296 7.370439905928524 4.626120525375986 -2.643091735809054 0.2738104024920897 1.1161493066553034
Ni 1.6102106455361498 1.9805148186116135 1.9647114780762032 -0.4836504727798057 -0.5620827460457803 0.3504817272028996
Ni 0.8966400570475711 5.322916691073771 7.822182906386995 3.1434561789094313 0.24508115287819726 1.3353425360231452
Ni 2.14631502169795 3.2024506884151998 8.66452142034353 0.5339641334326932 0.893307681901597 -1.2786980480562236
Ni 1.9152551145524979 2.590454931777584 4.362816780699045 0.4954875746240499 -0.14359122646181077 1.1333970379921576
Ni 2.9691212020521847 0.40957626493806226 0.7202797995116461 0.0880055187767065 -0.09621659383258914 -0.49441105373041955
Ni 8.725946093618214 6.765327299376961 8.65861307313453 -1.4840386878116893 0.8740408632521851 3.7856215893404155
Ni 5.879893754793817 6.54111333610088 9.06506587618219 1.3776610942856984 -0.8138870765804243 -0.03945692044404172
Ni 7.884964676415132 5.518165614663408 13.260855578799832 0.4734455072223459 -0.8234243266468981 -0.08305691652217953
Ni 5.191113668480033 1.2701830312851476 7.9414939417299655 -0.5704555434905079 2.2133945773172528 1.2320700637850395
Ni 7.7475621182108485 3.388146915871897 3.42273195458806 2.232284215132904 0.6514766605295812 1.3292315380294013
Ni 1.0192829090943571 0.5030178178224785 6.1401614721895585 -0.5294832148432043 0.05869417140709891 -0.07884159288925133
Ni 7.688339122808284 3.9480911753722823 11.469460889735016 -1.0829874751913544 -0.08462863188467361 -3.3714878325045095
Ni 2.98806846789717 6.598959701486234 7.774398962303118 -0.40022948804998815 0.7832994336015543 -0.5118552173487958
Ni 8.029371304909683 1.2503428162398091 5.237255888252846 0.34385059503962717 0.3318057480599511 -0.4513538175296291
P 3.310730080512145 7.922617367696674 2.971884693796193 0.10006759214756314 1.2476486349495868 0.42794906545244366
P 4.316451323626144 3.52661915280577 12.145751779264284 -0.627322688991197 -0.529882507164152 -0.7016676795616755
P 5.537866306396191 4.467992244169348 3.5181370655578355 2.2516770178372187 0.03970888855384774 -0.22331265085285412
P 0.10352722807131742 7.407041521588818 4.343349557975937 -0.12129282007492659 0.07247014214526874 -0.3228104865398763
P 3.133591282892162 2.489374942608483 6.644946585304401 0.15605644880835703 -0.6974487563843215 -0.19102370891216136
P 4.593470209927253 7.149035012011886 11.67696182047783 -0.7675200592801105 1.0787155872888776 -0.13401232452412404
P 1.3571339596694996 5.0620825090290555 10.096335698135867 -0.5168146182366002 -0.6602605773697984 -2.3300370431043613
P 1.0146228304550162 6.1500294910088735 13.51287281764648 0.45549637894309297 -1.272828219539008 -0.1057211908889147
Ni 1.6807908385807007 7.590840231994765 1.6286147006175875 0.747576526278648 1.4986224991631352 -0.20179714537858148
Ni 9.144330000200172 7.438536584009594 6.636016163145457 0.5286236950563864 0.9377412296246236 -2.2785820697581793
Ni 2.8702921889923068 5.493321163474427 11.443784879603207 0.6861695839260763 0.6617039946845442 2.4076951572084724
Ni 4.069020681140891 3.4835529569970887 2.1176755364074684 -0.1570596932618908 0.08729383742166257 -1.2214570641558835
Ni 2.9221390519377897 1.076729307650386 9.48299493676522 0.1865744148915561 -0.5538847836160202 0.5331048707561915
Ni 4.62849986293276 3.2750307156063743 9.839062151027559 0.9729897684142728 -1.265522429906214 0.5158555967574406
Ni 5.172891923860333 4.6813419921744694 -0.010832589986779658 -0.397546027680554 0.20580318121418104 2.3107154599576143
Ni 0.5900515300389464 7.077347934021065 11.492386430298657 -0.6642295893198754 -2.1642654238907695 -0.5036801377371712
Ni 8.814487587765695 8.929147846023493 10.547768026685048 0.045177367867586714 -0.5911025303168981 -0.3786293932817092
Ni 5.674617755808551 1.6631922980904146 12.255655222719371 0.1444070374948868 1.2427391134631114 1.9309627517047387
Ni 9.163379583141033 3.7648505582165552 1.2029504675865026 0.653851588519661 0.12242924767221497 0.048465551700555234
Ni 6.957571820969578 4.393886762094237 5.693018090268321 -0.12494661477742998 0.3374585754703543 -0.15706380702694886
Ni 0.4155143771204083 2.4962115849236843 10.157788276073063 -0.036946238207046046 1.8370742917846943 2.291010525329519
Ni 5.538489510525604 6.337660441733002 6.595066070910529 -0.2799178009414082 -0.7299886379935557 0.4932828536632472
Ni 2.2224389410280243 3.4180421109753745 0.3645102349827579 2.358969924088628 2.6713661572737153 -0.538716046295382
Ni 9.009531877163585 5.045069966451502 4.344574572660171 1.3825593029182641 1.0905385480657348 -1.2943424394616998
Ni 1.200374867236735 9.348434003359975 3.6030323504705417 0.20726999556769468 -0.6918638060973762 0.4109910974418664
Ni 6.88434068498648 4.396323769286866 1.5815107001435613 -0.845402373579886 1.001798465115849 0.2621831026658065
Ni 7.498699036383363 1.4950574049073226 10.797240360310692 -0.4545561265170107 1.2798879545992667 -2.083651569592444
Ni 8.509638451386923 4.063197908230257 8.647885590709874 -0.5456276858135507 -1.6140436909486333 -0.4177407574608741
Ni 2.178442589802309 8.05302515716486 12.803813482930517 -0.30469860743051397 -0.3235075126069009 0.18687343418921365
Ni 3.432254885747656 0.6435559299375845 5.247752692134076 0.724736645565997 1.2268476390438356 -0.5052053161324461
Ni 3.904773837601002 5.409569969724672 9.446291934164469 -0.04364421905251193 -0.26251683185614144 -0.22031757278027217
Ni 2.6165643943337322 2.8848305181605505 11.037918074468276 -0.7397901974650097 0.5839738896919169 1.1611418122055936
P 7.396363337401265 2.1326510386217183 7.7466133596854725 0.3250630300194789 0.49349316990184033 -1.3495725635795983
P 1.6863438664203947 4.273329318492442 2.437163458739523 0.34928950666701136 -0.9030843016723865 -0.8461294815538976
P 5.71707935059616 0.7008237386535429 4.322193173015496 -0.5600955404124225 -3.028257644657701 1.5524259181368358
P 6.665996002391885 4.522341225186652 9.516674934260609 -1.7637682840016915 -0.14860924850169244 0.1647794305036517
P 1.1566854672986413 8.383546583053775 8.351799448514981 0.5284380614081415 -0.8223141243018547 -0.6972682649423992
P 4.847225909248339 1.6831255286774565 0.9415116845207153 -1.505836757523387 1.204330431777926 0.09583555634408655
P 1.3468557423112724 0.536592707755743 11.07648603868018 1.315372777769438 0.6382223666228364 0.2801479146743433
P 8.968474817055696 4.854257884201116 6.339140319001503 -0.967043835243483 -0.9037854415044694 0.5008038446306406
Ni 8.231103411756049 1.4951597220031962 1.273051630591281 0.6295937444135609 -0.06212145192109302 0.2055820663423105
Ni 9.306018916343218 6.182240773100766 2.0442016298605243 -0.6633762401806447 -2.7021574316229593 0.9315970644000988
Ni 6.106163361541544 0.1060925967114976 0.9269993997041486 1.3378025675278638 -0.3850175561962401 -1.1503130970212059
Ni 6.915984572273982 6.246123847142671 4.023888610150977 0.03429903039218609 -2.158809800092837 -1.4973410613475504
Ni 5.316377698492021 8.797447140525628 6.532578229994175 0.536772806526082 -0.05597137315929716 -0.7531169964809029
Ni 3.6149746158698433 0.8861144183484126 2.8911276703338715 1.2716858784044487 -0.02393697043157168 0.3798884624997909
Ni 6.386726139981552 8.48801233794088 10.41348148912783 -0.6520605580575093 -1.1814478707527976 2.422901946855898
Ni 7.964530170788232 0.4464448352030447 12.654974663873798 0.42124594240065516 -0.5145255650921075 1.7432727351515012
Ni 7.225800738579715 8.174289518883603 5.0255348423829505 0.7455504969875547 1.2815776835968637 0.8693370300186125
Ni 0.5401198570971365 4.405309070615416 11.921042973306342 1.163831700332931 0.2537617113713307 1.6299148536529349
Ni 5.73040847772226 5.339854821217963 11.60965484434582 0.5818082494991658 0.531888224740271 -2.4140439822446362
Ni 6.325410294890662 2.0058987599424754 2.9224943713070966 -2.8186883115328683 -1.2675867686344107 -2.506251197807516
Ni 4.548246053551053 6.281702291844227 2.5043337020252263 0.287827285596472 -2.1547374297956763 -0.9131861659930789
Ni 2.0874826915705404 5.773688609276859 3.865519418691327 0.29331324841170775 1.1177747580738686 -0.04321870147931911
Ni 0.15846499746760515 0.9670267777653789 8.738117177250105 0.41531106497345893 -0.6151356600067018 -2.527601381348518
Ni 7.307096322028499 0.0958125190424362 8.569769278476512 -0.22777454327894966 0.2924966660476834 -0.8585787630608439
Ni 4.006737474416284 3.4607455461714114 4.444254677926636 0.27310720577747805 -0.1779293376220484 2.2294418605881026
Ni 8.214760581078759 8.18455843468766 2.4780865764673567 0.5495761289383374 1.2300926283436946 1.0923810005911123
Ni 4.511849072082507 8.408195701605178 8.894525601090649 -0.13660631050354538 0.44841658927817607 0.29102085283310525
Ni 2.181214452945071 4.4051044364236684 5.932456837410417 -0.40161094177854706 -0.024863853121215244 0.5354489455083359
Ni 3.994385010478071 9.248442296028804 12.149549603832035 0.9346255668137774 0.14898231557039504 -1.2631611287628892
Ni 8.772825926636735 7.6379060960966925 0.21922553977452663 0.936352062586581 1.507547569566907 -0.18129876831491357
Ni 5.9092587613095855 2.2552734272493296 5.7192921903332845 -0.6549723323876656 0.38212892179453545 1.1531742206190851
Ni 2.096412183574068 7.752975622737987 5.671752877124086 -0.4188877265811238 -0.5262418250877712 -1.7039220012680205
P 0.6716884805257822 0.13821923466043992 0.2587571449984778 0.3017156135427901 0.8246425153247153 0.8423720713939944
P 7.051954691136033 7.603992629591628 7.434367627430447 0.07504741595414172 0.0733887973047962 -1.1645456956808202
P 0.181970024856058 1.9718922778957069 3.5625864024716463 -3.469839727512547 -0.6224841299519731 -0.17140876289471124
P 3.50210955756692 6.136067858199191 5.685680094183339 0.2632724790752433 -0.7452201102313294 0.4561535529111176
P 7.81272880672826 6.912645314326829 10.855152766730654 -0.037735309767244686 -0.71288977352974 0.8543037898345739
P 5.3212796175397905 0.9759283651063957 10.261592690458656 -1.495850849955269 0.9729923395174341 -1.3835052117713011
P 7.791260819703112 3.0656620327861583 13.219537145019757 0.06117631439900432 -1.587398577557279 2.450785303529728
P 6.899539424500818 6.740473546633808 1.3947438638018583 -0.24802917976292768 -0.20328427144706926 -0.3660957795910727
