# total energy = -381171.52398507105 ev
CRYSTAL
PRIMVEC
9.25299946091738 0.00000000000000 0.00000000000000

0.00000000000000 9.25299946091738 0.00000000000000

0.00000000000000 0.00000000000000 13.54270001856730

PRIMCOORD
 96 1
Ni 2.171345878326171 2.4102398198196466 1.63207181355813 0.11731943724947537 0.30478371094515255 0.13104989946169043
Ni 1.9706760778315928 3.1614260794937064 9.799335469587312 -0.5780732079367656 0.26478428773407947 1.52419700519813
Ni 0.4320188461830429 0.6900368870753383 1.3788496023147643 -0.05979151823633574 0.676625391881067 0.5935013695663779
Ni 1.1873263918413457 3.0726805611396926 13.128226035513954 0.5635881269467132 0.8836081952256458 -1.1153049563771373
Ni 4.4330380439225525 1.5606108982992364 2.1298600549980278 0.09663491231693036 0.7235937902108054 -1.5128440420791558
Ni 4.378112238798017 8.624443258495013 2.2770290122934704 -7.533332262567671e-05 -2.461454610318116 0.12266784604558228
Ni 2.1585582329956265 2.0150997285059353 7.83859618793551 0.7029995109992215 -0.8643845711093435 -0.38112079224499523
Ni 7.030105176961457 5.285137516313625 0.9665211391008947 0.5500443268240076 -1.6414837894374568 1.427059699323484
Ni -0.05299933062539052 1.457782314682496 5.831256024823348 -1.8187256140741777 -0.5236645512788981 0.8162036405287427
Ni 3.3267309158397036 6.163783844314923 3.9895306735409544 -1.6536710755322683 -1.5460745219975116 -0.6687593588694288
Ni 8.827213489879632 0.12628493738875832 10.406793037185825 -1.091333018942572 0.20760063943423604 -0.9461605640365703
Ni 6.197973677525025 7.482447311280539 0.9318242415173391 0.4460542596935866 -0.27865950305427495 1.8297705590344295
Ni 6.196234113616093 2.751814296937614 3.210120914744445 1.0017514139279973 -0.16006865529154368 0.35161686924860736
Ni 3.075400942997276 1.3890417812811855 5.730877635478335 0.1554167583418291 0.1771441227165917 1.5021066010569937
Ni 8.840343496192252 9.04059691170863 3.6845221999086917 1.5559437014821074 -1.0819376937706011 0.6473580103755174
Ni 2.538329092113945 0.4147323924880196 0.19314063478874333 2.124747825412121 0.23690813014910167 0.5053205015540716
Ni 4.6359655762989345 2.8515708847151786 7.65017643349962 -0.9310933852908029 -0.23330472906855948 0.13275865462268105
Ni 2.862045280166825 1.8462787523440145 11.64391907242007 -0.03747537123763869 -0.5334429708219006 0.19984670652043
Ni 8.327560769037342 2.4647862519640436 12.16368781420925 0.192028753137908 -0.5585891310702251 0.47848744052162756
Ni 2.40557630806379 4.507959581000276 7.962145938667461 0.8239927975558583 1.0251119430308087 -0.4256265879668541
Ni 4.9545093376226 3.049196448369128 11.680145490823552 -0.4171285777981719 -0.3501366851586551 1.7643030734592389
Ni 6.013515132181758 3.025490263610189 5.6720887030560405 -0.03880128913791382 1.052628917504155 0.23968055068791627
Ni 5.070005277576181 7.550614158711883 9.228375433278087 0.10578932512268877 -0.8484182775880743 1.978356153387038
Ni 5.763859952251652 3.2870262949183116 9.736348451284796 1.6659059270355632 -0.3284885107612601 -2.731689122533489
P 0.030516392402412437 1.1746405295054734 8.243644391130514 0.6211888081793172 -0.7862204639030912 0.38458663930640863
Ni 2.711184376064663 5.435979914416756 10.3849356017301 0.2677850222336162 0.542973021799523 -0.343472385764602
P 6.6338177137078125 5.492210392472991 6.489756838949656 -0.39216830830840843 0.021390549860634128 -0.2501436550027692
Ni 5.803620091170138 7.650444770485572 7.05470427617365 -1.2498700680809378 -0.2280733054662911 -1.6715158170231732
P 0.2220210968767996 3.9690001182157655 11.167946627938077 0.6316812230702088 0.3921199715689763 -0.12712279649314234
P 3.6598851633984846 8.464893787847712 6.131525112103725 1.4701552449613777 0.4598117184889952 1.715559071286316
P 4.0130814079080315 3.167884673155587 4.634677558766364 -0.8388067226402394 0.5885201143017026 -0.550037384845472
Ni 7.573681886504246 4.527020760002389 8.260681013838616 -0.7911765223567858 -0.5997506929101994 -0.6699767762162978
Ni 1.3928447640820925 9.132914087875658 6.741474512471786 0.5509182447885287 -1.4437060496309138 0.2867083415006804
Ni 4.1200830943063025 0.1327638876495737 8.212442351463997 -2.2421947893783964 0.04250187791795261 -0.15699233035906512
Ni 8.161830294713628 8.563863870666454 7.2323026476760575 -0.40265969475803554 1.610540305781065 0.17399040757895845
Ni 0.46975072760771164 5.3624740862649185 9.078687809514502 0.596363007384889 -1.2114960962884298 0.6140519400242199
Ni 0.3706214931973038 3.397414579139288 7.585469282587155 -0.4231878966183744 -0.35649450905588276 0.4705697283364476
Ni 7.096958098461586 0.7660243696972581 0.9327791510673479 0.7999797224707126 -2.080463144562133 1.5401525000861216
Ni 3.298120641337502 7.2261114657001775 0.3972951149008922 0.20033624456233887 0.1869163716120071 -0.5915573584661296
Ni 6.219005745423958 0.5872804768548197 9.081449829869905 0.9322606661260268 0.17790928301739037 1.4052246057262638
Ni 8.396125495447857 1.9612010063276297 3.2959406346516293 0.9366983901824062 0.2413525390737005 -0.19550077084690845
Ni 6.849727204404565 4.262597792845404 12.306332980041521 0.26048643168967395 0.42228543940876306 0.2511772384736061
Ni 4.359217613787183 4.902276155357101 6.040911413147514 0.3990670923107708 -0.25845577441289036 -0.4715295211465557
Ni 1.5871299949109143 6.912277481129946 2.252611271871783 0.637625870689418 0.8590965832375268 1.0007329999658119
Ni 4.6050235459188045 3.9165171049633445 2.2291826770983114 -1.2041178015464877 1.8177200556277984 -0.5840484516835942
Ni 6.128224567176515 5.121137352899326 4.228925202308224 0.7142660850519764 0.16902535026419924 -0.5018885930543873
Ni 2.3296832060369295 4.18045891614552 3.1759125755353126 0.4984541134515415 -0.8974116767676416 0.8231551321459113
Ni 7.799603122676866 8.710070516012275 12.645252771598464 0.6546938819152983 0.1913803209206317 -1.1615786426326962
Ni 4.800132293704514 1.0649184612496194 4.340421995871168 1.2606998117065902 -1.0901659952176646 0.07521042389456725
Ni 1.4084638272644066 1.6983973140858715 4.25796018948819 1.1810966580609659 0.18194154410523505 -2.626963205678308
Ni 4.339952868795727 9.229755980805814 10.969749228914065 0.32696873168262397 0.15550289029773218 -0.7626357346046156
Ni 8.650703271120255 3.0273038515152444 1.048466628110902 0.20169970056876876 -0.4197711576273416 0.6250194947793171
Ni 5.771900808830699 0.8060537709016475 6.809811615094217 0.5025691640611797 -0.103818317439247 -2.2538323736173247
Ni 7.937741152445094 2.5819292258314 9.720435142717886 1.601174548295449 -0.3728431256172353 0.9800834420362604
Ni 1.837266330815831 9.58508966820346 9.67876425939943 0.20317679933492747 0.5124164891689046 -0.747416603662016
Ni 0.4751637323243312 7.589060371699155 8.600386385054435 -0.878511754539345 0.848059865807391 -0.9315623545074215
P 8.047722304687385 4.032447935894159 2.9848520150376734 0.17275087874490247 2.025171828188996 -0.1760102662224646
Ni 1.9847313840957723 3.8250326987527163 5.731609547740018 0.1693246266721729 -0.3446952024281096 -0.5366547928909791
P 0.5582362366753375 7.432397836900718 4.81731418850501 0.04849563360754229 -0.18625534098924054 0.5006310664982023
Ni 0.7242248696855365 5.372374795746598 4.257689076602383 -1.0219978228818591 0.26428703638268675 -0.2277758288305303
P 4.204951605863284 2.396156754556921 0.09670772443717816 -0.8739675868120883 0.020298088127403753 -0.05884355250076963
P 8.360334893321557 8.255563179806543 1.1340143098323283 -0.18551152084468053 -1.0475306770456412 1.2107260508916247
P 4.9226697662894585 6.268453774835265 2.5075258567265495 0.6953435371158605 -0.03457568109234045 -0.8517632828009073
Ni 7.95509977953634 5.571952742298337 10.65454302451567 -0.11440766291931909 -0.8771704100201023 -0.07986206373396568
Ni 0.3775279320357395 5.180689657781657 1.516620288002223 -0.992047299266356 -0.778902075864807 -0.08173382683538181
Ni 6.399994415948878 6.848653856460756 12.141775786056384 -2.0317566804953655 -0.5846794003993737 1.142445264237355
Ni 6.6273406140469 8.636065025886595 3.4624354067353313 -0.9612552535861638 1.7462246186909733 -0.33305016199001347
Ni 7.528462477871563 2.2344513350224875 7.474988468371023 -0.8622284439982892 -0.40828166893050327 -0.3469091793602929
Ni 8.58367454262933 3.668610741941685 5.466064191741792 -0.7247770118856293 0.41385890590796465 -1.295224070735705
Ni 6.4117642313327075 2.6878668172853786 0.651047523016501 -2.3640985035644446 3.09870612838725 -0.6252714628891232
Ni 2.673793005022168 6.510382700169855 6.4272574537216105 -0.826989161180021 0.6271378266739006 0.026984499008643848
Ni 7.601709222036965 7.252843381300714 5.355798972414372 0.1227282669698725 -0.6813410521891814 -0.2677431132520873
Ni 5.3241111502732865 9.039680864756585 13.157938342258461 -2.6237061321935915 -0.7374196403503043 0.6082379044456041
Ni 7.1842786548902 6.700624370210365 8.520755071223276 1.0602802634018256 0.8042073873988149 1.30426381234047
Ni 4.604496124946416 5.2336260680103415 8.364350695111323 0.5914871673498265 0.5329832575766628 0.20335651944590136
Ni 3.1703737300252812 4.368100493322149 12.235287524460878 0.8065951709047011 -1.4952422698369927 1.0267173398447156
Ni 0.6073705894030664 7.005159090267428 10.788141532721552 -0.6333113024744642 0.21841264244807546 0.9034853937655473
Ni 2.245425392447976 8.336092034590715 11.573185442923101 1.0959962287461964 -0.782823265296084 0.941892789899152
Ni 0.1275303911235566 5.574996979138966 6.686315531759457 0.011875925501979547 1.4374351290205374 -0.26399650172546146
Ni 8.00898924871513 6.892485315166102 2.7556413375372615 0.5544807653288064 -1.1274937851338453 0.06650878235551126
Ni 8.52124455489765 6.32241726801018 13.049258161748064 -0.2050195089706211 -0.18295275897856877 0.09866556959371395
Ni 2.6004629838611253 8.402796908098596 4.31711461539135 -1.174332599864255 0.22172473754044394 -0.3146955707422258
Ni 1.488493020074736 5.741134585441365 12.70707483726197 -0.7876057742863919 0.24955718637167987 -0.26277651327543133
Ni 5.55205879333982 5.31332215283811 10.544928291054198 -1.4163114596680448 1.3638223886303933 0.36917210452355126
Ni 0.9454807435023969 7.9354834205632905 0.11502773817809277 0.186782160026988 -0.33951262978590563 -0.44254393254748303
Ni 0.74664581281176 0.7739708456812459 12.32166334963895 -0.3283519851833958 0.10212370334564348 0.06058136112748277
Ni 2.607217673507505 7.173175055471493 9.008197533904793 1.2351530735857372 0.8024721498752632 -0.8635173380130419
Ni 2.6791875037397563 4.815436754903297 0.9789553198499431 -0.004530026659869618 -0.05056177210795164 0.16787375315825928
P 7.3893066181566205 7.689464669442811 10.586762027164127 1.002260492353932 1.2431291498126784 -1.935433642991899
Ni 6.406869394588961 1.2522546894422337 12.104113302128082 0.425116481099655 1.312991422021455 -1.8714656247803705
P 7.038081262543894 1.3251128076279812 4.882468259294079 0.46606695537008763 -1.4151416077296597 0.12196670621349963
Ni 4.860785705529199 5.408840866837535 0.09822244045788008 0.16451563531930377 -0.025351591390911178 -0.3960907832912662
P 2.4756862853934076 0.3817435986150418 2.568901002513451 -0.9700702807746326 1.0040283828876322 -0.9271495701517066
P 4.086466947066167 6.888784115359866 11.682353256507973 -0.08539019264104648 -0.03688478884149131 0.03454559918535341
P 4.151765364647678 1.9274830760928234 9.666968535616958 -1.2078006497147136 -0.9687996415923252 0.12984019542430542
Ni 5.034806867418881 7.390379966100428 4.578800545291625 1.0835132657878372 0.9015683792484924 1.02938948736024
