# total energy = -340868.8170537485 ev
CRYSTAL
PRIMVEC
9.20006013887256 0.00000000000000 0.00000000000000

0.00000000000000 9.20006013887256 0.00000000000000

0.00000000000000 0.00000000000000 13.46521796957011

PRIMCOORD
 96 1
Ni 5.990297131027066 8.756663202041446 3.52948989604574 -1.570583048661837 -0.4859708933828663 -0.3793978960166176
Ni 6.573001337485005 8.235553397942885 6.266133332899934 0.4476043777895259 -0.35007832111689385 0.25780837063687856
Ni 3.0409050644133635 1.271310304709575 11.301558986322952 -1.600056889751238 1.2557805200281018 -0.5654046113301617
Ni 1.6170853634511513 7.456253107240353 1.2020228120958416 -0.1830661446279815 0.5647636353120531 -0.31289168476426754
Ni 5.427741056184815 2.35897820979323 10.113792587355729 -0.33843328067879774 0.45623942775670456 -0.8307933654174596
Ni 5.022000005721293 6.739596025748427 4.403086202727724 3.469149643424058 0.33926657521337056 -0.004996167663010751
Ni 7.731123302802882 2.233673391251822 2.496478628001193 -1.2521727480721854 -0.4223121788816404 0.04653362478516502
Ni 5.395678846741584 3.333273774283216 6.801537270373518 0.3653357614965966 0.6207149538666922 0.06852529856490779
Ni 0.10898023190265038 2.8174356046210876 7.004162154000649 -0.5691170271847424 0.5990456964233748 -1.1789739552910081
Ni 0.005330514821063993 8.318777141593808 6.798830612692543 -1.0349068176340432 1.4659898007297785 0.3053997472625966
Ni 7.581429124940382 8.244302655096545 1.6181286502663197 0.10321873618203514 -1.0900333262945419 0.029796000315509975
Ni 0.5610711851423545 4.781326433544845 4.879498434843792 -0.22314372937515764 -0.5320496900187999 0.9003962133172624
Ni 2.0534350138623423 2.5791724481904437 9.073066148912588 1.2201213760635954 -1.8396243119000577 0.26575590761872936
Ni 0.14417598181542637 3.3373218007265506 0.8391991219857575 -2.7932534163995313 -2.8742971591464244 -3.0768563795020105
Ni 2.82046242439349 2.1566596881673785 0.5154112868735582 -0.6041763327817208 -0.4275292043062056 -1.2007848805185126
Ni 5.474541761905824 6.67501160385704 11.169290642293 1.2588750997930254 0.5923286894145154 0.43339234795520204
Ni 5.073547942453122 2.3398880850888673 1.2907086314272371 -0.22754314399443393 -1.0570833537310826 0.8725588793900197
Ni 2.2171224831346423 7.470706401655077 6.4438472137983895 -0.24858556648702998 0.4849401381255068 -1.5954502442171619
Ni 2.9186546658246537 5.317165533861087 1.719764474192347 0.23301342308038578 -1.245795640901248 0.8806866507034768
Ni 2.4159725821033633 6.13843649873292 3.9707312184112973 0.15800174546018594 0.8068797920246555 0.2961751433405351
Ni 3.8739061059107693 7.3737193680968165 2.2103291587579186 0.3719375830838304 0.833477597117842 0.6367462962979421
Ni 3.9298976716701675 2.0830408072592768 5.193602286696323 0.6372646306952573 1.7604659591013356 -0.7260571641496335
Ni 5.562172334343923 0.9598790703156551 7.87571144731072 0.9915934995583889 -0.8102564218063724 0.550261070820504
Ni 2.134818745493568 0.6892804626568548 5.814967905706139 -0.324239505676919 -0.02615249002565173 0.7870614717471478
P 8.059933450722845 3.305737994408441 4.947215477198713 -0.2267227049756676 -0.053073482786211816 -0.38965376941667085
P 0.7527075169878514 1.9385078631120292 12.58824167145109 0.5594100843096237 1.2808973697003876 -1.7285241160874167
P 3.8422118988714775 2.06640709860121 7.512662355728223 -1.6695219265215955 0.8226038876281317 0.4269651042726195
P 3.5440471511395777 8.059280246455852 4.302231463904059 -1.8006682423518343 2.4532098538108205 1.1545446186040504
P 4.305848927534784 4.96178561237669 3.481284341147692 -0.6333583536623157 -1.4942441675897815 -0.5043496530003702
P 7.613399333782628 6.902970692977378 9.890916531439805 -1.4677011269939304 -1.0013963445814238 0.8148144734906999
P 8.879760006159216 0.4236379273731101 2.3718711740152507 0.24387042039954773 0.03489861164939797 2.5736986899272125
P 7.800905758649913 0.8917921855447745 6.914995171526102 0.9822300560656182 -0.6927228116635618 0.9957977674477237
Ni 3.996119704259085 5.308775079051266 5.635462773106508 0.09740058683836128 -2.1814267661614046 1.5061622591836061
Ni 5.968640189555225 3.689030898231651 4.5705530566884836 -0.6514805171843231 -0.19238947891143637 -0.9606847257946746
Ni 0.878152176442756 0.9744795656919558 7.893607404214299 -0.7278415097435658 -0.997072263284773 -1.036707361177892
Ni 5.157443290491234 -0.16946694702617013 1.1944024023162643 0.7690786620164819 1.4484132252985957 1.2383353279684608
Ni 6.036205430918521 6.7132470536263575 0.677638706608228 1.0939028365522776 0.5075727879233581 -0.4931553269464474
Ni 6.374169638636481 4.733578121633692 12.513509583271071 -1.4454353736171945 0.9277249830392021 0.3518315563625747
Ni 9.359681141196846 1.5431076801992083 4.717714458005869 -0.7695077791341005 0.4311392902549671 -0.5361464857959929
Ni 7.96436322641975 6.525851029480254 12.224829177494703 -0.7083366069414189 0.9162354943423641 0.028847006138679347
Ni 7.614429740513659 4.490448133410948 6.77036562674782 -0.3172386488790536 -1.57201669578457 -1.0839578095244236
Ni 2.3875535964591337 8.200869171371584 11.143100831210633 0.23969469175530334 -0.8796412401580981 0.0276918094883136
Ni 1.9619588163030752 4.678488161763945 8.819569532970869 -0.3667889490033554 1.8650885176094332 2.422151441843119
Ni 8.03026325690522 8.785192588406858 4.444060510388361 2.170222927025785 -0.8728468429440839 -0.49792112376620695
Ni 1.2538301905224478 1.7954561286406379 2.180369163047192 0.4753162418824976 -0.17696645948814682 1.3369080807380525
Ni 1.390377482504208 5.334176444983191 13.41021276089642 -0.522332719841352 0.4026383546017969 -1.5646779960313117
Ni 2.96540937124517 5.771519701885019 11.578121072937591 1.0125600745077272 0.5599513015250743 -0.0932683098375426
Ni 3.3608739545786803 6.034807021783551 7.679455765289772 2.0989881999495146 0.6728042183627639 1.6235020081480553
Ni 4.269554690446249 8.549063845919061 12.715690103995446 -1.9555777220399417 -1.8700204076934117 -0.5740556021369404
Ni 7.695095867457201 4.491460140021782 3.0521613379438635 1.283687273740699 1.4519037549503575 0.2041417343513581
Ni 0.4474762030943025 6.067338434291805 10.696943916734453 0.5574187649112078 -0.1701224399831199 0.5489662632684804
Ni 6.469923864141545 1.2309588411176065 5.290928802472218 -0.13875472430511585 1.4023107745135783 -0.6582497175873567
Ni 3.3789980729727014 9.146543348895174 7.9077727367479405 -1.893510777505868 -0.531220252138969 2.758062984541328
Ni 9.025562558600056 8.324977982100188 9.315170330434352 -1.6745291499282 1.6196342976625333 -0.09421036203583774
Ni 4.97760051568599 1.5921256004039528 12.413342088936764 0.48466940096262334 0.6326590136024458 0.7203056063778369
Ni 0.17124347863118816 6.394050968509313 3.143293453255447 -0.6927724339545746 0.9426828899006152 -0.04240237622561084
P 1.9204757453189925 2.8058987292575837 4.892182557701578 -0.15395894284938003 -0.1473380950987527 -1.410951738018028
P 2.930062740346779 0.16380707005358025 1.3635685073772137 -0.42148659765655155 -0.33198932482566695 0.008467414041062837
P 6.866888057271107 3.1628334608986255 0.4469527196746986 0.9482467571416378 0.5073843260616357 0.9952570644529053
P 0.8888187261209431 4.637805496008432 1.9941047462932024 1.3641581747032572 3.091065581122857 3.2341770397347713
P 3.967222315489734 3.5692093155089424 11.325110220169071 0.8438764238536628 -1.148989493113776 -2.070954947961382
P 6.080623321074021 5.912611823555432 6.684039622831687 -2.3090450142337264 0.21450225165007578 -0.5817815100262883
P 4.0804014548213345 6.349007474267116 13.668273526653001 -1.3574967035226815 -0.057199589139443424 -1.7373892797875305
P 0.7598200834499925 7.657182419791332 12.517670770453618 0.09671795894903988 -1.4074928329351504 0.6975086630879794
Ni 5.7292822259728595 7.251432169267712 8.292823772055971 -1.3822952506236001 0.8622886078122634 1.8048532269674593
Ni 7.5807667206132905 6.165466275302278 5.1048391868601 0.08463274564973167 0.8570183605522596 -1.4318928590460696
Ni 3.9184343967874518 4.188042157973644 13.289887014880314 0.488859527784571 0.049797640248417464 0.7767158668467656
Ni 7.212341113909237 2.551471067233896 8.238989620389669 0.5334946499954425 -0.00808766210414091 -0.20271400076589605
Ni 7.137452624707543 1.0014265417204273 0.25410197989620137 0.08881284516935027 -0.4249236483625585 -0.0018774195283709602
Ni 1.6211793901949785 8.974456224752954 3.731629016499671 -0.5502315031341491 -1.1045605733764396 -1.0653090840749848
Ni 3.1891916330807937 3.0457626961453648 2.9237294189749794 0.5174553371443927 0.049162834877895974 0.5877891496729489
Ni 6.9821648103051634 9.497866043876138 9.582306955478092 -0.060413725201366925 -0.24666263843270422 1.0940779286775608
Ni 4.673860531534405 9.050595922128041 10.21728590341564 -0.07524539089756073 -0.4645119521781419 -0.1806153690946438
Ni 2.1183874381576677 3.99444529332116 6.6435630384223785 1.535623758977833 -0.11598657737066477 -0.15601685381967326
Ni 4.213765526009017 4.0754610225484456 8.701035038655936 -1.5082032008730348 -1.2817718018855409 0.4716218237500458
Ni 5.66557180979083 4.556302163595926 1.7218105675582507 -0.17628100338534802 0.7717274124932387 0.182001450808893
Ni 7.978853321074869 6.535262690961007 7.737504464487192 0.7377160885448004 0.7682106575892318 0.5784462750054683
Ni 1.8990120051092199 3.660878714330278 11.681615309003513 -1.3177381926778209 -0.8866444109488085 -0.11191472129413628
Ni 0.40430860110618666 0.320990096836249 0.39063915181185305 0.37633211260710026 -0.8838246821118262 -0.5166066159908522
Ni 1.608336106297489 7.184759333733969 9.049918797704793 2.7820683463169895 -0.7537368894530889 -1.8050437457117108
Ni 4.464669565014985 0.08152817257477181 6.07339207383661 0.1795110802868715 -2.3985906238040435 -2.9348762062810616
Ni 8.581218055963278 4.236038871507457 11.966350729009651 2.134895455369085 0.25406073066898827 -0.1287266506451525
Ni 7.064348947164957 2.614638679870115 11.858063261632417 -0.6130690072856603 -2.8862031665553904 0.7114550979657425
Ni 8.56373794177615 6.018826517392477 0.9923755225955347 -0.8815633968814754 -0.3282365426514541 -0.3706003523296456
Ni 8.928060321676279 4.579725516606676 8.703916497478783 -1.0131455146975519 -0.7993487737549331 1.6490472036070116
Ni 8.878333996843951 1.5626118076080031 10.589100812259977 1.5501589764795303 1.8000066975084354 -1.3344192528779277
Ni 8.380371543953185 8.981365469886919 11.781540841757232 -0.7205089806378946 -0.8676897242231767 0.6423507869689131
Ni 6.098020634720262 4.993875422000215 9.369785567203015 1.719063742005465 0.3768404197020865 0.036767289427020546
P 1.5426568772543825 0.34750835006413106 9.67073333311471 1.4583173717861853 0.47697280364931405 2.306693226172098
P 3.8261025936390256 6.954665830670782 9.859663007279229 -0.5623025753660703 0.20628526305692213 -1.6337889918963604
P 6.185577606677573 -0.2518185249797566 11.967710497892208 0.8786377385942481 0.4198266934556253 -0.8676742976042089
P 6.633537732933056 6.601861926013962 2.855568933723311 1.0756667731602247 -0.35183104214194244 -0.5175484110788313
P 0.9254432453670143 5.759007620151075 7.209991418560083 0.01315504932471928 0.2074427737001331 0.02848190948977675
P 5.267236807706592 1.557330973111471 3.347749148842177 -0.2990311247320915 1.2836728755629958 0.20515937698259504
P 7.526136763748468 3.443223692520247 10.07094606746505 0.6657419121993439 1.172589134810587 0.14135179560833075
P 0.43040825159958745 7.2761343306321535 5.104745346247095 0.6356641189773569 -0.779151987092084 -2.025771666556524
