# total energy = -340873.6563436705 ev
CRYSTAL
PRIMVEC
9.22000419703929 0.00000000000000 0.00000000000000

0.00000000000000 9.22000419703929 0.00000000000000

0.00000000000000 0.00000000000000 13.49440811467411

PRIMCOORD
 96 1
Ni 7.447652059726172 5.829421452340267 4.50433903634596 0.021618606711040187 -0.41697251183628187 -0.6077208555998694
Ni 7.926280920782715 6.773466908351219 9.047703584716 0.8787817203712802 0.7384838199487604 0.12005894766782547
Ni 7.751349779990108 5.828130651744106 11.278478083007608 -0.44880816828963993 0.3016603348248224 -0.366222277866608
Ni 7.178252755303088 4.219461188774052 2.495332378478663 0.8161977269914718 -0.8729874822870062 -0.19694161705849308
Ni 2.0411153226968044 5.660243594204837 2.325073013843734 0.20066817398046086 -0.2525836319028295 -0.4414676687641687
Ni 5.1983582608813546 0.28261157052521896 1.8099237159200894 0.7576441949272952 -0.926154810338605 -0.5214256346460504
Ni 4.065680737749971 4.2083971836641 8.429281941095633 -0.976805285505621 -0.22176998895608258 -0.6331986881559998
Ni 7.294793609127921 6.4662379264563565 1.9746907240183529 0.016635294563835865 -0.5197004244248274 -0.18324123675326506
Ni 7.52910157734394 3.6639559322118562 11.742051599110784 -0.16268475275815208 -1.374599167530923 0.870871464385268
Ni 0.8429388893145029 1.4313503410745494 8.18164645672425 -1.8597534785497651 -0.8542603381911481 -0.32501597883162736
Ni 1.8656217616444417 5.095204853239564 13.143729200480866 3.3692062355591843 2.8967883982704046 0.4985502727097737
Ni 4.802211557919506 6.008031374831933 12.049993287334814 0.3955356821187446 0.6653392774442864 -0.05996686747193543
Ni 0.3347543826075732 7.001634353731213 1.595160312730802 0.6379390310544627 1.2238237646158472 -0.25749392472025334
Ni 2.5335188701152385 7.1698533314237824 11.113320146728794 0.3384829029698106 -0.29232028837081914 0.750475702203314
Ni 5.368743939574622 1.8065123143445208 8.093231225889342 -0.4381763996074067 0.18602651280788607 1.4495187996579488
Ni 7.13544427553183 1.7450148859417016 2.0708655104370406 -0.6085382092948423 -0.5207594618169611 1.1439894687960235
Ni 1.3900262819888771 8.112276066685274 9.145430097851357 -1.1286294414001852 0.34053335774093607 -0.6093864162277505
Ni 8.25738971370656 6.2707277361592375 6.72902740982667 0.13863979599380638 0.22499646631318027 -0.20031670417831307
Ni 8.874798078858941 3.8916531573746775 7.301149880063588 -0.18391126623709617 -1.1163729926303354 -1.3004426388221666
Ni 3.9511959448747382 7.204336147349801 5.57304171593032 0.3359467668115182 0.3104859035362524 -1.4460472961695805
Ni 3.878321031217185 9.327140707775087 3.824531526374299 -1.5752136054553127 -0.6628476213706842 -0.5096450970713545
Ni 8.49752472461382 2.4467494100404363 0.24911068505270875 1.0304896624029543 -0.3137735731485886 -0.4284763987108233
Ni 5.420560363506233 4.1823137916173865 4.079022083911722 -0.58268859522159 1.4947200787849353 0.14475130820818297
Ni 6.293639446741097 7.87000201479009 5.552463588426233 0.17296145209381178 0.5810795988632572 0.8053109048756389
P 1.563675842189581 8.834838580403495 3.2484140282922613 0.8677869119226731 -1.020893534074087 0.05887697684186634
P 2.15650367598935 3.008736329596213 8.691572622235572 0.1725089379374255 1.6010182252232426 0.5929290420026756
P 3.5911178985713357 2.3575458688414446 4.721666522719479 0.22729888919411176 -0.9495647046221128 0.7269825041773803
P 6.5370198991472765 5.543665860362971 13.371838559834034 0.5772309145411284 -0.3482422963494196 0.2480744311785663
P 6.06424574079475 0.018169862391819426 13.209068604658118 0.7217708780694537 0.9385015048294159 1.2640119067989586
P 6.814790967436892 9.137909340377867 3.468184815794228 0.2973995026659394 -1.3033359012095618 -0.5020695987169418
P 3.15680959798441 0.6582548280174731 10.900607272486551 -1.0504879599017523 -2.1778997268447524 1.005697543059939
P 0.6477246611540759 3.7276569416324072 12.41743258503804 -1.7935131193642917 -2.3666415817012725 -1.7984244406229801
Ni 1.6185072075136535 3.396502048687272 1.2177486584218074 -1.0901459406130065 -0.8433971702243991 0.555553943788327
Ni 5.000201929362106 2.545467995633987 2.5853122440362033 -1.6317912447400411 0.34262983525864865 -1.288598080778755
Ni 2.035168419950205 2.698215806181139 6.409223264123919 -0.8244175437981028 -0.7267372209357935 -0.09243938617834403
Ni 6.7646157042632575 1.4907824885235108 6.455077111301692 1.5002073271517518 0.011814219026108685 0.0773449537390668
Ni 0.9370198127661319 7.861325990783037 6.592733618878869 0.05377693661113964 -1.0736746824308605 1.5731778059722066
Ni 0.5970266237389963 3.837015412140029 4.475245312908914 -0.38115781613051775 0.6834624694075584 0.2097853057903806
Ni 3.243938638225286 1.0805383990507318 8.382618577543981 -1.1528924277126078 1.0756940268537345 0.04133202597956753
Ni 2.639290758966384 8.971875503694514 13.161258272576735 -0.9580156636029437 -0.8324242161526632 -0.9300515742898497
Ni 3.4531589748544866 2.669744433031528 10.523006608090261 0.40598824491063634 -0.6676468425315405 -1.2347789780757703
Ni 6.107635080834281 3.2698929502123826 0.41031508350556767 -0.14053881278873215 0.8877186178495936 -0.46111861022587686
Ni 4.352146270055157 0.5648128508609438 6.178063927362109 -0.313896214769382 -0.5196600581051953 1.0113665684202582
Ni 5.891490521007101 7.793429879424961 9.94876630287521 2.666716831427162 -3.459315173832139 -0.05650719105810913
Ni 1.3741309946475786 6.831654355225311 4.542959790183101 0.3128124947869 -0.23429897466102872 -0.7349416111234569
Ni 1.5509245763003607 1.7674194962893555 3.5293005360207537 0.9060019895398137 1.9364543709469293 0.7418211118521094
Ni 1.713731411493311 1.8468959329958472 12.62144177526045 0.5127617883234653 0.5697289497371285 0.8334649987123518
Ni 7.826529694712235 8.558330652697267 1.0484666142382573 -1.3835121537498367 1.169989749514527 0.5826322880623579
Ni 4.299721325842499 1.5361449094743158 13.02365616302468 0.42425233332714685 -0.8275537754342394 0.29063981534460265
Ni 3.29065639980206 7.657794396781203 1.9059094922514819 -0.7125496165815018 0.8759915592206526 1.8721829625623692
Ni 1.8509711748780129 0.35785879127843145 5.352165449917784 -0.17294911079863765 0.04181950713894733 0.5233405922805761
Ni 8.78725413842644 5.167646426696978 0.06956585412925191 -1.9391483728393248 -0.2427800155488464 0.9943111555998682
Ni 2.438525166242038 4.728635923938322 10.621326889499853 -0.7292224492514925 0.5606365005175571 -0.5696327904788965
Ni 7.8275346751763895 4.277390475528912 9.45779923212022 0.9548349518821168 1.2298296044902948 -0.11277449819127028
Ni 7.567917795271355 1.927976650443282 9.281656582768074 -0.7243702633655138 0.7517627964458538 -1.5899789366899457
Ni 5.408555917961934 0.6330436483735948 10.21121833408967 -0.45596149150496956 2.7592600901732225 -0.4709451093979954
P 4.301251846549376 6.139480975542427 9.86565349648925 -0.7383074422718963 0.08144303506784038 -0.48593566926955667
P 9.21706307693532 5.611165511537938 3.236755332907649 -0.4377781357277235 0.16951334564421128 -0.11056180681066766
P 3.72115683863031 5.965988155414114 3.8044918471188978 -1.9464415640666286 -1.2273181509223507 -0.7814037592407381
P 8.961060438699535 1.7066135682059085 6.135286795605329 0.7923556302665515 0.12846182701954006 -0.22293032781277092
P 0.4707337714101664 6.441592855073937 10.561762895989997 0.5800023066386785 0.09916667759984857 -1.1229979541460207
P 3.679832779544638 3.2603502458050486 0.8221957237341936 0.5255831084578497 -0.5700328541307925 1.3682577986939275
P 3.1871434119941964 6.95864147387479 -0.04671130757379345 -0.0920722326469124 -1.3558388562042845 -1.2249396233878453
P 6.658751615369529 3.564204706141376 7.902946012005399 -0.41232164332783183 -0.16211911006266919 -0.8632075200821069
Ni 4.677271280215368 8.40274308083856 11.941175109076728 -1.151676810137952 -0.2712385279998554 -0.12429612567762464
Ni 0.47154513178489627 7.163426988455751 12.59581569542495 0.3254844338276136 0.6820151954380707 0.49381712890016244
Ni 0.10104294866706665 0.792360711954781 2.1291479233549926 -0.11116807293609889 -1.8296312052430874 -0.6373217091854378
Ni 2.8139360796269832 0.8845100445142976 1.6204083723917138 0.04367764339360865 1.2592296549189668 0.5923731694992056
Ni 4.162066662266174 3.8511127986509597 12.371430295791706 -0.019254477354237808 0.2700128831228705 -0.1100208467055331
Ni 4.679447201220325 5.026589581549342 1.8522426134652317 -0.05315935763179877 -0.1998132821793333 -0.26910348393472366
Ni 5.720145961870971 6.29837852892986 7.779161922835252 -0.3169969651818928 0.14418386574048717 0.8049139265475365
Ni 0.854015802430417 5.499114799786895 8.521948515894039 0.14925125296106553 0.20648375222097343 1.0374861483254456
Ni 3.0715153385909346 6.383045828033772 7.519664902985575 -0.4512268050334615 -0.19874524592613513 2.47810995948661
Ni 7.3241869827033605 7.7097122407596546 12.421198034777126 -0.771812001787245 0.45746815795748313 -0.49092232385087065
Ni 5.654020091330487 1.3496703233503253 4.520910149999391 1.2686589186526667 1.2881216553629686 -1.1912003221538712
Ni 7.447071199457899 1.174582442485328 11.451664798994544 0.6005323082712303 -1.7296893400401114 1.8428477039333617
Ni 5.228950235010373 3.348392066467495 6.162261762063819 0.7816978934423892 -0.7352156907204499 1.3814550141104918
Ni 3.283160536340067 4.559282885721984 6.103183662778377 0.6527655545443339 1.1961041872133917 -1.898964858641904
Ni 5.459653181561398 6.952832871192065 3.3267766884843515 0.5608247052689631 1.7135875493822423 0.10009176051727924
Ni 0.3334137939884173 2.214691122863442 10.738741799728372 -0.10571039225563729 2.3173846444476736 -1.1089268207649352
Ni 2.8287526264700618 3.8339267107135004 3.4386042761323443 0.9353102515856279 0.10170898440572808 0.10085460682523276
Ni 8.030420868880144 8.985631750047888 7.243798687575724 1.221785651139896 -0.8514377811406884 0.8415611454569248
Ni 0.7481959695571283 9.308885099343668 11.338393358679705 0.7698808462028032 -1.7959988619006229 0.6372677160190509
Ni 7.475256752475503 3.0907390474694774 4.789260217937882 0.6932012939618771 -0.003361974493697436 -0.09446335858690828
Ni 3.855354000609775 8.378983129864936 9.361300823552066 -1.5988808671652657 -1.876679307770826 -0.5916769147631294
Ni 8.52027047511903 8.28650648715425 4.772958328408792 0.29594194428380644 0.3215354764821946 -0.5788039154552032
Ni 5.2654983318902495 7.192645181950284 0.796759575986413 1.197262726297867 0.10941278080788898 -1.2002693743346746
Ni 5.465526324273932 4.256608585930717 10.181085516172717 1.3599544210345547 -0.04444100392219443 0.9929973218844511
P 2.9887104803471995 8.467559710774365 7.172912528836685 -1.449922977074903 0.7516617520916151 0.3745122857895421
P 5.640568105117637 5.612917312347014 5.781193454065985 0.07229427868903679 0.04767802280225337 -0.16498820408034812
P 9.006293779590726 2.8425549728447272 2.440692789243163 0.01890249333145777 1.2826922568172814 1.057037845205128
P 8.703490399739843 0.25636775040441173 9.667947101177806 0.5932090351369397 -1.327933388043268 -1.0652286085460363
P 1.3273025930197049 5.381522865476617 6.395242971667069 -1.2711451754096301 0.189155545355171 -0.2319073345004006
P 5.656463392458936 2.3410236212105824 11.396365057454153 0.30247408897536937 2.3300529839439617 0.8834534148153367
P 0.41247164250158264 9.345672916334259 0.09652053657837358 0.609979312616743 -0.2528281438134678 -1.0944767067778765
P 5.923354855723764 8.595911390054072 7.8408585033300495 0.28452856024054224 0.8241671183501935 -0.3802720710914548
