# total energy = -340870.97357224673 ev
CRYSTAL
PRIMVEC
9.15722866397951 0.00000000000000 0.00000000000000

0.00000000000000 9.15722866397951 0.00000000000000

0.00000000000000 0.00000000000000 13.40252977659338

PRIMCOORD
 96 1
Ni 1.1994504172210323 3.18590968023731 7.112829616092557 2.021157821933597 0.08330734197008878 -1.5740391255312374
Ni 1.169286506557699 6.670528153989478 4.7948484626944134 0.13717066764744762 -1.092046757180145 -1.5875276469359758
Ni 6.352790639661503 2.8990411831668035 2.2756958193756547 0.4423724399666253 0.6124100335454228 1.049857525406605
Ni 2.010863276956103 5.510032586787213 7.014079895445545 0.6571446574486359 0.7178517455207056 -1.2052855966023437
Ni 3.360116795130831 6.977130478467235 4.836610918969823 2.066297394584712 1.4719609307115489 1.0545397613736225
Ni 7.360644365076547 0.3631445475444909 7.098449104463626 0.7218323274350085 -0.3625198893143563 0.8085610363818204
Ni 8.935971540341857 7.399553428952839 6.374283570662691 -1.4008904971272842 -0.080376541476539 0.42104796745723616
Ni 6.158620766648351 8.163147241485746 5.414286437086641 -1.1120825927850977 -0.24310320321622003 0.42055765808437895
Ni 9.001619711424262 4.978134969640969 5.934961870711964 -0.8996662771297732 -0.46590703275345563 -0.44045054035356407
Ni 7.247973825671065 2.9531695608021904 11.550903299383771 -0.3586879171627758 -0.4333226710595311 -0.2791305291534225
Ni 5.2346564114782375 3.758254775647047 10.176580952480462 -0.00967891785066075 -0.27095904908622365 -0.17721817048763672
Ni 3.981874295500904 0.05370806084745524 0.8278867137980143 -0.06548008398068078 0.6649682672581129 -0.5557066673161074
Ni 6.363165779546615 1.9025057921718813 9.23112641347771 0.8142693996205075 -0.1054234571428378 -0.6301323905258502
Ni 8.736023456148207 8.637793866079724 -0.034247118849362816 0.6944055986826234 0.19974463372492696 0.46163745884382434
Ni 8.153980855762006 7.887102588496616 11.269369803634593 -2.5609799568089633 1.8565730239392542 -0.5417116385885961
Ni 9.017800534175358 0.30167481982446687 9.150121570208784 -1.351388790852731 -1.1380453353974465 1.2237700285597763
Ni 5.446105974661915 1.4365127485059077 6.3805828281445685 -0.19519969466672188 0.5705740713462432 -0.2951736986592142
Ni 3.4566431406991973 6.92041976239619 1.1985859748510814 -1.5301010293873907 -0.482191371735776 1.2432790451269815
Ni 7.09705354284095 5.2007746660458345 2.7338209723185147 -1.1565009709994727 0.6984095776356939 -1.044033976746292
Ni 5.973223518533642 3.91489832628669 4.955853601266341 1.0726662957710043 -0.32020853014065503 -1.089259167132679
Ni 3.7640146723705556 5.029067474531516 13.300737030914396 1.3681999488727985 -0.7778196414339056 -2.1917548875602897
Ni 9.162905976910993 2.2197854450750936 12.777408748194002 -1.0189466947603614 -0.677425262074543 0.8585880190322246
Ni 6.343230493112469 5.304764152837825 6.968336791943252 0.3151894796595088 0.6421636106587714 -0.5563008492566806
Ni 0.9800890086174638 4.601782035714939 3.5067185290025895 0.9134080521958979 -1.0722551763755146 1.5215045459676313
P 1.2544578887919628 2.062537517354764 9.070308998089935 0.24270648199843364 -0.024653022661989803 -0.43871041773400576
P 8.64326988871988 4.453169374465624 12.575874632024975 -0.1501154007335737 -1.0694675863280485 0.2010013889501635
P 6.696470582316503 3.113640832952845 7.006266032370553 -1.0991748835844941 0.28171885870588903 0.2509106150757807
P 2.2044928734880362 7.625727815556869 2.874682039646605 -0.994494732365584 -0.6764544135208415 0.14484849590767956
P 4.319025134238796 1.1949816897153533 9.532214254955633 0.4601009675946399 0.4588843215787194 -0.9490839083309525
P 5.88209993777747 7.349188672228998 11.87398405653872 -0.04274176184290058 -0.09371645311855471 -0.3606841216571982
P 3.768098796279434 4.743966322560591 8.536379391940596 -0.20036349825584848 0.2379939070141127 0.7131715664362168
P 6.199104873825824 7.519970983665297 7.703077093210495 3.0678264080892585 -1.1455424151054399 -0.029058350818537054
Ni 7.15539424558415 8.852631603806643 3.288833265632454 0.1935711579243634 -1.801723423089226 -1.4445154329060863
Ni 6.174197212318761 8.845067733069572 13.606649816086463 1.5517944552004241 -2.034949219290734 -0.25236020303811374
Ni 6.50842689516667 8.677911684117388 9.536944879196275 1.3649066228335074 -0.38765190849529363 -0.18291573509304626
Ni 2.2134394857278896 0.031572292405902064 9.359040075436376 1.427633055328451 0.07358188715220876 -2.0949204576380436
Ni 5.856065937165491 1.8561793732144423 0.29450287846699186 0.35003949745915847 0.7650895954617468 -1.4854011153768545
Ni 3.6796674407008636 0.6948111221365808 11.495027722551491 -3.6759583830846174 1.1470670792800823 2.395648510456584
Ni 8.286577524373138 2.549683758844752 5.661831963552872 0.28017722525038197 -0.6140848501446844 -0.6390381776559123
Ni 7.894675616462184 6.732989609555537 4.267418657330999 0.35621271614940586 0.3126808543050421 0.2535976749896407
Ni 4.319849284803367 6.595850955610763 7.328623368474378 0.7557899153273757 -1.8621698013007413 -0.6063874815004267
Ni 3.666508503353198 5.055403663683837 3.8153116349552127 0.4706232072822024 -1.4860822006042793 -0.8358206434287219
Ni 6.148703488188002 4.27810148009355 0.20826101622163393 0.5095756772859998 -0.3100866112153047 0.7146206401779176
Ni 1.3233660332186736 7.82413748536332 11.127932746634153 1.3490233759443477 0.1974995464444921 0.6199276820787065
Ni 1.3077438014057872 0.9989895282316473 11.187654359434434 -1.3997075325627766 1.3255450903167492 0.9851436301679872
Ni 4.05924371905722 2.7535419796058727 1.5084006550849707 -0.8366809345464882 -0.11969950744587773 0.5740463461655597
Ni 7.873403374667731 6.284807375312813 -0.19394918380641718 0.02034771041841657 1.0750669347926969 1.2264576026942684
Ni 3.120087521813497 1.6310946968013462 7.000891654966694 0.01856259349353577 -0.5665446384718759 0.4959102639837653
Ni 0.9197886589762826 0.6600979003568099 7.133938859219793 -0.4977462887512396 -0.4311958545245155 -1.4795819375919164
Ni 1.7035192169702305 8.97175798930127 4.495557269447259 -1.246283379170944 0.17792676651888711 2.2085174517306094
Ni 3.5236557388273924 7.318869088681244 12.275685114662435 0.6570978633711005 0.805249198399768 0.3840788464320547
Ni 9.141642892345036 6.042497952100163 10.682794375143247 -0.05486708435152487 -2.3728713646610684 -0.07219143456258534
Ni 1.2349987782395695 4.613713904444241 8.956535012650779 1.9373627416938117 1.8108240998389138 -1.2792300093002937
Ni 1.7102406226857396 3.725206338007712 12.509063492923673 0.7257751141328403 2.005723489656397 -0.3690877723398611
Ni 2.407874918367404 1.769606935020406 -0.009719482324851921 -0.009547020258486784 -1.5713091281945841 -0.08539739172989809
Ni 4.312468558636201 8.179291435322861 10.221371704219251 0.6702115179349232 -1.8423836198127495 -0.24217554919562806
P 8.058086358959812 1.3447115328410872 1.088281663288771 -0.6567129692278562 0.10851238048080665 0.1477823817250229
P 7.9019281414304166 7.373006623545127 1.8352624318856061 -0.3008630357345077 -0.572873151793065 -0.13424552358085268
P 2.001449646062992 8.591916151318552 13.4266544170611 -0.676983289441118 0.44328980957457204 -0.70384437549802
P 0.800716301129776 7.502031973043113 8.124720763551153 0.9629367550536447 0.3389089347636357 1.908638634286242
P 5.3457610648110325 0.8740629542081314 2.407804407707991 -0.3951777845586936 0.6820612181846576 -0.1574425305226063
P 3.8979574535704886 0.2716244587944744 5.302670810403812 -0.47796036437356393 -0.386536821054244 0.17820470277062211
P 8.074734200364166 1.0429808539227992 10.958028613410546 -0.3083346615212045 -0.7425567044665534 0.21461203775506263
P 2.190821131344637 4.138810877452395 5.329837560180652 0.5833113164072534 0.6441361610041101 0.01934138064108927
Ni 4.132281773535286 5.71861593745188 10.699011826808324 -1.1009700278117038 -0.29364517782982974 0.3274150751914232
Ni 6.539524843136519 1.528487951512138 4.207777628141475 -1.299645339731852 1.20654569426169 1.3537542057611136
Ni 4.320728378738911 8.125657548026217 2.993763554721607 1.8263612762425643 0.32079319899953135 1.073240165996603
Ni 8.1755552860968 6.095271059918254 8.403507090751758 0.7070505411401437 0.5572225897400016 -0.33110615088976525
Ni 8.82192741666209 1.3948382016240526 3.466349802904156 -0.5458842819090469 0.9457766983345907 0.41399311749298384
Ni 0.7273000531148567 9.298616103210508 1.9354324386722301 0.8089670135709875 -1.1889439220195268 -0.8774120937172631
Ni 2.804621000152343 0.8804702669862535 2.903698549579484 1.505032516454537 1.3316432327946872 -1.0902269303625869
Ni 2.685659444770629 8.028215479608326 6.837447946446484 -1.5477825058275538 1.5923754619465802 -0.4131410539053336
Ni 5.7544115436397885 0.7330855900781519 11.490806240215186 3.875859596992067 0.05031700308699721 -0.03966183736599621
Ni 2.6724638785089825 6.842931294869436 8.972431045595672 -0.3449021762325931 -0.8614918229425808 1.1431883130509666
Ni 4.29177322223695 3.8640299219956096 6.538410408428647 -1.0221340913494075 0.7329993997954215 1.4307759718328068
Ni 0.47521345703783485 5.923921000315249 1.8386130617920158 -1.4425143433156578 1.8792491253805315 0.38461774965466017
Ni 8.520929316023421 2.533951640289923 8.020542637852161 -1.845266083566867 0.09370102649958702 1.9466637073797632
Ni 2.3343515307790903 4.50876290866025 1.483606543211248 -0.760435127408871 -0.03372336039437418 1.1715586366635435
Ni 1.5602635343906344 2.2706630065946687 4.4892983037707594 -1.5546589212324127 0.045098177890219096 0.27655428378581404
Ni 1.4983789842197757 6.439894197108265 13.342673474531216 -0.6133675123626856 -0.3994676701832991 -1.4368712860972674
Ni 6.038716016731628 6.1213691611296985 9.602349468000705 0.5811022245710766 0.9819374645258637 -2.2735545346366006
Ni 0.4180924971302022 3.611217157698915 10.53661295805942 -2.0506481180832297 -2.309640738836196 2.32551241576113
Ni 3.739061224721016 2.4922587789510766 4.7308513399097025 1.810086450341941 -0.4432450723795657 -0.7239563157565467
Ni 6.611326671767726 5.199117207688195 11.565954120138555 0.06311029819692357 0.9177958968509483 0.09661820014638199
Ni 2.9818957865917706 2.8725767928155483 10.235351129240088 -1.1278773937255093 0.01416112199173045 -2.027449054258947
Ni 8.723377323596274 3.445480479163495 1.804194702769792 0.5485422883571843 -0.5459537016944017 -1.026412149899471
Ni 5.713350531067115 6.702953900091137 1.1505334183222888 1.1628685650887134 -0.5852995504818759 -0.26560061298778775
Ni 4.651899547269408 8.832549801716572 7.9676166043181995 -1.4091828190430633 2.128589824866031 -0.6089606415442416
P 1.6439606028371638 2.504877439817523 1.8684463965066709 0.12440308356913414 -0.02007208815952672 1.1747699445119897
P 2.0789472708182415 5.55928931886313 11.31429516663226 -0.27290074619362675 0.8267454206003311 -0.33617559499287264
P 7.592276459863743 4.334464221481777 9.594522784805822 -0.5846506040439673 -0.26577519089243906 0.3105717783818393
P 8.180069799744956 3.862280891353018 3.9154019738539283 -0.40218918287952027 -1.1113745109744795 0.8061076897453214
P 8.704641634095005 9.207593251967785 5.395523275899887 -0.5313935444920396 1.6453782393958565 -2.1433091333540766
P 3.889780048524236 2.9869231050356597 12.062799698050704 1.3433821184981702 0.17608637087603868 2.6881724301977767
P 5.755702712857618 6.077341206524566 4.700843102130788 -0.5362436734954893 -0.22323911730244134 0.039626099032054336
P 4.841069573524158 4.783571335802521 1.9184915659560287 0.13949494490525008 0.059889477266780726 -0.05928912467862047
