# total energy = -340872.2610666292 ev
CRYSTAL
PRIMVEC
9.21032777254049 0.00000000000000 0.00000000000000

0.00000000000000 9.21032777254049 0.00000000000000

0.00000000000000 0.00000000000000 13.48024568931011

PRIMCOORD
 96 1
Ni -0.0835035942428479 4.453405292024811 6.206453019346039 0.9321771052732848 0.5085498071246467 1.362594429760563
Ni 5.494301269409324 0.16551143126334064 6.700059349952646 -1.2348399132206926 0.06968872274538966 -0.970011402512239
Ni 0.671448548626653 7.481015011084926 6.144053049016876 -0.6658085037712211 -0.1661806817265525 -0.8383971459066464
Ni 5.782243745040415 7.280865379317686 10.971477776481672 -4.235072790530694 1.4981689565654845 -0.31695994129637023
Ni 7.808718471499927 2.52665078383155 5.34514645915079 -1.1592286543432808 -0.4524568207858207 -1.5863935333315324
Ni 0.8566304768098453 2.944339146108681 4.714379007047661 1.7304061636014778 -2.464294907980388 1.8627686112270048
Ni 9.050464065558694 0.4496693832326961 4.533986449280878 0.16382477989986624 -0.541019497617578 1.101696107344451
Ni 2.4213398966369146 5.845629220436031 6.491654501446509 -0.5800966661246978 -0.021310588552318138 0.31738880130367275
Ni 2.2816100147382077 2.5445556609267372 1.233506034877 -0.6204038503841767 0.04933047080401182 -1.2845215967165362
Ni 8.070172044597191 0.9519886838660756 2.340318485715647 -0.07701842363758349 0.21172443179462247 -0.13398558505124666
Ni 4.606969086164758 7.530879725381914 2.410914726686275 1.7542354048105915 0.9029616600515932 -0.21918140229329994
Ni 8.602823717523565 9.246708518371015 0.0021717952772866036 -0.12448998685598558 0.4549212231659133 0.257679301258182
Ni 6.305823245158784 2.9654031656131523 2.2393382946167715 0.990091718201882 -0.4895308428199827 -0.07537651715878631
Ni 3.0029260407601654 2.7579773749440615 3.6671389559269523 0.18748407119001906 0.4093409634329531 0.5018471982934906
Ni 6.918742924198614 0.46655007188499 8.415353022900993 0.5795842452646535 -0.041500176126315624 1.1256713872131257
Ni 7.39120510544955 7.840807253289862 6.30516931189039 -0.7108786566369821 0.7399879152981127 -0.785198707506796
Ni 5.845675272074651 6.527377678556279 4.373140049009673 1.1797907947653488 0.5762829488055623 0.968581869154564
Ni 1.2788540044582057 0.8701512379084745 2.7086533068844645 0.43325736503923445 -0.31217126165847525 -0.9877013635928344
Ni 0.2590487565285636 8.981239242386149 11.324902919131103 -0.056700795126153954 -2.0352068438274946 -0.17818310550406732
Ni 6.052419498492176 0.7590083711990898 10.669277713534045 0.6417879724869077 0.13747714314427292 0.898352443414356
Ni 5.537129293325282 3.039813403294232 9.718353743552846 -4.059769320567266 -3.0226169014321553 1.3372304970744775
Ni 3.752849344692438 6.6278899850067825 8.950856213290674 -0.541707524823538 -1.1830362982858398 -0.43532118954679866
Ni 6.422232577260673 4.628300205173222 8.727232219253628 1.0501357187686562 3.2708774804795993 -2.308896147360688
Ni 1.503429425349127 5.064482905519867 10.883195864215685 0.24386862062733483 -0.07478696320390346 1.197564573809002
P 1.6858307555924856 8.258191674752105 3.9309605042820213 -1.8030218301856753 -0.056382235444470644 -0.04874040262849671
P 2.254319813692405 7.857266108932403 7.944218970907837 -0.7065388916110477 -0.34797438740001363 0.1016292802077282
P 7.991331639280935 0.7856943747462067 6.554648537913861 0.2975082603296618 -0.45515905020833225 -0.768184946557619
P 0.07071597523103823 6.685344009348232 11.516685889193987 0.48766550747646975 -0.45947181865107317 0.2849481642764641
P 8.179415741729915 1.0022310215997416 10.127694785813842 1.2044245341536288 -1.5938273639017582 -0.9004846592660104
P 4.221756339441964 1.9908952304622347 2.078761756947876 0.9546981691939365 -0.9766065392312536 0.355817023372884
P 6.173876090186741 3.6495923605802236 11.895467064067208 -1.0077737088626773 -0.4252591773251063 -1.0856711926711045
P 6.873870207527959 8.05161323423361 2.031769743867961 0.9800060518311057 -0.7488114271270137 0.44763291703461616
Ni 4.804309567976221 1.4319112305733406 12.710091999226837 1.9531649988333912 -1.440087736152036 1.061876661354668
Ni 4.924863547553848 1.9371253372103299 4.91605663218429 0.04359408254086686 1.0436989620043766 0.4448581825029564
Ni 4.482813868447102 5.102668924262998 10.643894050327082 0.3239140040167002 -0.5309148050834082 -0.7070857652534532
Ni 7.356012443216674 2.16312835889845 13.348772964910308 -0.5167547115329424 -0.08599748720774222 -0.11360676428457854
Ni 4.651326024482877 6.740458610447821 6.531852976797303 1.111843223080782 0.6983447858360295 0.7837966849529469
Ni 3.3147969478178485 5.201329954841006 12.642003730495418 -0.021728392816027096 0.28343018497004085 1.8481197509655785
Ni 2.3959930747408467 4.670870339912911 2.287638174233475 -0.5933784708352683 0.7528768554456389 -0.25941531011268226
Ni 7.36575696994852 5.762708639938104 2.7233732526527406 0.15966884874996373 1.532933356629863 -0.640373094417252
Ni 2.602221522805835 0.9166449722585286 11.975661387558874 -0.38946170801052277 0.40245760604955855 -1.0519146650459497
Ni 8.841113316395317 4.2659659125165 1.2280986514703207 -0.20783203871875172 -0.3171430038414538 1.090205075985716
Ni 8.439856178777555 4.187033403923005 12.322143785170057 0.9227100463231142 1.226578701653165 0.2665544922606248
Ni 4.803158277010738 8.748816622274497 9.095862691942381 0.009094763212416595 -0.5899452767840033 -0.8916881440203029
Ni 5.9002188328553595 0.6222921085316305 1.2946782685205727 0.5828958261363897 0.02585347072799419 0.2727886460957947
Ni 3.5293515321452085 0.2162584949562742 3.474088644769265 0.32724975325815253 0.6332570521977611 0.4509900064323072
Ni 0.8205536231154789 6.864005946535703 9.37427063631373 0.4309474859591352 0.34177622900910165 -0.15218333900619596
Ni 1.2202302684958255 1.2229749461575365 9.765629434726657 -0.6884663503800531 0.43043043711340057 -0.8388776850874907
Ni 1.8593441195823173 7.83770337284692 12.911689494512268 0.05349642925624335 -0.001089119299120705 -1.0377044349838385
Ni 6.685261116398718 4.878121134355249 6.071313564784906 -0.4703558125534287 -0.13675646292816449 0.17883847969987912
Ni 3.7321721589523684 3.0246347832053075 11.841815984042942 0.3521010079738775 1.790443736410349 -0.7405026501510021
Ni 7.004472654652319 5.445836524926364 10.797865861985196 0.5321263088930062 -1.8690503304706585 0.7692977200058235
Ni 4.703705158248479 4.995598864473105 3.1188030159196147 0.016093820238069056 -0.5599441024362227 -0.2805016984693363
Ni 8.202984970375278 6.212172632862559 7.719018168764465 0.6135631733132595 -0.07206982138305654 0.39261388048625934
Ni 3.623048196080054 0.13690231128748126 0.9797458485274779 -1.4384157477662516 1.2012055129956989 -0.4010203593823997
Ni 0.721795884096371 2.29716625826381 7.5769903100986555 -0.43775088203421386 0.007561357287025687 0.06746883227593542
P 6.803024366676014 4.2988928341293065 0.40376695192251394 0.44945120119027754 -0.12126350949888792 1.0506404263192164
P 4.923085954303143 8.406993729458817 4.794060315285107 -0.4332108280720153 -0.3498654337751394 1.0266836583933028
P 1.820918632318366 3.533827751419005 12.598745584274756 -1.9171384442271373 0.019796723010953005 0.09045475164814744
P 8.295438240067403 6.188133677503279 5.099064923024651 -0.35568949665608424 0.7597399011140593 0.020941378138357482
P 6.2608952665217865 3.7867341403885253 4.219829538882132 -0.9964726820275612 -0.0527675215100188 0.7759141968810765
P 6.22708415344749 8.940354597619926 12.669354719704199 0.4552580376800417 0.8384750503324334 0.06731482319657439
P 0.37776895985636927 2.863969826390263 2.6820428280246835 0.028731306496421485 -1.3095338024901577 -1.4193127083882138
P 6.270916103085349 7.070575176726474 8.297144913794634 -1.2477316815816963 0.6241604892131315 -0.1626454148797844
Ni 3.3509843254449017 6.864226994401076 4.250914394950166 -0.8358975194132442 -1.313113806531932 -0.1833296827020133
Ni 8.477268529991882 4.30877551577701 3.8959124441944097 -0.43683685486037666 -0.347991099570562 -0.48176225461815736
Ni 2.831236321659658 8.462292537112882 5.902999430795194 0.8631663824315262 0.8496331238317819 0.5637750461465387
Ni 7.693727529867513 7.392448499692271 9.893529571696835 1.9371776222661994 1.9213221432911811 -0.9181622790514316
Ni 0.7962696730387449 6.104052595712145 3.4035863491414204 -1.1508710264072048 2.2086853447670416 -0.5906605576834731
Ni 2.8785405648494122 0.8068551026917792 8.136771003335664 0.4277125239616053 0.13750259706556966 -0.409756710814133
Ni 9.012213574521496 7.382317139196023 1.395111366152651 -0.7243152417578622 -0.38930075695262634 0.19887688640799298
Ni 0.10354342530442633 2.1430222134772596 11.6243389627288 1.484450321427811 0.22204124033959824 1.8239907191278588
Ni 7.388644634342316 2.7029732977771594 7.546295050893342 0.5400126536196184 0.11569167183806525 1.4309055554321357
Ni 5.1219369298613175 2.6030596626287066 7.4099020707289895 -0.3627556594742462 -0.17051247633268696 -0.8275856571134392
Ni 4.497789861326101 3.8555352884857723 1.0561970948321648 -0.219179602521087 0.337703858711941 -1.855935133244939
Ni 7.614398977181892 2.98900923556941 10.289377483842374 1.515114069060255 1.2375735101017717 -0.5568155841095701
Ni 2.588387610564595 8.533948886804527 10.187466128610616 0.06205228924605443 -0.7684058043191734 -0.14116693329103427
Ni 4.61658466830847 7.5701065111578405 13.240984499557953 -1.3097456613906475 0.05982160014332278 -0.9890617342754708
Ni 5.930861593192648 6.140525493498637 0.9924828107368062 0.9407746171343089 -0.27933313208253185 -0.3632323420003486
Ni 1.1492831140389186 5.682339320219686 0.16976660267176477 -0.0838146206238105 -0.22371142895316956 -0.4038146342980852
Ni 2.6947300544643027 3.0769586550045664 9.720281465145453 0.9177326477131809 -0.490939036021419 -0.5761536223165497
Ni 4.12164928741131 4.666403330966839 5.434399139958873 0.9282646575927561 -1.157785494138851 -0.6421546117977069
Ni 7.4025430188776244 7.184433248048853 12.448103306088818 1.561509625605659 -0.683915497784577 1.8260424594505646
Ni 6.559549353295728 0.3856401059291816 4.321496820429208 1.169186279776625 -0.11333911244548868 -0.5029414597989338
Ni 2.8382085397466215 3.179156451428536 6.8048415643359315 0.15250035602598253 0.835219005288981 0.13287821091968083
Ni -0.005584221698977388 8.87959406562561 8.014275486673846 0.6759579335003971 -0.05723069948769499 0.67604740789041
Ni 2.2686971352693535 7.585579861733929 1.7565430466924343 -0.9735448695867944 -0.806778747670417 1.1503269809782768
Ni 1.6730284000563176 4.723949458585527 8.577143481763894 -0.894297556618692 0.323921460215868 -1.4935242587046214
P 1.9146429272363834 4.8116962508107575 4.524752174704934 2.106329470805934 -1.0198890040689728 1.7231813637182647
P 4.251708325199962 4.410457533848444 8.304397125844403 -1.5070125229990432 0.36705814350434207 0.0879497258381066
P 1.511967399149147 0.6731902215992354 0.23356285868386567 -1.4054135818086182 -0.6030489040454968 1.534580405314983
P 3.7685805844447935 5.98166576091747 1.169205973938404 -0.9427530810169183 -0.11272641856215426 0.06441101928621809
P 3.9912770984800474 1.3022206058936432 10.131294181888329 -0.5856042262064882 -0.02137435191071803 0.5512098078870185
P 3.336975416976908 6.866934830751891 11.403155705538577 0.9599403914294823 1.2991282908861175 -1.2322608396396069
P 2.195576343469615 1.28124868966641 6.167212418078527 -0.8644591331010207 1.2009746279318154 -1.2351309620985502
P 8.655506792104054 4.262622563552739 8.433025799737539 1.1755042515748528 -0.6951815576166996 0.4785540320935049
