# total energy = -340865.11374005355 ev
CRYSTAL
PRIMVEC
9.34748787990854 0.00000000000000 0.00000000000000
0.00000000000000 9.34748787990854 0.00000000000000
0.00000000000000 0.00000000000000 13.68099337080148
PRIMCOORD
 96 1
Ni 4.301227820971177 1.5001970136636607 6.449370255679701 -2.168824761126678 -0.3459267608423655 1.3493609617894244
Ni 8.117872526364394 1.3762119353467677 6.056110226511601 -0.7509482709643582 -0.4666212852116609 -0.5889870266357922
Ni 0.603853321043296 4.239169849398058 9.59277056426926 -0.49799182910314227 -0.1940774081368206 -0.7289118599896092
Ni 5.161710811355796 5.114337743132785 13.560353829080604 -0.19071980451849735 -0.34274347801837746 0.13125944436933523
Ni 8.579647771685025 8.458766059321178 12.933217785399211 -2.3611273367512626 1.2104617414866443 2.8179151808122693
Ni 0.5591377436047767 6.6167594588953165 0.18818082035224631 -2.0039566275639618 -1.9609970932832999 0.890634505944808
Ni 1.8395295161561103 4.590149321702242 5.092694569856629 0.10518074500441241 0.21690546177492967 -0.07418172551973676
Ni 7.216924261248636 7.619492518778314 11.321254729484387 -0.18986465560705365 -0.24400823152899268 -1.6890702809671683
Ni 4.599786581634745 2.110821654876797 12.873732242471508 -0.24421263423031492 1.7467830622976046 0.7060303274057453
Ni 7.319727932187207 4.625202400991171 1.7037488429712975 1.030341052640232 0.9293486346855544 -0.4613736636594764
Ni 0.6438278526643902 -0.3532611940786982 5.331975301821885 -1.1585298285040433 2.2542290948351114 -1.0578045481678235
Ni 8.042036357758775 2.398808406826824 8.565327420359521 1.2621859093338132 -1.3063361214884663 0.5948848801774658
Ni 0.02717127756721537 7.5347949317284515 7.0159551428230085 -0.8686492599229685 0.024415195619570854 0.03920340967233893
Ni 0.052265543342964085 5.5813756240906605 2.5188899742341015 1.142796991149819 -2.059985850544388 1.2899065151775333
Ni 6.6040936129122505 0.9091011439839726 12.807831518659542 3.225840751954935 -0.49137149557314724 -3.3043732982441996
Ni 7.440151617648344 3.2906241763518396 13.401257717050358 0.13424886601496233 -0.47843010492113097 -1.2349625548414862
Ni 1.053387096327451 9.054612322306102 2.428157649053858 0.3139558643627238 1.3061047222039506 0.23753753620298448
Ni 5.159701101476564 5.838983040656949 10.38862128493778 -0.8799903959674007 0.35315361760810793 -0.7041824755637291
Ni 3.888882091191842 0.023294874372250387 8.91617696258314 -0.29012173805760355 0.9264510014227851 0.049809724433275505
Ni 3.1915408055618015 0.4228981087684743 12.559685629254922 -0.3758793413403978 -0.8964326006838239 -0.3894118286091939
Ni 3.7411170038853396 3.188166362462254 1.3746658608629305 0.9452627348126496 0.04365424635484094 0.8132039344704705
Ni 1.5761733945864371 8.58468606761482 13.743788929871519 0.6536924372339774 -0.017703845037666286 -0.24653459749527218
Ni 2.146949695263919 3.2972702401850205 -0.37448840414729234 -0.2641425403850225 -0.5040668316526287 0.31658276046260964
Ni 2.5451339810105273 6.753644070390536 2.9101253375424725 0.12593777504610568 -0.45713288610525143 0.2934394895769269
P 4.10919303139471 7.963872664688369 6.172467754775224 -1.3445763959165875 0.6303306225795854 0.6098880384545173
P 3.342325131431057 1.392270919405002 2.713200877092396 -1.0122163180150632 0.6875063004596289 0.11723536217610131
P 6.001021741849903 2.964116427135233 1.1935517412953323 -1.5393500587894842 -0.3163140801822552 0.5343485133553055
P 7.253557065977519 5.700294364014326 3.706481757301535 0.45322969439610333 -0.01874411337672256 -0.6408441205163995
P 1.776667660631298 7.046697160733789 8.326499106804286 0.3141679803735299 0.945267877018972 0.8567879897090083
P 9.465359631669862 4.206238649842086 0.27801017821000734 -0.4133233451194689 0.8197041974828335 0.6718320842574818
P 1.6695454503243323 3.896967668147821 11.374719555513424 -0.11027847124229395 1.3939595743354058 -0.59208597727609
P 3.8090638927789993 5.055710299586076 3.5798644264172386 -0.2756196877866866 1.0741652489140339 -0.5101786009773214
Ni 4.310724868586524 6.764403028860284 8.098860670906861 -1.1742135577878874 1.110508049209126 0.8512205229235598
Ni 1.5534029142803492 9.113828657584865 9.511546503689734 -0.2826102601719068 -0.40565811526472717 -1.6825782454849214
Ni 5.992319230698438 0.4626361489479658 8.03313754936329 0.8949213062456202 0.20191001680736195 0.6428459814377768
Ni 3.866831367447153 4.1722885741147815 11.773753527901995 0.2762796899681887 -0.4233948704228579 -1.1325159209387852
Ni 6.053348978612415 7.111839803284334 6.575085553990296 -0.24576300943657026 -1.2085946063709188 0.5748390172701843
Ni 5.47563684197963 0.6638324113273866 0.7988465905117481 -1.9841377930658217 -0.2875678612874983 3.4418337292179237
Ni 0.52565317277043 0.4881145964727212 11.442290675397103 0.19476235001898717 -0.8958101366084766 0.3210166278642471
Ni 1.9858457428520033 1.3358214405181117 0.966773274276461 1.0517768539165047 0.6878667691228412 -0.07468514751871654
Ni 5.102270136369584 1.457507036833651 3.862486655112888 -0.637593989010218 -0.4396797236258105 -0.31444823061811006
Ni 2.7643512651395814 5.146296803956478 9.288833259119599 0.3843909783558348 1.1739772734073652 0.5787913170497129
Ni 2.429785981430426 7.675745700421186 11.17553861150592 -0.49058730910895515 0.340301187125472 0.34923937015536627
Ni 2.053437427208868 1.8478113903561078 5.201650757271992 -0.6832740075458361 0.49721047085242753 -0.0352379972666877
Ni 6.697381541259852 6.830143910630694 8.829493969122355 0.1728087285660314 0.6247400158656854 0.13108538068531617
Ni 2.121300188712234 9.32811981563785 7.080310726899919 0.9938684116354948 -0.15042033356850223 0.15098186249892706
Ni 2.10133395474926 5.142950403320362 1.1038177278132373 0.7061205731267065 -0.5218753205889592 1.7076832680826655
Ni 5.800910722805267 2.8605088722449703 8.499754793369698 -0.12736936528630965 -0.052662106280406074 -0.44108971659945967
Ni 8.608447381628809 4.661928680598158 11.763095522300597 1.709528034600888 1.78192824274017 0.23979830721270315
Ni 3.9334135231204965 5.384377318486881 6.040185846277836 0.5353098488273104 0.4979769167048068 0.36982182229240823
Ni 1.146310472650448 5.287761684478783 7.218994729798636 -0.5684225722208791 1.1266689752397046 1.3880246969082093
Ni 9.33576606066674 2.3343200884230058 1.8095577312409048 -0.271601567766229 1.4960459966852104 -0.444423408958383
Ni 2.2964347203275315 5.807846558760569 12.6336308010765 0.9003069960375655 -0.3630248539752329 -1.9478893522567484
Ni 5.986944425207469 0.0062955330402915755 5.6015325468049655 -0.7733760038402552 0.008365084135243658 -1.5341314907030226
Ni 6.719095755443368 5.074237020426251 5.778851586321548 -2.5347122813616862 -1.4552173927046228 -2.729518083024099
Ni 7.623455853609915 4.561480576587804 9.438120117441631 -1.3432905872256282 0.05980128842834862 0.4706522607479249
P 3.6544003594684358 1.475229873722133 10.754655821109363 0.9694305903081046 0.18072181276552102 -0.6561892355139022
P 7.389768658350391 8.550885551692483 6.9020335698827715 2.9568216002039014 0.8692102746327611 1.1091463929749092
P 7.9076007880698755 5.089866020045208 7.323052833601358 2.736915918150067 0.34790908137971693 2.8697429641168384
P 3.28057562695568 7.098678540447318 0.4154743339494697 0.5203989931537488 0.011823732107805443 0.6443174237769806
P 0.1558282302917368 1.4288102492557813 3.816203503968568 0.20447032133537046 0.29064547177155753 0.7002679710006714
P 4.379728023602756 7.890803352474621 10.322938357591795 1.1680809625275883 -0.2425604433388726 0.03503770833042353
P 0.3118209763689363 7.229197512743666 11.840612369214526 1.0571633150393986 -1.6608349402705591 -2.69125775399132
P 2.160559637515834 3.469329448310703 6.901787730953358 1.4080299363855426 -1.4255504617678094 -0.14931604476072996
Ni 5.771008109299858 8.63425579547327 2.883365349438914 0.8629416680152299 2.776620692938857 1.8543981277751227
Ni 0.021311337458887546 3.321592403467632 6.648689542506797 -0.6157918055334621 -0.2581588119977618 -0.24240540581824707
Ni 3.215470374356377 9.165838079761825 4.5418573954274715 0.2808120306209035 -0.33885751270041 -0.15227872693347969
Ni 8.66442013863737 7.517072094839969 1.9666974140724378 -1.5486800779411587 1.5475529063152509 -0.41467008895535035
Ni 5.923063693511326 2.372345668835635 10.993184080305884 -0.04772121733536298 0.9051221580380219 -0.8460263803171301
Ni 1.6893901669457714 2.168000237812897 10.16874032917419 0.0816464093278981 -0.7432987248389005 -0.5635845274022875
Ni 8.803183595182475 2.526504437804438 11.091564520012582 -0.7512781434999513 -0.6178836550654843 -0.2623954757869288
Ni 9.015352873502502 6.524453016767805 9.139053788189958 0.9065069542006904 -0.2764892348758335 0.9298733968407729
Ni 1.748073695419343 3.680348985630053 3.0889764303111775 0.4231159057298584 -1.0752677379495932 -1.4442572941486933
Ni 7.303182878762832 6.132531547854152 13.25358516987318 0.04816370418942027 0.7321195682936295 0.7682517952398124
Ni 7.742496110875116 7.847823603522489 4.458580626524787 0.09398076252353492 -0.34267817199808076 0.1879530404066376
Ni 8.603867112601721 3.4543173828872313 4.039751479200171 -0.018978083764399575 -0.05808327729597739 0.09442762025296642
Ni 5.11323473957116 7.052950630078934 4.536206839046096 -0.47052164870733165 -0.8697031551087796 -2.1820525726708615
Ni 5.5875636610211314 6.622648376215857 2.1757427619662355 -0.6921965068464466 -3.3341325317845034 -0.877535763779321
Ni 1.9083737638795661 7.005231704806939 5.598632021337404 1.3376359600430123 0.10000768544390518 -0.3922091888486729
Ni 8.04559775061453 0.4782286933644622 1.3524263178644722 -0.76266864472508 -0.5261757477365261 -0.4165174265767343
Ni 3.397905293951582 2.9775020296796986 8.642830246041733 0.12222767318437014 -1.0596608846502718 -0.31580551597695283
Ni 5.057785441879981 7.9520574400960475 12.436556780821457 -0.5389615866472848 -0.28749587039898233 0.6055870970863183
Ni 7.3371983869048085 1.0982737327929002 3.46896676578366 1.2584686083832262 0.5441714129829983 0.9641505728560881
Ni 5.932644868516966 3.805016430557104 3.3345639123020976 -0.6016761920676863 -0.3709698198539224 0.4774176044962165
Ni 9.037039045222585 5.598163712198104 5.2647201270261945 -0.332037404454783 0.5776983410958503 -0.5837327202153882
Ni 3.609878275027591 8.735143231410712 2.0431879068247856 -0.5665430958099791 -0.4839507776290439 -1.2036984546208815
Ni 4.002257770843952 3.3786588165500078 4.737905996269715 -0.24036266435660542 -1.213430337196665 1.1012117115088647
Ni 8.416562151857308 8.951603006635704 8.950242947159294 -0.7380804138627548 0.375661826012953 0.13925171854619245
P 0.2529701278635588 1.0286349486055621 7.664954025744102 0.7635867856639753 0.06458508297023716 0.08714728454146926
P 6.5049728521709715 4.7763232364216 11.523445564566833 -0.17436476019924163 -0.6314012299359448 1.4565998748744462
P 0.6745857613044488 7.56395909369684 3.8108950656410525 -0.6699117273063172 -2.368906209365733 0.375311898872702
P 9.407966056514123 1.0323739437297146 13.454340230827949 0.5031186088067465 1.1928345153231843 0.5090033497222977
P 7.464922460345854 0.926950171957895 10.457040221965864 0.16012676222298874 -0.7369460431479953 -0.19515984256772195
P 5.984158873839975 2.3381432109374516 5.651372417061136 1.7722089585698768 1.0737970669413377 -0.5517006314805079
P 4.792428957918886 4.684026141781898 8.092909125417991 -0.4209939742908491 -0.013417558957486569 0.12901718530237782
P 6.712318826780841 8.120573950341594 1.0718904484481 0.08527629277100153 -0.5195726405977117 -1.8755968733399246
