# total energy = -381176.39550891804 ev
CRYSTAL
PRIMVEC
9.16840320835124 0.00000000000000 0.00000000000000

0.00000000000000 9.16840320835124 0.00000000000000

0.00000000000000 0.00000000000000 13.41888485182073

PRIMCOORD
 96 1
Ni 3.8083712922859227 3.0254171701631893 8.198616206079995 1.4375469720080534 1.4603354306574785 -2.168775138835665
Ni 8.517574865741524 0.8637103337351932 8.359387822331982 -0.8904648131361633 0.7828865144338517 -0.3849144549594725
Ni 0.5875974555824292 5.533525530502486 8.956340716468624 0.16103513296987104 -0.3597911775292836 1.072527713310611
Ni 3.1804456986943235 4.529429524875645 0.792488344537987 -0.5017299559893359 1.6371381108742513 -0.031885021634054767
Ni 1.9158020129091182 6.905366185687776 1.4586058382093832 -1.1173065601881982 0.8737847813773209 0.09948498017121576
Ni 7.751637299828725 3.419860209637225 5.438995626867297 -0.33335020972893553 -0.9486612189712372 0.3068429074670264
Ni 2.0498257298686147 6.1176444939372585 5.198515747480649 -0.148432356604196 -0.2541790014144074 -0.18744833285607718
Ni 5.08372367292738 6.879089542316184 8.239222146704014 0.3930694799664392 -0.17877985854780176 1.4092149578325794
Ni 7.866774106339695 5.397053849907185 12.750436805080586 -0.22218856455073993 0.9097082347468075 -0.43010724944602696
Ni 7.05649814288851 1.8919733331733315 3.565504877564443 -0.41730881212977805 -0.34355466106576316 0.7003114226440972
Ni 7.973081740636135 0.8055982441740784 5.883188255407253 0.4688216352970893 0.07008672951475671 0.35747564202222953
Ni 4.586016908996182 1.2300696375806455 13.219815953859934 -0.5271648511226728 0.45600520025871144 -0.8072695712639065
Ni 7.8514537047088755 3.6977361717119557 8.003223782767481 1.476528238367257 0.06580969940595763 -0.7748644154603236
Ni 8.426230065353819 9.1231112188888 3.4741362393286 0.2722772536770149 -0.2206361324619555 -0.4010586688195028
Ni 0.4166507455363761 7.993811500113862 8.884696980727421 0.4231485587400068 0.6325001194270784 -1.062698385925015
Ni 2.285792921234503 3.7437157134106753 9.863108621824892 0.5886882644484506 0.847371838601431 0.609563308125247
Ni 5.324201718633402 -0.30168630500425697 9.809888792174133 0.962545176042181 0.938237709645068 -1.5988656976566142
Ni 6.325528866514877 3.7386455864795898 11.65499874958698 0.004251833297818483 -0.5365154390996373 -0.5295485208635009
Ni 3.857770648352263 0.9564478145583981 7.045196252349724 0.3523635176066448 -0.27195355178900904 -0.2821999121073656
Ni 5.551513937444238 3.11276454678606 6.312095322248284 -0.08507163295936317 0.5876012020318591 1.4458673189482907
Ni 9.391195326420315 2.9140485773387947 9.445069780054581 -0.23375467212178452 -0.17013375283702958 0.4118256775280198
Ni 5.262709238838126 2.2553079808260805 1.7918103626548538 0.0629424051604916 -0.9629724933875867 0.16048645955525262
Ni 2.8857640536816564 2.959863087781167 2.440439127355102 0.1499678194121159 -1.824555847602709 0.6986687448343516
Ni 3.400175648116358 0.38818835485850905 1.9615991033855433 1.0681372975523993 0.5285411626449091 -0.4456652517852841
P 5.889773002535472 4.219895066791805 8.190954171583959 -1.8822884264274873 1.080139207109282 0.20815882593055118
Ni 5.033434981757395 3.197361402469825 4.071987636972016 -0.8638099295527962 -0.31999410013700375 0.028036337311925907
P 6.005826649359477 9.410082236868842 7.380762557441574 0.2952626588285947 -0.3391061383761063 0.35164849381749114
Ni 7.088321670153964 6.983508485567771 2.770999484337779 -0.5855234935672238 0.05931072194517526 1.408761929455561
P 1.7129694304563245 6.849246390126886 7.515662773740332 -0.38570764028472926 0.5833673664561695 -1.6043830279304176
P 6.736456694817288 6.73730018790528 0.7518429797805073 -0.5314331394807235 -1.2097161215698713 -2.1247380552201087
P 7.54720024682812 7.991950314278401 9.990345886787301 0.030501768133282953 3.026486668800207 -1.530367652785216
Ni 1.6806233042124399 8.740330388196574 3.305433954368858 -1.318962294892909 -0.5682554505153955 -0.10548542072902477
Ni 4.5323725822804874 7.377089695147555 6.109349839625229 0.42280223114418153 1.3005845637166698 -0.39063515949333366
Ni 7.696874427931128 1.1793867050760556 1.4318221821446837 2.733291176913286 1.4959704062522687 1.3425426533160105
Ni 4.9454916589310525 4.810202702339566 10.070215513817057 -0.501924074278013 0.4585410793066877 -0.6524066285430183
Ni 4.028403799011258 7.182041086952431 10.433236602082747 -0.540751588668172 -0.482673196468201 0.9062429019060263
Ni 6.359085221971967 6.729387856003785 11.015079051020253 -0.8767950289585544 -1.661758737636409 0.0005178201766829792
Ni 8.600741450536953 2.755352687555519 11.828961864262919 -0.5667055895297725 0.2271410234600088 -0.9429014336693247
Ni 6.295273136184713 5.77613981413788 6.6442537318965815 1.1936660100855443 -1.3238602464151588 0.4292449014457317
Ni 6.1854906771018685 2.0787612101480075 8.637051994294403 -0.17999470479150936 -1.0361648584108607 -0.37132540342112824
Ni 8.844620973804336 5.62695155840078 6.933913842514755 0.16710370776145417 0.6938155305071083 -1.9965073703747682
Ni 0.13199199882581023 0.8415906443429042 10.624589426976026 -0.942406753421093 -1.3684079511185465 -1.1973450015990281
Ni 1.6033336658235664 4.885374439605329 2.617139010365451 -1.0291742860256405 0.6979362375437013 0.9369503582922122
Ni 5.0052238053253 7.9883746370575635 12.641944340318183 -0.44939875068578733 1.849352337821099 -0.572535308837672
Ni 5.66282751984985 1.0036467538734541 5.358925211808987 -0.6697199230104852 0.11231015696034206 1.0491399305142899
Ni 3.331724350345144 0.9215253670348846 4.303489816013422 0.6384792198286487 0.34389816044811095 0.02455480652122868
Ni 0.0828823642983888 7.756661584744158 5.347841529264704 0.4882190659870947 -0.26768706320317126 -0.41980406774780604
Ni 8.90426143616728 3.124069187845785 2.9172382647878443 0.48596189452180183 0.7616270908344431 -0.7002394317555811
Ni 2.2015903068853437 5.939007327345466 10.611895772842052 -0.9844134368701821 -0.8472535678560117 0.8503702591081227
Ni 3.3536643390360785 4.028055399692304 11.953596219576621 -0.7539847437978369 0.5433933971663931 -1.3239540916805457
Ni 6.944414414619948 1.1575017268039034 10.659183645667474 0.744407384522047 0.09645570642658872 0.40224728981096536
Ni 3.908948674625892 7.733355503986801 3.644233955244782 0.6170105084319116 0.0719975733842244 0.2634624835988624
Ni 7.534923755036577 7.782158913849669 7.122207171283436 -0.2257405435680564 0.8658256744312443 0.8187639450567512
Ni 6.794098445297815 3.833703590135087 0.788302968508981 1.3650418628597911 -0.028511220065815412 0.7151222624046846
Ni 1.9993903442485441 1.9843174895022444 11.243132993644334 0.49530759740275987 -0.9200625813979381 0.9679254665174879
Ni 5.067422252161613 4.645208119605739 2.172745593796941 -0.045291267737631674 1.51383597367878 0.5105035884169079
P 0.8089291250313356 7.927560619093933 12.886973581338113 -0.24904219440847433 -0.5004112371779125 0.42654370046448475
Ni 3.1380968446352244 2.7939883383468254 5.59692320446825 -0.8795800479028594 0.467355335164208 0.9260439957923536
P 3.122354696460409 4.339341022774041 4.089914615612795 -0.1442571421805838 1.1795046309834978 0.9983662995058484
Ni 6.779043927357776 1.7128319044093692 13.023457180857482 0.0018866754997515897 -0.2255651943324567 -1.542322511154247
P 0.9503049844610619 4.279196298238927 12.000079106607195 0.7668623710914535 0.47757984110569357 -0.7823478683215622
P 0.2906723023237643 2.4652002336892456 6.613604677072126 -0.09592091696904126 -0.2764712371537045 0.4967440727389703
P 6.860285147495831 4.129027023366879 3.4974579063712783 0.27026999343899905 0.24891929567736482 -1.2823353876984946
Ni 7.344578537647323 6.063120000521051 8.832041924709491 -0.19477366287289682 -0.02296380788502497 0.021666429229840106
Ni 7.537775128410116 8.159475376276205 12.487198198603464 0.35588078673128387 0.715177284012336 -0.23089329141358944
Ni 7.763886286410877 5.655144398026615 4.657050945929216 2.306566213675931 0.8640492992571118 0.243942925508696
Ni 1.8184060664553812 8.321572743620843 11.002492667202906 1.9800466537155836 1.001810549300707 -0.405741676117469
Ni 1.7613419253720655 3.9487945546304055 7.640404399370659 -2.330263043072238 -2.304338609896993 -2.4440754956097197
Ni 5.1568600246982035 5.761268664260448 12.817060840107922 0.09412937228625724 -1.492863999412803 0.7619577347009845
Ni 8.189566075350024 4.770109275450534 10.586708335762347 0.42316372824865833 -0.7420406840620833 -0.6351234159825385
Ni 6.864190887229362 8.035078482603579 4.884232056575287 -1.2825007096317655 -0.18944093780607374 -0.004334108598979632
Ni 3.232476386459076 8.317685340693574 8.367050773668332 -1.4722977452256774 -0.3915432731298999 -0.01861401555676149
Ni 4.241339961713701 7.142726974329477 1.3703764612053726 0.6332344264899417 -0.5813986727655729 -0.040223880517053306
Ni 5.524237938131439 5.9364126692595764 4.569009521189377 -1.2911586424170793 -0.44600155207878023 -2.348996614925999
Ni 0.33351441647127655 0.952413717181043 12.935603708381816 -0.47797039167589295 -0.5847022832175091 1.8382001778590213
Ni 9.101840523626382 7.017312387909382 10.898389117019002 0.2557633151823918 -1.5828659797942481 2.10196708007218
Ni 1.2262189082658974 0.48839808423295156 6.741178422429418 -0.5879423874213616 0.7141874092952409 1.1752332573016535
Ni 2.555774888214 8.35241525175135 5.601887894763335 -0.08117769722159568 -0.3769052115017509 0.33853355370208793
Ni 2.835796256621234 6.640940271005272 12.75251619891055 0.020395018716584227 0.3077808459002635 -0.15673419160167198
Ni 3.996690292583368 5.086776751169787 6.23668153913988 -0.46477369047996087 -0.8516167299207139 -0.25311842136037693
Ni 8.507141222979183 8.151480528746538 1.217138521805596 2.4425852842174387 -0.7245594965581844 0.16740169861784718
Ni 2.1358345196344537 1.587233949926667 8.870956294955961 -0.45777180524083094 -1.437846505526343 -0.46814209273156154
Ni 3.0450100476527533 5.461471050301044 8.388842234228553 2.1565695979084083 2.314284151145479 1.208461423227164
Ni 0.6905797100634903 1.593505137667828 4.501633677105354 0.649616467392391 0.16915904762858608 0.045807545252417876
Ni 0.7805547510235199 4.102356138660683 5.252768856164198 1.05306291971778 -0.19658449082939045 -0.6670758005194188
Ni 2.252557459886974 2.3811626505964325 0.16202126959865457 0.2086820454238729 0.7228155172838842 0.6487993708077343
Ni 0.12825220718893934 3.6012203919587327 0.47011995575228027 0.5235395956652596 -0.4287813315457519 0.6096859497460403
Ni 8.564104511628063 5.542409713135798 1.5130597349214872 0.7335455021068786 0.21136550579330696 1.5991104666775686
P 5.372244151036451 9.618663408084366 3.411174064511529 -0.7389854421755273 -1.122396573116596 -2.226052632400895
Ni 4.375776256814063 2.2806127734658537 10.151721700805581 0.2902937448590936 -0.9601807895750624 2.4031391624066742
P 1.2026652806240212 1.4160140214673294 1.9201212476238274 -0.3580888501261962 0.14633047976984478 0.19865834263928367
Ni 2.55783777891833 9.342877841923357 13.216461235154538 -0.2081948213748092 -2.488963871481978 -0.8353799563468773
P 3.8123503792444957 0.4042972391585388 11.19258483666576 -0.6206486194051312 -0.28854410915783857 0.8019383888589802
P 4.916647862682962 3.5380409259874717 -0.19440865365662563 0.029772860387058404 -1.466592467310784 1.5639814841849193
P 0.3467077485758542 6.86466764419214 3.2159695934631882 -0.22133187297739945 -0.04756078049809873 0.019016136091186606
Ni 6.256463285733929 -0.44675703089551544 1.231772210041952 -2.7267680310827878 1.06400836298569 0.29777668349970005
