# total energy = -340896.4688786243 ev
CRYSTAL
PRIMVEC
9.00142587428111 0.00000000000000 0.00000000000000
0.00000000000000 9.00142587428111 0.00000000000000
0.00000000000000 0.00000000000000 13.17449664508732
PRIMCOORD
 96 1
Ni 6.473843599925363 2.008110129032107 11.456002384003396 0.053076310999689236 0.21106700071628165 -0.17190344314294267
Ni 4.440907537916715 0.28352781707338004 6.0106005119806145 -0.2821659735456366 0.3785805423216448 -0.49563618438677226
Ni 2.5357917254609608 1.4719761935659172 4.518865288147546 0.6963233845306266 0.44346413036890725 0.8704999399784621
Ni 3.5303772897988703 4.4910544823011636 4.834170839516459 -0.13721617617340237 -0.8724974300244651 0.6399776587510462
Ni 5.018898104398465 4.386808967507356 2.7746148603245175 -0.44206827846264507 0.48295138983025215 0.12501654878341698
Ni 7.173083374961864 5.955487480858255 2.655319861359761 0.34382951199370465 0.5205925972217937 -0.16303236590555792
Ni 5.160778581402177 4.611790609572499 11.604386391310063 -0.5629641202094692 -1.0057538502191712 -0.6186835252589603
Ni 5.522860943251835 7.844940812030767 12.462599451228867 -0.39406372555890845 0.37404074546976224 -0.20365065364755253
Ni 1.691953042761242 6.612870624879197 0.4423372760020304 -0.04949193608254057 -0.8990088460514323 -0.6599091075676505
Ni 2.605138711556418 1.4990164773445718 0.22399778620062608 0.38528417959406547 -0.1823079263057183 1.0338212978793486
Ni 0.6222541788163555 8.870374263355844 4.580219007932934 -0.7955664238943653 0.6509290155562274 -0.22544820913861816
Ni 8.578404008813756 2.3080826513102886 1.1738435627672155 -0.41103249220276306 0.4051942882544312 0.3416060219798246
Ni 6.607127715075341 0.5975506652337526 4.7328588894641515 1.544809796352475 1.1552652988201588 0.7478156388726477
Ni 0.9089730014155454 7.278337049470455 2.6720778161902277 -0.017787405890408076 -0.12124422622517829 0.22433003637377494
Ni 7.45519706800674 3.799636946480258 3.9732042433766526 1.1556458220880292 -1.0411250306296134 -0.862305834203444
Ni 7.569407161410058 3.959520275533673 12.657160774043025 0.18635818511569194 -0.6571652262739263 -0.4788273403595496
Ni 7.801229887254088 8.712624272270318 7.021387743020655 0.5381501464895828 -0.6754501406260431 -0.7465162033349337
Ni 6.931143046265902 0.6774509232007458 0.3157952289446658 -0.3937827039833799 -0.04867843904230971 0.6201076592999966
Ni 2.002637262008997 6.553236177464554 9.188328934403872 -0.044535363408213624 -0.08046421609433883 -0.02016310521143624
Ni 0.04768955507966409 4.800253466254818 1.4081425809106818 0.3764627246476936 -0.09565635045374495 0.6602947730418435
Ni 6.36203688727068 1.7412538530993547 6.847141738601986 -0.022112258518007077 0.9581614451521886 0.47712424162551376
Ni 3.120425344349051 4.51676255502814 0.5768176806707117 1.1351662140774386 -0.2985297596156407 -0.41764819774706785
Ni 6.093065276222087 5.50711744913437 4.784792616914533 -0.6204982098701958 1.0343347471806574 0.10525530699608969
Ni 5.299778602077937 2.7422214284888837 9.446140577466853 -0.02496078371039572 0.3337245623492188 -0.4933725851635761
P 0.09804353226268428 5.564672567137271 12.484272184668903 0.7055508166661656 0.01593852560712739 -0.29063852979302207
P 3.989378005658106 6.136596172478271 12.60454203807215 -0.47192084304770343 0.24227710777049888 -0.020935207490770394
P 2.2944724951607127 8.483600989920017 1.332126438273412 0.2756662247539059 0.7626043671460478 0.5485667138372166
P 6.330819941816494 7.541655764975441 5.796910258721046 -0.10453951187598769 0.6624866384868396 0.4916064944020888
P 4.649110521871534 1.1930220010557642 12.640508135897047 0.9522137122091859 -0.2465394825912786 -0.32007457566595204
P 3.9445779083324197 6.1700094658825195 8.191045642686314 0.0337081908857226 0.43548188349437905 -0.2739926937062249
P 4.63415015181823 1.1289858563149697 3.717368413326126 0.6674933476728118 -0.60701817310589 0.19221824344089475
P 0.10649767158522495 5.412260421684483 3.670020012292804 0.7807535272512489 0.5590223619529018 0.3320471746467959
Ni 1.277329357204525 1.1985128709309236 2.4373215256046983 0.18093521432790774 -1.3188098284754448 0.41352671937952656
Ni 1.985903611028798 6.346959498679054 4.898778574809833 -0.9203474596282085 0.442150039543174 -0.9551982487588065
Ni 5.8409083289879185 5.5338966915583025 9.118767714369023 0.07321524784140938 0.682364094137057 0.4787766896272722
Ni 8.578980100079345 2.456210117975247 9.882466701169488 0.33956662295229256 0.1067249495630807 1.0929250460200404
Ni 2.369463375373752 5.211897679797309 7.04333592009705 0.6277883157737059 -0.4325402843675518 0.006417473490569593
Ni 0.5398344217050062 -0.027079890053163733 8.920412290485391 0.33283933153078804 0.07202482707773401 0.7269004859865352
Ni 1.562161480908906 1.2527104570265555 11.287961962686259 -0.8858491687410227 0.6142236897153939 -0.6915863840662735
Ni 3.9453970381006807 6.930350920775714 1.5192831880395252 0.6234084415384554 -0.36861777468197804 -0.11071838699318996
Ni 5.5073694890630644 7.80260710543589 7.935381739872861 0.22665971294821607 0.26303696602566956 0.4800540136777991
Ni 5.103214461973251 2.816195147561115 4.912308618267787 0.6594730484714965 -0.12311521799564604 0.21703684514647137
Ni 0.9189915885812053 7.250180588864719 7.001572903912148 -0.7761535665853924 0.6010380442630552 -0.35019247809725496
Ni 5.186153601366233 4.740321971781356 6.845666404876513 -1.2250730636419158 -0.512339356074066 1.126033655648551
Ni 8.02769676461333 7.108921210256722 8.965429322178277 -0.2995815979189228 0.5596340273949716 1.6517522612430005
Ni 4.5907092698222955 0.42697724263322356 10.485871893889803 -0.01632496241226866 -0.2082837815441897 -0.31403068346471724
Ni 8.16180000953157 7.08112480669198 4.74598116832318 0.16200623863388872 -0.26467630140130544 -0.012010651307630928
Ni 7.508116451606844 6.00738970331755 7.026327725623093 -1.1745470298679062 0.44998007711055404 -0.9550843488887615
Ni 2.360957027780267 5.183021105109585 2.7044343421791592 -0.19057607985178146 0.047801949974627354 -0.1310614694259162
Ni 2.3754313208282283 5.190582302970461 11.255657644968272 -0.1504730411833086 0.02852407558162184 0.8130149583881159
Ni 1.0074035949972984 3.4080749143992106 3.757221326908555 -0.14490377462564724 -0.37194658194489494 0.36811512401394664
Ni 3.5864381710816464 2.5035126117358426 2.4019477216122365 0.3154108516416955 0.3469449176942348 0.2018825060035362
Ni 1.1620570955302745 3.289337103705393 8.048300128641614 -0.5824124587420679 -0.03135820259630728 -0.41576203646794846
Ni 3.8116178445193354 2.687384741145488 7.206041196209257 -0.11003755887608146 0.4554503561965059 -1.2074504654641462
Ni 4.245612598881534 6.829336917924829 5.922897817935279 -0.4656830896681077 0.2658806061220518 0.163446313514525
Ni 0.7198413387795798 7.22099796569215 11.12874743958649 -0.10764360472260816 0.8003785005710281 0.5112885462120484
P 9.354822010587336 5.462542387459304 8.220859265823226 -0.07103418102969057 0.15525169351887455 -1.2671273124994888
P 8.520560845178059 1.6259635885730543 7.8312505431895705 -0.05217693911387143 -0.36238927727376297 0.8816970942458622
P 1.6250094374144202 3.4075348288377194 10.216888580987378 1.4798310774882448 -1.0349867789423595 0.5502842107489555
P 4.099492450220117 6.204998008841119 3.764019203842522 0.048061631393917226 0.3150421554483671 -1.1088926250928903
P 6.897801764269851 4.057815847725053 10.364139308757517 0.007717937469547997 -0.5382157096201956 0.39930877600793163
P 6.1593787817471695 7.742783628074726 10.182884794035898 0.8016229145010904 0.2700643051860962 -0.028302960709751256
P 2.3763584677087883 8.348219542506248 5.573484063072997 1.0759992167989791 0.43277065521080305 1.3938688143938125
P 6.8630742626659735 3.940104199598068 1.7494937584825039 0.9652463770234279 -0.7389936697056434 -0.6775093371479171
Ni 5.205812715804509 3.102188455222702 0.5948268337186324 -0.19116049160034174 -0.9307825389186034 -0.8800173925505941
Ni 1.467259446328895 1.0011836096141258 6.823151137960552 0.252136774173398 0.46744455244390465 -0.2486297894614041
Ni 6.908405444127126 0.825230034678543 9.092313423424587 -0.6889733719234585 -1.1321389972153406 0.9088898526105701
Ni 2.6915073942648697 1.6046572131722308 9.004821362748233 -0.13070665718965876 0.09610115130064739 1.4916743499800762
Ni 6.418709865523146 1.9139552128121586 2.5873392917348763 0.41725173363959756 0.13675363471468707 -0.07531249669007029
Ni 4.074720525799725 6.809704807764628 10.494434950467245 0.6424549166469451 0.5975976511229385 -0.6329714026365422
Ni 8.01801123021059 7.085193451255213 0.36632113336476063 0.7509323301247582 0.5544889928589224 0.28263828519636486
Ni 7.4179851728200035 3.912550834535997 8.169136171741824 0.9257555180176573 -0.9607986256647194 0.291110327223118
Ni 3.001444495152562 8.236547851241939 12.25395539739883 0.18243133925746 0.3022177499901892 0.6167384857174476
Ni -0.01274421896598498 5.03404750439829 10.337909153321098 -0.14898077290849823 -1.2197992168374865 -0.4932723121402859
Ni 8.645662664071446 2.3572214359799535 5.874613268595373 0.0057746977002481195 0.08835133215189946 -1.5019579912942715
Ni 3.6582515479079127 2.684144227776541 11.372119895163008 -0.43519880503632147 0.6347344080742359 -0.13163379698961847
Ni 1.234194523693436 3.4930483760738102 12.65353770006802 -1.010022395687538 -0.20444949539976404 -0.7480856047045826
Ni 3.004856035615981 8.478110120044859 7.9576863734198415 0.6109352487721091 -0.8098273046887536 -0.13198809500524367
Ni 5.734835524711066 7.875311623438617 3.644711602881331 -0.5674617509695066 -1.4366635409618354 -1.328085597350416
Ni 3.4103162694793987 8.361253607390234 3.420928950762699 -1.9232314444987526 -0.3520423868218001 0.7656333837803588
Ni 3.4827237404233053 4.252345665548122 9.164970233869381 -0.3324449243058468 -0.025735971313523415 0.19622273661459755
Ni 7.072420427725948 6.138837527558458 11.389510650243022 0.2568586051290995 0.04102169382800032 -0.17508389775345332
Ni 0.551124010225375 8.949703830912862 0.07443189165689587 -0.4158957338323353 0.3681516336788369 0.2661505719539868
Ni 4.6996895347051755 0.3833608328298048 1.549966348930437 -0.05651336170569622 -0.30941375351799616 -0.5132659816533934
Ni 6.007560730412022 5.500555409562252 0.52746646234686 -0.9035977509736954 1.334320008295902 -0.13645872918208757
Ni 7.813426819517762 8.692686113625273 11.46897883976082 -0.10095153741441323 0.2866746600492675 -1.1289680556865265
Ni 0.21377666694940703 4.721671017057863 6.044485480108566 0.14111653966907312 -0.053935573676190986 -1.158012779658309
Ni 8.024321229854012 8.699725228776705 2.4589807569056967 -0.5847624470314832 0.487163885249703 0.1135165185636174
P 8.447343245891915 1.6032619921383786 3.6937207670162384 -0.5791520428232413 -0.27291205904753646 -0.29408123692598387
P 1.7348718420477347 3.1329643308016695 1.6145740842238097 -0.753514746139954 0.7039089101873683 -0.3711857925194704
P 4.758540858055655 0.9859802010581512 8.205669359406288 -0.12054231506214723 -0.13183177193303747 -0.24845675421864952
P 8.606461453733218 1.7961895561290242 12.20347089953845 -0.6775499605778654 -0.8069960058875457 0.18912057835217755
P 6.2335595336179725 7.643038826293345 1.3635603180947964 -0.06255442569345356 0.5176767091265795 1.2556311389344312
P 2.0341422530959776 3.2558157931888454 5.86536520349744 -0.49599433905713936 -0.7422628273752185 0.3327745397311237
P 6.899737070865194 3.8464533632355113 6.037081807203125 0.20658891034027002 -0.27916061106040957 0.060558735419663445
P 2.3675460716304584 8.566117062289832 10.19522934968638 -0.015777060328598633 -0.3455464946848113 -0.7721436740950509
