# total energy = -340871.18330303545 ev
CRYSTAL
PRIMVEC
9.21389012387124 0.00000000000000 0.00000000000000
0.00000000000000 9.21389012387124 0.00000000000000
0.00000000000000 0.00000000000000 13.48545955057269
PRIMCOORD
 96 1
Ni 4.549100270084966 3.5004490049217565 9.65345812335674 0.6453183542376693 -0.9096681255374914 0.5477323908613793
Ni 2.895511047463048 0.7203308748545104 8.035041083584675 0.11959614909879404 -0.47782718122980933 0.9735798365897878
Ni 7.372494199384443 2.085001986983073 2.0702468633051447 -1.2156021480370032 -1.353996660789223 -0.7541999451324366
Ni 3.5705574950337557 3.8253584130988405 1.8238140002695937 0.2570085004434025 1.0237574858854432 0.6308561560657523
Ni 4.866758346718069 7.232360144171747 13.315731602281133 2.371429490008219 -1.2034200041485146 -0.4030782703526929
Ni 2.776467586791865 1.756471519979072 1.6216805996613628 -0.45377965336230236 -1.1872174262467232 0.133194456608519
Ni 3.9491009577438856 7.681224016467207 7.265938324026545 -0.4213323314668744 0.3188165348891348 0.15702344070731666
Ni 6.8506102476912165 1.1481981342879357 4.396111916731221 1.229243907190154 0.984969052263336 -1.343763670207305
Ni 5.090121471609001 6.113858377820594 6.0333409560119815 -1.0324089909128542 -1.371652169087457 -2.4882005109533925
Ni 6.091763469253295 7.342162073027667 2.149677046076667 -0.0703222425643305 -0.39172093635834476 -0.433046277469693
Ni 0.6867416383315383 2.736709650816931 3.7649383284741282 0.7185369445131883 -0.43103233236345767 -0.7021754724360294
Ni 1.388081764208543 5.8335073423839 1.8615467231906948 -0.7676995222807683 0.07680682184740967 0.6708188125016189
Ni 3.130317823913855 4.125030976169239 11.450368485792449 -0.23713104479318517 1.5387623046068144 1.5784634798511783
Ni 0.2141179075196092 6.81012441439484 6.692536748366541 0.059335918756155875 0.0015927984084166116 -1.4337260556000662
Ni 7.60403925872398 2.788583852332314 7.850857262367585 -0.42552297250945426 1.0585571100631317 1.2506270008516203
Ni 4.526065544722895 0.9297828684047784 4.1658604875680165 -2.0485529261170976 -0.6666667380064583 1.5523919795751069
Ni 3.988978674290703 8.525170284282764 1.7844494974038432 -0.8595185012662939 1.3146785799158907 0.521588899696792
Ni 4.943648259976663 1.8374339726816789 7.639795602209015 1.092694675176789 0.306286263632608 0.48960977568703423
Ni 6.724462877718371 6.011095861035322 4.021391297042181 -0.5320944272138062 -1.0296915919816914 -0.7478416070145766
Ni 4.1093212934723065 5.722452324468283 8.884773674411186 0.30589108507671836 0.5305918745263507 0.8357450529957801
Ni 4.54624396414007 4.716756215160263 13.2990231338925 0.9286924891587942 -0.0927754293615241 -0.798622951332502
Ni 1.687201493870252 8.133607594797992 10.891181178458872 -0.894535383661111 -0.04469811423832302 -0.6561799795425216
Ni 0.7272541919093344 5.577656040842305 10.594716891936903 -0.7814258707279251 0.2560934448283009 0.9259838319783794
Ni 8.38206014255329 -0.18644675263666055 9.873797249502138 -0.8431282328337285 0.04233912708784321 0.8921126331522313
P 2.1861981424437236 5.756654284685887 13.27745986678656 0.2431813647523231 0.2813403923205477 -0.48146169265860306
P 6.455140868785037 1.5982229567416442 9.438041978715724 0.3022745713700536 1.336789295772001 1.220396226991537
P 6.556899071544523 3.1426644367079253 5.831315357918445 1.5646350586085183 -0.44955275976514836 0.29728251747210094
P 8.704721361535036 7.312696052344506 11.277876169780132 0.7573809139635795 -0.3926678736526463 -0.14365858936463646
P 4.156017288726297 0.41442419371212064 6.229365547454192 -0.09624564729831166 -1.2185805139390367 -0.5852067336577534
P 3.4625430608659324 7.714670437692934 9.410882194735812 1.5923266109865155 1.5363912332714766 1.1690410124480126
P 8.124974179732288 0.5001308784502999 0.39917244135538615 0.9010770414343706 -0.4100238484325906 -0.1695753092303983
P 1.5929433976886576 8.347213210025549 2.0559395346882554 0.2652134048516981 -0.8942175953103761 -0.7663268103029577
Ni 7.494909943848633 7.833759967814841 12.987980630383383 -1.488430903342114 -0.747052535454378 0.25835627272054856
Ni 5.838151143016893 8.243262101411595 5.187532560998155 -0.36032596698683106 1.024064732713217 1.0687631040618562
Ni 7.048036271824454 4.673754989854349 9.389587973222103 -1.1355585644198507 1.1042103891258725 -0.4119804579383292
Ni 4.851813416903159 2.5349254566451886 11.994938877800271 0.028032737767500107 -0.7173557797208936 0.20481304938676984
Ni 6.841884693724065 0.9666476428742369 11.74969184242636 0.1909398909491034 -1.1130539555594317 -0.930823676569184
Ni 1.1509346596609495 7.451982429663876 4.243200038665678 0.22230554974457845 -0.4649703798717992 -1.0107245639608853
Ni 9.011617614478979 5.140954503538018 0.21291825902275255 0.892435820819605 -0.08936408968712997 0.9278910763034213
Ni 1.2088716008916307 2.4083818893961157 8.104532243056973 0.1276089921009415 0.03777027677023818 -1.1596336030911836
Ni 2.55015601705459 1.6431406711976826 12.549568995068217 0.7167029766282431 -1.0348746788445276 0.9310615036116029
Ni 6.211239982761285 6.663218149925697 7.854120822256883 0.9172978741686073 0.693115162005974 1.6523199608210126
Ni 2.1809830806217505 1.8617402148837363 5.801646631652098 1.0474730843348283 -0.027021008673534106 0.05424642004839044
Ni 7.940217254548189 8.081217415434498 4.3807376196355605 1.0270713807500247 -0.39942473276050566 -0.29025260720851304
Ni 3.2442844311152372 6.411356462816813 11.464731097750207 0.9975309480887465 0.011645554658728331 -0.736681476632699
Ni 9.112436000443692 2.6663800273414555 10.023000536784387 -0.12750126287848362 0.8555260922774492 -0.027224382933591824
Ni 4.5875498336593346 3.6962257427190703 5.311221665080359 -1.3689422263554618 0.07996207964693972 -0.9592009421602964
Ni 1.854074258283239 3.590643775549482 13.718622769698971 -0.059934728682419364 0.8706189820548296 -0.6122452258327842
Ni 2.3358685739563163 0.3158171413821671 3.6315801680739397 -0.9747419752186891 1.1626610770635977 0.49309336336026044
Ni 1.8448511542482657 6.726646569682695 8.648980090325866 -1.4124972281282768 -0.13843899283690997 -1.171663280562208
Ni 0.36108406227469453 0.9036587256771464 11.546196628854723 -0.01443083071334934 0.29730180074581053 2.9491412008405082
Ni 7.200093100884558 0.953536277198146 6.6027105333446094 -0.4121362667899031 -0.8695283200938122 -0.08308699842916659
Ni 2.3947914014324936 2.444269991510222 10.443962906943279 -0.41138730443902055 -2.401337847531877 -2.1113148398356674
Ni 3.8057512548706454 7.682495533307193 4.343652633191641 -1.112567245731 -1.2027250349640188 -0.11617401079112251
Ni 7.099928901120129 3.171752687895148 11.003986835502007 -1.2289916819700317 -0.8416202808296344 0.3564592849425732
Ni 2.7104500639041698 8.197137367346585 13.02385214749523 -1.4461992483664126 0.00521316876982328 1.4069780980822608
P 4.530506639772702 5.628258725517703 3.7194115758795165 0.2998042554526901 0.08953995314336193 -0.38717933973424934
P 9.454649094312764 3.177631149807549 12.191516302651172 -0.6082592446018428 -0.09849870499854649 0.11459715322230588
P 3.358582738361833 3.3519763791279917 7.446994029539467 -1.2450160824227463 0.405453712563405 0.5777672466605727
P 8.997243945853047 4.426435750586865 8.467021423578752 1.6830947801100238 -0.747436658266674 -0.2763627366002982
P 5.272805271510512 2.588854355662869 0.6254637405343427 -0.4271332544193676 1.1977872313427693 0.7715566912433293
P 9.080592796103165 4.043322198364901 2.121182169414771 0.07416449912855615 0.25074040804650366 0.8467984825964643
P 5.874850067463744 0.2863520420880204 2.632631390518978 0.4248951091174682 -0.8130545533767998 0.023886062588978216
P 6.76130922440754 5.814591225916566 0.38685899856583755 -0.6551548807121168 0.4542910457810821 1.267321945008798
Ni 9.004172791241958 0.31343811494677243 2.7429290266646897 0.7623914798042936 0.4630469375968413 0.05355582173926905
Ni 0.44229897556726994 7.6615155054474195 0.18571793392620461 1.588525749183187 0.3909961423771782 -0.7343533427201546
Ni 7.331676666042852 3.3919370206861124 -0.09964453636026119 -0.642462372846113 -0.5285972126938251 0.5147469370742941
Ni 1.3671293780192033 4.162494653498111 6.086823902746652 1.6055495374346929 1.2945499274868157 0.603004938181439
Ni 8.53638358858902 7.206358546183042 2.1170958091355394 -0.6468029092029957 -0.8027120338002112 0.6693291153299697
Ni 8.348650576888142 4.734916792635721 5.719938775236774 -1.8439028846707533 -0.954743163499259 3.0665084606087833
Ni 5.2603112364741245 2.5021424355098896 2.8598883053851125 -0.8348287118290977 0.36540286728910615 0.0702646498535177
Ni 0.627672310002058 8.893827242867493 8.005184393959373 0.089965984937187 -0.40989503616421014 -1.2467880867215044
Ni 6.0683141188347065 4.430747851174646 2.0498030838517995 0.07509523847294164 1.9056307006978535 -0.8412448997680866
Ni 8.467675609779036 6.468049528877942 8.707979393090246 0.1242750426317021 1.5551474308330573 1.234716757379267
Ni 5.343208606107146 4.226392981652496 7.575456850105708 1.3577620413689262 0.27304678485318784 -1.157995039046496
Ni 5.605574127981135 8.960416026944168 8.854714279202698 0.5736036022011863 -1.2332658838653534 -1.0867137750030058
Ni 2.4164348293826956 4.840452690354585 3.85620743869274 0.28066599196134245 1.1816810698095261 0.5678363607001059
Ni 6.556631868730322 7.503967197860999 10.668076963881012 -0.4516623499089834 -0.9665028751383484 -0.029897044669748508
Ni 2.0352101246404204 4.384927175484414 9.173025620647069 0.4611558912217155 -0.1467680815278956 -1.3203350068707196
Ni 9.054406920311562 2.44762384752294 5.9941653378942 -0.755422247575312 -0.6244512809806729 -0.1429034563661668
Ni 9.131084914096824 5.450356934601356 3.925361369785735 1.311556232236825 0.7078797219096583 -2.628772233862589
Ni 4.093510257983781 0.4331597179326147 10.442816699009262 -0.8612532245692135 0.5969944703213008 0.5414884668341965
Ni 0.06675371271026725 2.1869352536553097 0.9394390252765585 2.5880948107478847 0.12895933548124888 -1.1151671452476923
Ni 1.9991930280642864 8.627555031572097 6.095818502306034 -0.38405827760676436 0.6831752771844428 -0.49035436716254255
Ni 7.648947759289873 5.244288281512269 12.012753013006282 -1.0222639320590523 1.8772256671925993 -3.2143432928382962
Ni 3.579577893485543 6.22838703232081 1.4791933169056786 1.0337451932257744 -0.04331897450260926 1.2954187032450142
Ni 5.979344795596243 0.42090800820703633 0.3846117307595138 -1.1239916855178578 0.32318818159426915 1.2645040159440286
Ni 7.637144766014348 3.55071998955194 3.7840064741288506 -1.1240266525208513 0.18486565973056548 0.6891186392520712
P 7.273113180282323 6.640570407949709 5.942597037531625 0.20363445569763639 0.19093114919835505 0.8251238258365081
P 7.693211287545629 8.617078838477427 7.933954573416749 -0.8818647301719781 -1.8575194470129235 -0.138906933612264
P 1.2569865352279244 0.7428007887507033 9.632164823232042 0.2939313416116809 1.0356472953444937 0.6054729401059573
P 5.479343832996985 5.308545951382302 10.93874420077549 -0.863297251582436 -0.32298326467231475 -0.07987260525692695
P 2.933039222022934 2.818851481458076 3.977360880207089 0.6417239520181915 -1.5222702204890621 -1.5393899108884843
P 2.343580600007537 6.461065400148162 6.094429969061208 -0.10332209452911882 -0.5672576053785005 -0.41940786075065184
P -0.10202816974072829 0.5142087812025833 5.106512060787635 1.0204505329993974 -0.2924424157709802 -0.2657019144523424
P 4.456159760194081 -0.15756028564360902 12.4541453417833 0.692347430602014 2.197851487376331 -1.1088296330654388
