# total energy = -340872.3231604221 ev
CRYSTAL
PRIMVEC
9.22166593970994 0.00000000000000 0.00000000000000

0.00000000000000 9.22166593970994 0.00000000000000

0.00000000000000 0.00000000000000 13.49684024304366

PRIMCOORD
 96 1
Ni 8.746888407167576 1.669388951636125 8.556051564889607 -0.49361401175042086 0.5626669006840245 1.501332956115763
Ni 6.943812965345521 2.4896284661955517 7.0119998071564344 1.2165151467695758 0.40518297540052156 1.6886151957076208
Ni 1.9006222234449284 7.343645954341975 13.477067222115691 -0.35176419345974896 0.5249315909167798 -0.6497869315319842
Ni 4.291200776480027 4.527985491145417 3.974131316542669 0.749509995855935 0.48868572121086806 -0.2559944573565914
Ni 0.03241231121649378 0.14111177554826196 13.021211690763677 0.7348331105700505 -1.6336794629016897 0.862615652134379
Ni 5.455685078143048 0.5635562892695491 12.713146265386403 -1.4093419703287469 1.240780961295476 -0.05522678168378875
Ni 3.686969563370228 6.113245185006399 1.5396521009443402 -0.504811166017821 -1.0877072492645268 -0.12340703820445198
Ni 2.40308313196123 0.8397239723861392 6.481897877347223 0.5011943952008401 -0.49232383218408765 -0.43732973533639524
Ni 8.6893359904434 7.00942511804421 1.4294771700726154 -0.8305275133505825 -0.26968789568328394 -1.1463767380812773
Ni 0.38686732677658675 1.7168436442274753 11.157513939647746 2.2207906126710077 1.0382595361563602 -0.7618530908023202
Ni 7.053052819297548 9.380555177749509 1.0681640016014873 -1.2584243854088522 -2.1497075806812527 -1.377084652956938
Ni 4.429581094596195 5.132797669205324 6.942936907087421 0.8624896680794759 -0.5256170470195787 0.13425863620697523
Ni 5.88036123500602 4.879589167617043 1.796523448218062 -0.8745291157425132 -2.2567534039188617 1.39071304237365
Ni 8.339309218836352 4.431646747752134 9.665303620962531 -0.5521611160566942 -0.7228977925850454 -0.006886699817504268
Ni 1.4775690797759093 4.339863507300966 9.857457317127414 -0.22366103533120835 -1.1484940415345963 -0.7655415953975009
Ni 7.518682394310186 3.2302296742608276 1.324682159072207 0.41560982716080036 0.24125278027104258 0.11056746323762248
Ni 2.722761401174549 2.482905871772875 13.184847385210961 -0.63773000036745 -0.047194141187299365 -0.9655356261290726
Ni 3.0832824285470375 -0.0501630958587576 11.45710280975297 0.2043296819924481 1.1454231159187565 -0.9624924684273747
Ni 4.760500574510806 7.889319589147251 0.48437629956937256 0.7586538671387322 0.09730751290392274 -0.2746506390051979
Ni 3.7831976467730137 3.573662954767446 1.9349074550005794 -0.3401824021594206 -0.6870920957403458 -1.1448842126961507
Ni 1.7380995840687232 0.29401806175030093 8.749461251946625 -0.9406735727800704 0.272953196698117 0.45949521568984086
Ni 2.968740116717042 8.491060952470873 1.9020156171585998 -1.3822309730445677 -1.129048788325791 1.5992922436710715
Ni 0.26435565129765104 2.3948942926644716 2.9125368297103376 -0.6470121970003244 0.12960751058820905 0.038413566781191906
Ni -0.11189569372394889 8.173079469778505 6.878340981968127 -1.4036531474740859 1.7520211707680924 0.40501148281966376
P 2.371010178048926 5.047792353172081 13.388298544238971 0.4810549441384876 -0.6772748525396077 -0.41376068976720354
P 8.134385359768146 7.226171152763815 5.0646218933934595 -0.6603780767842691 -0.7041372241480905 0.2921045728155872
P 0.22531388448381534 1.1656185665656125 6.693595972167003 0.7628167402671702 1.2023008029424067 0.5880069221107099
P 5.992275372061718 0.6056799368187189 4.549838994935347 -0.5340996305692931 -0.5027380855388761 -0.727608053576521
P 7.575063659468273 2.6268099677480046 10.713548824274607 0.0021252738731189205 -0.9379672295925007 -0.26758936128304234
P 4.433481859261204 2.2273827320500383 7.481730256983564 -0.6172161966848144 0.418232352385312 -0.10507892931922548
P 0.2564877259733332 2.053508221982043 0.42002567076234604 1.0915937288031266 0.8685991234113235 1.2923266945832517
P 1.703767322017111 0.34915163551553696 3.9768166656453894 1.3345732619572885 1.8070304371244363 -0.3633750382258
Ni 7.280329996446093 1.459033531367706 2.8648119423088585 -1.1402027480600814 1.5570677877842216 2.3199359501146177
Ni 6.086022827344201 7.7874294028973825 6.112597824061993 0.6630887908472127 -0.7952890018632626 -0.943498186713059
Ni 4.492675732511083 0.7042982760162345 2.573753113137758 2.2746847915863015 1.5666515748179148 0.6534780072303262
Ni 7.5359914611570495 1.6861631618622555 12.950555286831511 -0.2793567862316157 2.230638194889049 -1.0170739032176805
Ni 8.030383412032965 3.12847781299908 5.197174118676799 0.34181530977715324 0.21957555240792506 -1.9354151310491379
Ni 8.678030228080983 6.652970845322476 12.301357386583364 0.0568918280910375 0.8535532848217946 0.9105456430464384
Ni 5.459235419504818 8.597525084994608 10.483765198341311 0.18631061970720816 -0.1322261791579787 -0.5751382936781579
Ni 0.8220239069061863 7.645692398402813 4.1129598076203475 -0.20282532953277974 -0.6627594325322521 -1.3048201990645723
Ni 7.908141009197571 0.36590186941039277 11.070769417430531 -2.628020443298229 -1.4730281956337985 -0.6713304620307148
Ni 4.875088994670176 7.599888384003041 3.4113395033741347 -0.32782002393932574 -1.1270880650549944 0.01451644844862016
Ni 7.2160365419674894 4.21654216955823 12.263512592000067 -1.5099047569451738 -1.4576419429857155 -2.0357141224812167
Ni 3.5377630095171297 4.267095341883488 11.433861445248892 -1.062094433792429 0.5639619653463642 0.6257463456430127
Ni 6.028617957274021 5.6484824465859855 5.160934816122293 1.3898036431855032 -0.828426922067812 -0.42441302727472713
Ni 8.587676345840398 8.305806906713464 9.224874092285763 0.22814632479607158 0.4177937221859966 -0.13286561251419055
Ni 2.7488956022635276 6.276265794339839 3.8579503146867338 -0.5332264839357205 -0.06771025886278016 0.0590366423481822
Ni 0.6626301787612763 4.879782822600413 4.702731448638573 -1.0981826948745539 -1.300424898210354 -2.482211383249493
Ni 0.9122459193247622 8.393246742537634 10.975872942580056 -0.024154228648700336 -0.516864240527613 0.17861247973200206
Ni 4.998650095725655 3.446136537385833 13.211192762448473 0.6193391565650882 0.4474421411800488 0.21766676542098642
Ni 1.9049840714036748 2.744220217665041 7.69776069043129 -0.6971142558630381 0.023439461969862855 0.03130626631244931
Ni 2.260331744220441 1.5713718650536417 1.9020552703218612 -0.37253099369345516 -0.4205152348822177 0.08490091170945378
Ni 2.550860327603745 4.256462761129927 5.804005841563272 1.8733795539736315 1.1281985245103536 0.0655019383575517
Ni 3.369513715632719 5.59664746270414 8.94258783386129 0.4839520631806246 0.3692420385295383 2.2337050067398305
Ni 5.212601965685219 6.87858812261357 8.536832691040086 1.2904847562785067 0.7533183138584316 0.4809814105880749
Ni 5.647634053325509 0.6360634815427726 6.713517536956178 -0.6565355631097273 0.5624133899123216 0.8814155584497013
P 6.218676490952164 6.858872200973402 1.962710777612884 0.7143419325952343 1.7842710319407336 -0.22804270933867177
P 8.121041609247415 5.14868659950748 0.3503052659164654 0.680344492603867 0.712795928264353 1.1154016298560017
P 6.505433412992704 3.643314197119266 3.67716047737928 0.11961774636534885 0.7625130929838223 -0.2539720276099239
P 2.530471224354722 2.195973738080715 10.746116981644384 -2.541439315672875 -0.13378838143877606 0.04292868104272606
P 4.054489835141635 6.724079110882503 5.565354661724837 0.060170498842309274 0.6024678347310464 -0.5863490747923127
P 7.02873528638589 4.681341794642143 6.965719032630937 -0.8433197800192445 -0.5825320150390677 -0.14365833225432034
P 6.751900876826557 8.30289286029705 8.160945601820538 -0.003803947127122481 0.5965519834672436 0.18312219467689753
P 5.466041008920367 5.0762043057321184 11.204644951766893 0.02605478810552287 0.5024192687468767 0.024026701931900554
Ni 4.477441540486033 2.034124280313365 11.170579195859062 2.494354960590562 0.046993852251035195 0.8597730404792613
Ni 7.24465137117677 8.352542309366585 3.2988029038718922 -0.6212227467410463 -1.2849229459200129 0.8810998269814955
Ni 7.914992706942494 5.629799351523785 3.1915844390796053 -0.6258386482465028 -0.5187221196719584 1.0684378595119535
Ni 3.933778228841447 9.01537720911028 4.95343442360869 -0.9252675226376452 0.44110874276285317 0.2891413764222053
Ni 3.604500205452536 3.1911851409472294 9.201281382311858 1.185805890611177 1.0377044349838385 -0.3095741903552604
Ni 1.4882754338564683 7.150977689221284 8.394305389780053 -0.25902655931469587 -0.2604959447713707 1.0720050080379215
Ni 8.859678602481374 0.30221612271293413 4.900986198946175 -1.017367008978067 1.0708171583774073 -1.6325623185781108
Ni -0.20214721547332382 9.199921186595336 2.1217439386220924 3.1492583874135054 1.0460648911333918 0.445825174401916
Ni 1.8418709901570365 6.0462590040923745 11.400322246462508 -1.9564886638899854 -0.8167695403345419 0.5195158192178473
Ni 0.244189712362796 3.8756448471671616 12.220524874358436 1.7552003398270224 0.24079640945991437 0.7374348098589557
Ni 3.44691115731931 2.305213592032742 4.251720980537142 0.43018643942339463 -1.541170399827675 -0.5659838808723995
Ni 9.156892893623855 4.064513785947465 7.113563546434338 0.10540803052387009 0.06649901216349838 0.38712200413375264
Ni 3.727895316522271 6.927638163401248 11.774346559175362 3.121034616681122 -0.018410641296703778 -0.0970437177195748
Ni 3.5992530775698155 8.142030120778296 7.310900740987403 -0.06999211291842139 -0.29706320237244327 -0.5261932312380228
Ni 1.3876670591631866 2.533173172456017 5.16563233271888 -3.0628860333648475 -1.4581885595178048 -0.006975402876568631
Ni 5.910931057380742 4.629663579080167 9.025296955091726 -0.10836454204903273 -0.3408974259485742 0.02533590766162733
Ni 0.6060423482875957 4.267178336876361 1.3494681526103007 1.0698972176662993 0.14377120368310078 -0.29499937786487906
Ni 4.00284850624316 0.7922849566267762 9.14495913581537 -0.5276608169224848 -0.8203971097848 -0.7303563057456195
Ni 6.082334160994311 5.946019496034083 13.298018435325385 -0.11085336990915748 1.4731117564865406 -1.0357563101185323
Ni 5.178214373638359 3.0804144904599973 5.650911433377388 0.23329598731781112 -0.11716542817011434 -0.39825796614591413
Ni 8.060833352751317 6.251902153098808 7.996526987940488 0.0013058632956171059 0.1006265499748267 0.18430953011677936
Ni 6.018428016482446 1.9924515722254692 9.119315527350928 1.0991324603823327 -0.0663275195826406 0.9634496901343215
Ni 0.9902040382965372 6.473609444059017 6.136742911821792 1.1830658659721949 -0.9396034796443431 0.6304725474740883
Ni 7.135909487181978 6.631281487185116 10.470213960338398 -1.4955634006218372 -0.213653016275903 -0.2675209699389522
P 9.31471248340395 6.325537155108511 10.225867479655733 -0.3393010279957318 0.33559786811253167 -1.0532256705478893
P 2.0369553317369062 3.6497416982339512 3.2316156906417994 -0.1906321299006975 0.8304760912873568 0.4644898406909549
P 5.693465732722908 1.9333775806319622 1.0575572415123753 -0.2775891528082316 -0.25095149561604524 0.32140692132413035
P 1.877623388753357 5.105953399843991 7.65585282986359 -1.1247293350148309 -1.2049472394263183 -0.5171030960112966
P 3.3415167380370443 7.797407245373838 9.56010838966316 0.2120648458531767 0.33446838249377875 0.6409166256255479
P 1.4331114285938455 6.978716970681365 2.0542192124209846 0.7605860511644384 -0.7754868795356709 1.007287256144562
P 6.416739430609571 7.984487180974444 12.36641255066322 1.083864992700301 -0.8258511909208358 -0.4343513694343616
P 3.0439520235913236 0.13625011329910539 0.027716638953082313 0.06634757418729864 1.2040524955261909 0.42526483375206114
