# total energy = -340887.21602020075 ev
CRYSTAL
PRIMVEC
9.11178064010559 0.00000000000000 0.00000000000000
0.00000000000000 9.11178064010559 0.00000000000000
0.00000000000000 0.00000000000000 13.33601199969833
PRIMCOORD
 96 1
Ni 6.608701603861083 2.3638874749657908 11.581113285124465 0.279487398272209 0.6130900903315828 0.44190912717696146
Ni 5.11691176571901 0.7588044898816209 6.21683580977201 -1.6553489774553234 0.2771656921175678 1.068089217923283
Ni 2.9004711250677846 1.9922452780069357 5.087168180176244 -0.8081761422385758 0.926690885347733 0.6619734462958471
Ni 3.3382375141302614 4.813580588217348 5.013807411888428 0.32736031069408783 -1.3379246949280248 0.06071094472681157
Ni 4.010504689740734 2.7679493874413454 2.4776845033772736 0.04998713055140423 -0.4059594485552299 0.64655556907888
Ni 4.982449218816275 4.85497540766433 2.7211594826774888 0.726046365516356 0.7538551601985082 1.0978217119907092
Ni 5.567334418090282 3.269552911666833 0.4795220350227986 1.157291071000936 -0.641085032882612 0.42507842877286794
Ni 6.042449995995634 8.04768867319504 12.62552289445092 -1.4415123844137046 1.3782028257217813 -0.2281787206959038
Ni 2.3606892399611925 5.255738855548247 11.745839700244503 0.6478930569433811 1.124437771916341 0.9342818103211135
Ni 1.1507267770106608 7.789479033422073 11.619960450704536 -1.7332184362392924 0.3620511772080539 0.10723968441597015
Ni 0.6049156266546587 0.3691555920222314 5.021488642967849 -0.40623584214506814 0.6767097240647572 -0.8950249217030197
Ni 8.867129329700882 2.7844052632769714 1.687979231811622 -1.0113087185991292 -1.684482918706802 -0.5226083421002419
Ni 1.5835363574050418 1.4447639382596433 2.708984321386479 -0.3300566265793283 0.6515285968134392 0.6296227978792833
Ni 2.225233508968711 6.682762156902041 0.4834528571908436 -0.0782425258526717 0.5727687650047167 0.41328914944742373
Ni 8.10323408797576 4.41753704270489 3.879205753076166 -2.906130501606937 -1.850136524285291 0.12200707253313181
Ni 8.081857850594597 4.432261680218938 13.161323842595948 -0.37853709067821906 -0.5316992486579166 -0.6564214061293663
Ni 8.008170880559874 0.4559434802609767 6.952076323740832 0.7654415794845268 -0.898478170358943 1.6492408076750562
Ni 7.184602587424165 0.9234516325100913 0.8061966833457735 0.42961256919779556 0.508090350989725 -1.3695950294481123
Ni 2.02425496339484 7.269451488742744 8.940062755476688 -0.7333315863238596 -0.6620930025928469 1.0138767364366217
Ni 0.4444234559979743 4.893272221693754 1.8381960474407117 -0.5008213281321375 2.4712029479541315 -1.0456686841362377
Ni 6.888697511144008 2.538897445715999 7.209034916031945 -2.102971352966978 0.4424709132177025 0.7259764315103691
Ni 3.7302080936966924 4.534195170237295 0.6517438008972027 -1.564080728766945 1.433035971511577 -0.33732333544407067
Ni 6.297479624325283 5.913381623231709 4.734644321355988 -1.325298264413266 0.26554867670392973 0.39278511595680093
Ni 5.301470882579813 3.215939194381769 9.522325584282537 1.126189207389809 0.8144961709193329 0.27465629543215275
P 0.5121148743716555 6.071789929656053 12.662383691851499 -0.6247680408901434 -1.5013949197019498 0.9298571988908566
P 4.40207435095901 6.567789708788014 12.704005394636413 -2.1092399595845093 -1.1438076918025204 0.9334518582206504
P 2.635536991182584 8.845780427661639 1.8417833554786331 0.42480769160998455 -0.14021382534914562 -2.177872730261559
P 6.448115581863807 8.144155094829468 5.94847473518815 -0.02243287508221943 -0.2681642599499059 0.07959801143930163
P 5.194498577867602 1.3646258275318839 13.021601975907874 -0.4738082898784034 -1.0071509876770137 -1.122716675460176
P 3.957783926958378 6.571689550901883 8.288851993746917 1.6711394075203605 0.264115543801829 0.3717113260056373
P 4.5517626833109865 1.2716127707599711 3.981439931855639 2.429273911820513 0.9523728634948695 -0.2069511787756952
P 9.351967177548987 6.0335113391879105 3.7084245597209273 0.7268254097742257 0.7479611633115764 0.4402877895234546
Ni 1.0191344410094891 7.763920488727205 2.7462578824500428 1.5002410086031648 -0.7242332235670171 -0.6513254796636976
Ni 1.7850433862560255 6.94704024258117 4.958128965110367 0.8630380843837782 -0.013776227848485952 0.556103902754526
Ni 5.89487559675211 5.676602891523744 9.15335860611955 0.6708720343370576 0.22010494254883384 0.892825600058856
Ni 8.744220520649518 2.397901752094469 10.45300650355231 0.7021073382022552 1.243162059933143 -0.32454366718089916
Ni 2.5456310516088716 5.576892675981518 7.178748268363042 -2.1186733370832673 -0.15848922661956574 -0.592082120621348
Ni 0.8253332450456531 0.36888861684948293 9.36612141759498 -0.43318383148882167 0.24838836287455934 -0.12193251054145451
Ni 1.6685401589944981 1.3249713581871185 11.752293574471729 -0.35751343723870044 0.028543358855331488 -0.9772799111491942
Ni 4.238700124085931 7.223783244175657 1.8605208211864857 -0.2738379132959155 0.2511759529220255 -0.12400661946166386
Ni 5.738736123707097 7.963741838159811 8.123991635451475 -0.3011592268186878 0.6817639986592129 0.47988123554536055
Ni 7.010339782686429 1.1379429487729067 5.081074221284291 0.5011231756432725 0.40107975186542544 -2.735150598719528
Ni 0.41368577518739735 7.827338481980782 6.912148500976871 0.8317811832520255 -0.816448409549697 0.7072438880978723
Ni 4.990914063030726 5.081330262320272 6.972227026625931 0.35655133043574727 -0.2890999816613085 -0.34658676302386765
Ni 8.121530543500642 7.746316528530953 9.23646897969204 0.27611822468965996 -0.1364525585345005 -0.37403251793964615
Ni 4.780677948326734 0.7525939001974774 10.92672797901976 0.10260938473281037 -0.959959674703192 -0.3570616944132625
Ni 8.18257036200721 7.724111119111561 4.778239635827503 -0.12450258526147592 -1.1334307194435707 0.5045630545627569
Ni 7.220894809712815 6.35545788453685 6.980721939716493 0.6414825254313469 1.0456717694600315 1.248407110382166
Ni 2.481310992071946 5.670662010546541 2.743777655759867 0.41573478277443887 -0.07573955692515988 0.37803803955461346
Ni 3.354073788882376 4.7858443279495475 9.682117970186077 0.2733316630834583 -0.5820134235314364 -1.2217067182728443
Ni 1.1903083521103068 3.7733250396846127 3.9604618792884394 0.9939244616844108 -0.7588610980535317 -0.03828963960881793
Ni 0.6799037589647572 0.3569795195531575 0.5130096512304918 0.12799517179576667 -0.9032156850439284 0.4803399203493341
Ni 1.2722232600628434 3.694353236878758 8.420011520167694 0.08567841330542664 0.3480504920535877 0.5847418782061929
Ni 5.179300127760279 3.1483753409370463 5.37617290497782 0.607713913621334 0.022324117418497037 -0.6151927384968824
Ni 4.187510140451075 7.566140178157933 6.0564429575242995 -0.08562364880809124 -0.5825908933014612 0.05912843073104009
Ni 8.043069000410622 7.721486926287276 0.48081499669559785 1.9574641404293776 -0.5724502053230335 0.1402649903020552
P 0.33741197062901157 6.066924238794356 8.427159712079682 -0.14111294012464728 0.0034218811973553967 -0.8575924878881748
P 8.805105438885207 2.167483043273141 8.328912848508223 -0.9329515215454641 -0.9269269126179391 -0.5471436082374449
P 1.8510582369919686 3.381646037098658 10.820787127875983 0.48998592807953023 -0.40815079977959384 -0.48913926380851896
P 4.005584328195198 6.547953362334991 4.053894077969786 0.8276445353758326 0.5562535409585129 -0.5204900102056584
P 7.061411313172965 4.458458049558598 10.731835191735266 -0.624329410690828 -0.388192354379796 -0.11172060300545922
P 6.372897832681583 7.9790131825122526 10.492920658645312 0.4561216712319176 0.31022365101380117 -1.0731969714634937
P 2.3762339377328305 8.911467254294546 6.112494076130533 -0.05938579815748481 -0.37599349832075885 1.7781142683107185
P 7.0026949987295675 4.262891901684817 1.7755297760899251 0.7907265793035607 -0.11948584877317486 1.214511743186302
Ni 2.844278773861634 1.609395590861026 0.46695233363008176 -0.13760569830233718 -1.6748734206414964 2.975749547456656
Ni 1.4546775555958347 1.4477708258708044 7.158744265146246 0.4113536229876077 0.1587386236262105 0.4221805383997826
Ni 6.80837716480345 1.0608481727788674 9.116417625049342 0.48975555723627906 -0.699429534259776 1.3841155916617904
Ni 3.2215247159140166 2.0994089301125842 9.560534014039751 -2.1519971480463775 0.05268627465012216 1.10445695791904
Ni 6.553857796189635 2.1945632553348693 2.7785983254751745 0.31297653116859003 1.0261005321963232 0.6988770041904158
Ni 4.294746686801843 6.896779660571583 10.577884368399953 -0.2862488853657586 1.3480129324019623 -0.3146487766646903
Ni 7.667672749828135 6.483405508282069 11.82950953714828 -0.2683234112355895 -0.49123137045085724 -1.6231878193417464
Ni 8.079944376660222 4.4427128926128825 8.400954230959384 -1.1832957225948137 -0.4694919218912367 0.3293958530668779
Ni 3.2740996902061337 8.531916031740275 12.564550503121088 0.8511397902842954 0.09003103384716753 0.16081504653926498
Ni 0.14813477375287684 4.765771075199888 10.665769315027738 -0.16011596358971134 1.194889083859368 -0.003910647908315846
Ni 8.825360927247665 2.65974699234275 5.965651352872391 0.27588245452977 1.131071989403407 -1.2409473116700114
Ni 3.652985752773695 2.791840476279115 12.24694025417867 0.1041268498186013 0.5907248352625052 -2.5131723504073813
Ni 1.2934901560763272 3.5356442416932983 13.203251701210364 -0.07348572789397667 -0.30899029282733237 -0.8064064519326628
Ni 3.3751584492830617 9.118432239748818 8.362226429705693 -0.13230896867977213 -0.8860042062616482 -0.9417984304131327
Ni 5.623289862999796 8.328759770593472 3.720760999529263 -0.08006132422896534 -0.04837916263433604 0.928162584797253
Ni 2.9004073426033052 8.982748714240342 4.074151388688371 1.0403938088905438 -1.630994974090991 -1.1212210647512562
Ni 3.408671578476547 3.225342552002127 7.417783076957442 1.0966660011197111 -0.3458478279753141 -0.6120333669322943
Ni 4.8964522331370715 4.581312187926123 11.77015084216977 1.711333463240743 1.3738892859480918 -0.9913474449858539
Ni 8.335648276757222 -0.2738618565561566 2.776050671608264 -2.6066584326826847 2.845976972045492 -0.5197472185023629
Ni 5.013292596282275 0.6500827232865523 1.7244126867001888 -1.7628180042732802 -0.42343857917659977 0.3818864667664262
Ni 5.958475825618485 5.783329178158677 0.6171263238901641 0.5648646796662917 1.0412294174179617 -0.5880855978674453
Ni 8.155754391584038 9.496935607529506 11.246032107983135 -0.4469078659431336 -2.181893421385178 0.6131649094335762
Ni 0.1422531193498332 5.367075703186963 5.97049244192636 0.2297792324138043 -0.3938999462875345 0.3441791820236395
Ni 7.342035933320042 6.441664441170771 2.6222602156122123 0.21012520562830264 -0.23772137007901636 -0.11110302402611832
P 8.669631484331447 2.0228061902730987 3.734483341172925 -0.22290744499463547 -0.8727226586613938 0.4119678595328389
P 2.1738977368436174 3.5761552184182124 1.884231496767586 -0.7436247407197516 -0.4099719121487327 -0.20065171892022865
P 4.858583672797724 1.4770287535054645 8.350223481068777 1.1799656297803163 0.792600399287506 -1.214406070846373
P 8.75167395721294 1.8948767900891599 12.74241246121158 -0.37216255461044295 0.7268878875810448 0.6333233866593221
P 6.254453796143761 8.03772949695565 1.5442172015878244 1.3456583161268567 -0.617629372962833 0.9446312718762376
P 1.6614876407792298 3.6496417292788585 6.101358569010533 1.3851828565840403 -0.016413408361016894 0.6599487025563344
P 7.169231013484685 4.411851291585603 6.158596952634142 -0.8309792561760205 -0.6846503190680725 -0.869278151756219
P 2.5700597355043944 8.743108883411454 10.451246107532684 1.6744905833807806 1.4228867988927172 -0.12425987312305052
