# total energy = -381171.64890654787 ev
CRYSTAL
PRIMVEC
9.19404724097876 0.00000000000000 0.00000000000000

0.00000000000000 9.19404724097876 0.00000000000000

0.00000000000000 0.00000000000000 13.45641748570737

PRIMCOORD
 96 1
Ni 4.696705387136201 3.549177985749385 7.664465628016502 0.3550199813928854 0.4721553276560126 -0.35905609913547193
Ni 0.9677010349819445 1.650285476652296 9.789637426278349 0.5517870205467271 0.8830440951920598 2.0103869565703376
Ni 1.367301902258129 6.14531024752707 4.366526930384578 0.11080991826573174 1.0731288372297196 0.7568651506694255
Ni 1.4003453073841123 8.66904858277109 11.030319831860204 -0.9951233670885183 -1.2107661601009405 0.1384096822608713
Ni 7.080859699947645 3.451353325053653 11.022002896891653 0.0742783989986011 -0.5072655410955844 0.7319262213359007
Ni 7.472048014165879 5.342007967986891 9.459766970103162 0.3522632445833547 -0.03522976973657158 -0.18388426965390267
Ni 6.300781583275644 8.283863981281645 6.198429773808617 -0.5807106455596128 0.5315449824682394 -1.5741576533869728
Ni 8.946846714624618 2.2108373317235452 12.040061566418961 0.28399454211394315 -0.3833072583733528 0.3410198104590514
Ni 1.7310275979145067 0.7192199609818445 0.0781310118977755 -0.06628586771142778 0.37726336617211803 -1.18260461006506
Ni 1.5700858041665002 0.15939351622346137 3.133286186491362 -0.879467433584395 0.4564589999666784 -1.2587568290476063
Ni 3.1438951973914375 7.107540824509583 10.18380277293392 0.7690778906855336 -0.17149977994662077 0.5281768373269549
Ni 9.134589155546315 8.105830454053057 4.786057733468105 0.1666617351280291 0.43965709791799124 2.6905666414615665
Ni 0.43996273386023194 3.3435439292530744 6.447588449076882 0.8623292312422117 -0.8712992959513058 -1.1896514896095125
Ni 9.079654724375544 6.3886582850547615 11.477624012296143 -2.0244110387635716 0.6957127475298212 -0.21891992110179717
Ni 1.678584753496419 6.374959154938535 2.000255958505395 -0.3180608876700329 1.1951204831438837 -0.0026708619639437873
Ni 4.4547732328554215 6.08920817237995 12.73189705823894 0.5289556244745084 -0.6899395924914699 -0.38914494810105243
Ni 6.7062022823394605 1.6012076534573885 12.714322637287825 0.07520168214381887 -0.6364398208011168 -0.699949411318988
Ni 5.140014754125497 3.5920957974155203 13.306284115322873 0.18823997551943708 0.555265980234263 0.2913306707640402
Ni 0.8779064549865557 6.546777506356002 9.536603460175192 -0.0661341726249119 0.6673172271062636 -1.7677792049332977
Ni 8.416267452962025 6.243061355846339 0.4927402415912263 1.3730863304308223 1.6435843807202275 0.7489345829684392
Ni 8.770284234925292 6.907892092647945 2.92391842748485 -0.91839882054227 -0.08669991259140551 -1.1673589967598992
Ni 1.655443337051761 1.9859693287821716 4.759453838901455 -1.5124915438357436 1.34726859803677 -1.9064470259515616
Ni 3.311079749091737 7.894082356263265 3.2949386800769416 0.004260060827934599 -0.25698047541894453 0.9359792526281945
Ni 5.789758059705139 6.710164916621402 10.322821361472437 -0.1011022040596646 0.7092688889477011 0.7962310540615577
P 0.6450846819354191 8.322745606289375 1.3590171464542828 -0.43186279868455296 -0.26024191977903566 -0.11030778181833262
Ni 8.357646208921048 1.6005732642103954 5.290054246872281 0.8135106670776119 -0.802192156740999 1.033114758730627
P 5.12269316946847 7.740008515667487 0.49103106824316833 -0.2931060174969081 1.233946711982462 1.4837363260799221
Ni 2.1271715034969323 9.024361725369516 5.399414678411523 -1.7495804225370835 -1.6398565382466792 0.034929721997649515
P 3.585283008545639 5.771746921518773 4.05645033812028 0.1297952011189829 0.08560667952722677 -1.0980885924988508
P 3.7207113217080576 0.6648978533451281 4.283649031990824 -0.385547203447465 0.7206205665150943 1.1671409672118223
P -0.01225842294225748 3.7591332443628946 4.331472787167038 0.6025297983172333 0.8633209057315196 0.24604943032873755
Ni 8.981682958926887 8.706229309073114 12.726069871213664 -1.0257027825372722 -0.6948082334376808 -0.18887195267648116
Ni 3.0415102893550023 8.177396916351515 0.7218706047486283 -0.29844568454226666 0.45435918001485626 2.5015278241899175
Ni 8.322993845559939 0.02310096263760305 3.0294835563986027 0.38672965379134044 1.3955541725160354 0.8096085038097283
Ni 4.746785361460416 2.279645579904641 11.417043516827134 -0.5942086800460477 -1.023484434729715 0.02102802431489282
Ni 0.0870409629015569 4.783239758044869 7.989895359462735 0.1265635815555627 1.040638320801182 1.5914570638973689
Ni 6.2812902035129605 6.070967183017137 1.2395046481537422 -0.7876379130759081 0.8658968939888119 0.20725251206619788
Ni 5.10979392144628 3.2997618771635 2.3164548667055276 0.6151073778719277 0.963922516005682 0.2854446442969084
Ni 8.530402353138417 5.7270270766292946 5.607598244156981 -0.15384350031743826 -0.8710383289804353 -0.169484806399121
Ni 1.974816949700976 3.077091251468957 11.7917772450259 0.7368015471503311 -2.2414591967639526 0.4029150053019513
Ni 4.910991041913966 0.6995483778968269 2.5886244029502286 0.816819676846187 -2.2535102143912162 -0.7563786979513102
Ni 6.466283624364355 6.324713687767279 7.370981532477542 -1.620921391905073 -1.3096595294347444 -0.038779948981675146
Ni 8.040460779471607 2.493342815670703 3.0011042913450767 -1.7012773645563217 -1.587046336424183 -2.367213909264975
Ni 7.622563758550261 0.9532847691952051 10.365612295289173 0.6672007561330574 0.4317532696898822 0.28064002381941344
Ni 0.2519794089056194 3.9428486926732442 10.230900198392561 -0.9342129047563911 0.24212926933872495 0.2603843588941709
Ni 6.858290208770739 3.3220022769964865 4.498386114479131 -1.9705873080748966 -0.011847900477521529 3.5816750017189993
Ni 6.409666682581994 1.0584738615842908 4.2628447423082765 -0.585815570886346 -0.9174981631048715 0.29128850467219514
Ni 4.285097094402438 2.85499985073906 4.535593503517624 0.05317092759602455 -1.3019271937874932 -1.1601617076805115
Ni 6.985774865275158 5.185939019179556 12.62311493225964 -0.8682437969544337 -0.05468890690244775 -1.7445868259772341
Ni 5.033428166583615 8.162943874376545 8.664008406173966 0.03771088428721247 -0.4304255520173942 -0.6696299343998403
Ni 3.7158108946262134 6.720609354079142 5.936123611247599 0.44587119714850304 0.5461884434130271 0.40774173726663326
Ni 9.38620264137903 4.634296195707382 2.0317575219397734 -0.9051170158316991 0.034197986037947554 -0.07876111736030307
Ni 7.0559530264678765 8.567491138969864 1.3834006786564585 -1.4597229938844603 -0.5408670312001136 -0.4012694992787283
Ni 0.294088144430662 4.5241699000482205 12.772925493234684 0.3079474533851148 -1.0001406177974517 0.7791712703657936
Ni 5.1751635960277325 4.772482722987161 5.216016424724669 -0.5378734957894286 0.5124229169268079 1.2436878505296258
Ni 7.160921461727573 9.345748834324406 8.053894201627859 -2.067406054267859 -0.7473489836488741 -0.07486358207810978
P 2.600343135330189 5.060017350674974 12.172055903005266 -0.07737169321194418 2.141163033545351 -0.26174061581174923
Ni 3.9054013390065414 6.266800385349758 1.6808814264514746 1.7694373093620108 -0.8431115206631803 1.3054344356098033
P 6.506627102854286 6.350438631435198 4.989680132468155 0.5076288379722741 1.997279472654102 1.3854175983026658
Ni 5.707572473054842 1.7469792695599102 6.4822794274356355 0.5712654409863129 -0.23815948605769954 -0.8234860331227689
P 2.690711423861989 7.626517198785145 8.049641954863594 -0.061748127742074305 -1.013029815055294 -0.6391891014114799
P 1.5676034114608752 2.753120615290807 0.5611807278900073 -0.46742886871462075 0.945627831461552 -0.03931268155669359
P 2.3860298984112496 3.724508463142958 7.903788511742258 -0.5870702692290534 0.33622136062914354 -0.19489836137621916
Ni 0.049481441860748175 8.933423405920129 8.873780703251024 1.3980975077631794 -1.0066874177770342 2.8385197444364985
Ni 8.460454043122144 7.279965983032867 7.553665408707999 0.7199153129179536 -1.4604783839932458 -0.5721797252704662
Ni 2.188992275914047 4.3242453467748465 3.3113279883622995 1.407594134399705 -1.2110510383312112 -0.2600503725935199
Ni 5.578414499985891 7.1953347798651786 3.172350773035544 0.8536111346429234 0.47141870660030427 0.9476559176351744
Ni 3.9273843055219073 8.370977577154958 12.15623110920926 0.19064421408555554 0.176494919168367 -1.3187866885469932
Ni 3.3205312294672273 2.7499302809617268 9.561604832339654 -0.42446599199984963 -0.7782559576403758 0.004228436259050782
Ni 2.86954483318461 0.1565792184190475 9.253076517599904 1.254915343814329 0.9402987059391548 0.338521726627546
Ni 4.206662678951753 1.1732431510076764 13.835215803752696 0.2778084679078893 0.1820302471642994 -1.458420730133269
Ni 8.523736669021462 1.9146878819425088 8.129856337824684 -0.5724805443403366 2.3398779404541834 -0.23088943475884754
Ni 4.802979377078115 4.550795860327811 10.975161985345926 -0.11402251166575848 0.32605984671510946 -0.702846787471441
Ni 5.308734711684461 1.4677836425535855 8.798410663684727 -0.4062980628415712 0.2856709013751016 0.3483819072510774
Ni 3.130885620804552 2.0268000917661704 6.294239099389264 2.3652513862219653 -0.02876755905099562 2.3710499951816133
Ni 3.1448054080501664 2.101943038370138 2.3515494637301217 -1.1687458498050969 0.2961697440238964 -0.17543305356275593
Ni 8.628557999528233 1.148943284633727 0.9067123238235668 -0.18477284290644308 1.324636976680183 0.17853688929906025
Ni 1.5379893858874776 6.143977110703679 6.808650629300595 -0.23664484918538603 1.0002069522590131 0.8527310460308154
Ni 7.180412841490257 4.092785212092981 1.2966833462113387 0.5746675246893265 -2.1375485767212155 -1.0708256430178398
Ni 7.224470714991567 3.9892602422213694 7.057769770166511 -0.5610190806679564 -0.5596908487748361 -0.24002045052583823
Ni 1.5762090395070412 1.1179225698604753 7.581493030938052 -0.7666443415433764 0.07430282447863332 -0.6437651508179365
Ni 2.4241851937014083 4.848103760038139 10.212586576057992 0.18340655868653574 -0.016447604033062 -2.5235102419982796
Ni 2.8638537180557884 4.639555190624484 0.6508383165842339 -0.7207051558091007 -2.4734583196472113 1.2366191166083027
Ni 1.4643726510951158 6.838477037361029 13.075021652652753 0.7573048093100054 -0.2676598095096616 -0.588106938023684
Ni 2.6499817953956266 4.216932429515393 5.819819835370255 0.6294572188356966 1.5313351589048079 -0.5090959094361039
Ni 7.203388765087872 5.168497911910777 3.390519073885848 0.5729063190238456 0.9833155758203128 -1.071716273152909
Ni 3.7958634623590832 -0.1396336702866881 6.790162320071925 2.184736804371244 0.08365238401433335 1.1877573579105931
Ni 5.480966795219532 9.345932715265564 10.763868992885497 0.03947183284237718 -0.8794239819409694 -0.1754633925800591
P 7.669480980686569 7.950644133763278 10.432841006185726 0.302945115074517 -0.43018078299643975 0.2878244573829946
Ni 0.9104000560984783 2.557976966487526 2.5419039334209588 1.0432983841318482 -2.0759598573751408 -0.35689714381094023
P 6.621028630395356 3.248385542204125 9.014682232626992 -0.09456800248557262 -0.22145837125293472 -1.1084287980825942
Ni 3.802602698852502 5.741921432863044 8.263088193144977 0.266452933685754 -0.48740351206433474 0.07050787621257534
P 2.8240067181069817 0.8991125245255318 11.406708488529384 1.2996147436042325 2.0815669191492727 0.004878668248539985
P 6.191436781616401 1.7784964628742872 1.2749780399171204 1.4112780110091954 0.766045788727429 -0.041097541371258255
P 9.014965409276375 9.222180841866638 6.803914775661086 -0.010498071317846436 0.42995966812456926 -2.1257875795305456
Ni 6.6809370410244355 7.986142349453712 12.601208276334853 0.27034995474731505 -0.4844431438844301 -2.065956980526158
