# total energy = -381165.33555664186 ev
CRYSTAL
PRIMVEC
9.33420933045421 0.00000000000000 0.00000000000000
0.00000000000000 9.33420933045421 0.00000000000000
0.00000000000000 0.00000000000000 13.66155887146755
PRIMCOORD
 96 1
Ni 1.8456531785299581 9.39068113215023 10.99722640840346 0.10227128466710128 -0.5119506052760796 2.244257585444696
Ni 8.331099044384048 6.018212691806167 12.199375473298023 -0.8488147416955445 0.9569810516908421 0.7500782096545792
Ni 7.911713026524588 3.2968426776755235 12.760496790249114 3.0607301633641093 2.2802453163932146 -0.5483787661961266
Ni 2.2976155863811725 1.2421965559033372 13.553250241355327 1.199229877326567 -0.9804369687209373 0.63347096798078
Ni 3.131188467594245 4.700194354841794 4.890783037870055 1.039076632741017 0.37898266285606985 -0.8304902323547438
Ni 3.9390549367622487 8.002749568527333 12.599126982175347 -0.7415760857208389 -1.4892423434998157 1.5846205005915097
Ni 1.1799840518073366 4.735496333910222 1.9959675492666955 0.7060220998756292 -0.06135474895839756 0.4338217221831367
Ni 9.161927668102114 0.20005077086053744 9.72376491889629 -0.21789045139601831 -1.519772136657557 -0.09447004345512763
Ni 7.033550628122228 7.001272932823809 3.252024472361653 -1.9806866012924276 1.5647947241148341 -0.47210262004120623
Ni 6.590381045306038 2.96185657910129 5.965661094197693 1.3418440845870891 0.20681593874941157 0.26027405856855174
Ni 3.1545799957659746 1.582727174722585 4.260834996207447 0.006707751037478771 1.5217606278424953 0.6643100648488236
Ni 1.859169113403328 1.883606073001727 9.500562509039606 -0.6004898850690691 -0.03139599781277819 -1.016234952256153
Ni 8.142884050746876 4.990068220513406 10.292386272912818 0.4915522441253858 -0.25365063971476315 -1.5734737399460705
Ni 1.8128807701457035 4.947700245105792 6.740121362179024 -0.017737783599395256 -1.1493967558545237 0.4732249065711076
Ni 8.28059163858308 4.569730113318943 2.343093720283128 0.47639379121739245 1.4167331205864955 -1.917688660303652
Ni 0.5164869955578042 1.7608798908780638 12.356388072532779 -1.4584240725673785 0.4276891269228376 -1.0082514198300443
Ni 6.233151526287578 5.017585469136813 11.776905432729887 -0.4124124032694252 0.13891978912807043 0.279499482457067
Ni 5.122175282849594 4.097605813667674 7.767934469046367 -0.16970540705035936 -0.6324903492350656 -0.27089939949288183
Ni 8.548772802151298 2.2821114649552974 10.111247543244914 -1.210247054372677 1.4794348704910907 1.1925887178609655
Ni 3.1015243508624986 4.892609742603978 9.576711920842394 0.8992631281540836 -1.7924201434104292 0.18159084563403566
Ni 5.476567202281379 0.4383195277331775 10.086874989689763 0.500550333858938 -0.8783217500157261 2.0266664104566514
Ni 5.54854328916574 6.075534070298822 8.922486534558137 0.6298580538185411 0.0672636582436648 0.82899487875614
Ni 4.206676047780467 1.7886304947306386 8.695281615810776 -1.859725710635623 0.05451021523273838 -1.345336928231696
Ni 6.712099132839699 6.6725034175545925 6.555676455624278 -1.7240303419821212 -1.0365404965827245 -1.283591371592783
P 3.121574232152553 3.506171652447753 7.670199698545606 -1.2242212571645819 -0.561536129513691 0.7754639967175355
Ni 0.38362386227911394 0.47741119572328256 1.4392174424683664 3.192957885183985 1.2399479238712194 -3.2961329126122783
P 7.075255874679008 5.396395679748664 0.25471189974068426 -0.2879054471325751 -0.20851543793902153 0.49821345819564516
Ni 2.929401533828703 7.078018800592348 10.713038942956196 0.7440263470335444 -0.054434110579164315 -1.0239441479749527
P 7.884102435809513 6.420330422707248 8.112684150408962 1.028763423740467 -0.17580354952829721 4.504458838702842
P 6.329844599045338 2.0255980628454417 8.91269121545861 1.274633905289179 1.4937106636838147 -0.23023226079082285
P 2.169298212966661 8.87053232633633 4.633303545111447 1.5649471905322982 -2.117310909518102 1.0812450385789507
Ni 7.157387581136728 7.647788262336379 1.040335881885378 0.1869456821880458 -0.05809407592925478 -0.7963009880675448
Ni -0.2004129381762051 6.750378724632301 2.460542340543943 1.1085434692835876 -0.01635941519462989 -0.5632520837635332
Ni 1.2598008743917177 3.2353302392670247 4.193538148378349 -0.7125804698194372 0.26756647846490694 0.4234023266220256
Ni 6.283220224257714 8.514114883515372 12.483043956715619 0.2283579265862454 0.07953964739754044 -0.19498834998686418
Ni 7.026036589743042 3.2239051672469943 3.357710122230604 -2.2372019641494956 -1.649298400385869 2.904831837400171
Ni 7.672617258719779 0.887425667579384 0.3203005872922771 -0.6436993305770075 0.31062320044506503 0.10333006494891882
Ni 8.042737320597439 5.615236213661752 4.541758288709118 -0.664302608649656 -1.3014438263931716 1.23850142123268
Ni 1.4523096042455683 2.2399861789860176 6.879674323167482 0.8207398378361993 1.1138911067487463 0.606404193670975
Ni 9.325360336401719 7.747720305674981 4.422356018469714 0.12375002336616751 1.8146133916780167 1.412709344139083
Ni 2.2512152326135477 2.4659487144932912 1.9460071281228946 -2.277012154167898 -0.1883155659523789 0.02896013467777593
Ni 0.7200427619604344 3.978202610007354 8.72584275004344 -0.13591802618726914 0.1390851110613411 -0.1176624224111909
Ni 4.451596362105293 8.19098323058284 1.4543957999943238 0.8763414863609036 -1.2863941311489007 1.520597974992962
Ni 1.5881036792025998 3.896686961354635 13.452577995229806 0.8769050721738575 -0.16706231300055746 -0.5426030400546138
Ni 8.29489164702645 9.362865188833485 2.7740065530425353 -3.487392648794646 -1.1197269967042327 2.612316916520043
Ni 5.6259145489484474 5.232953677239892 2.6738262197401 0.9153163249622043 -0.44621418231021864 0.000337585845076838
Ni 2.339498182912118 6.909050946256894 5.735682048485992 -0.44081537989215047 3.017013439202449 -1.1398289096604306
Ni 2.3810727505405636 6.616703515156109 3.009354635866918 0.8556883288869264 0.3346984962267139 -0.3211037882614147
Ni 1.1205718104613438 -0.14799108607514758 7.550975711701286 -0.3657152563232024 -0.484102986936192 0.9691806790808277
Ni 8.964079770604915 4.180820288388731 6.1942325411670565 -0.2295432051435982 -1.0586391282539769 -0.06481442537222386
Ni 0.33522692117073394 6.417968867788075 0.2771242693708278 0.008396194483495217 0.7725085136336373 1.4967551069370932
Ni 5.078164486628642 3.1975173579327567 10.41583212256323 0.2774575123263738 0.3711063454317867 0.2598361997001848
Ni 1.078894566532065 0.9450513412908722 3.7294552699241854 -1.683440850595533 0.9577179298568668 -3.984029249421474
Ni 8.214962813932068 8.597152008262263 7.445426341286168 -1.1003755887608144 0.46657526246507386 0.12357930211625814
Ni 3.910006877835504 5.005478999847614 12.143814526654207 -0.6893112148788516 0.4681822019408775 -0.3322443782592665
Ni 9.01919827573423 8.474920539224435 12.627419903580506 1.2433566924424522 -0.7646563645790702 0.39147179646201613
P 7.786335928997585 0.5389693717566979 11.683938576271473 -0.2498009269513698 1.525207191630199 -1.2961036451271808
Ni 0.09683401931617681 6.708048086061353 6.719437688086551 0.4218830617640218 -0.6469098670945053 -0.5356358647081614
P 0.5879188980477461 3.7833603278618306 10.912812487804484 0.8960731604618761 0.06169259191379052 0.8515352259505012
Ni 7.431850667474132 4.284766041669011 8.120116047747482 0.25363084222042126 -0.3282170022674283 -0.430409096957162
P 2.5498259180651837 8.861468809235474 9.146864121348905 -0.03477339892544334 -0.14217223462709708 -0.6543169581918538
P 8.51446024925454 2.401692018589785 4.707280886441145 0.3397627981234987 1.4209677274931334 0.131824829954502
P 4.601139727164861 3.2497609266387304 4.12176088014924 0.6853535157826842 0.06155940877003592 0.04294719298548732
Ni 4.960553451128326 6.247470203149284 0.4891181608601473 1.7260892813936788 -1.306663422920898 -0.47190387376683895
Ni 6.158701873974045 2.2293265121176558 12.416689864012357 -2.5894456683488247 -1.7887722622451967 -0.7739239059239252
Ni 5.10692318507122 8.304067174637309 5.967355253161448 0.7310222214643927 0.44651885803483105 0.43586729185825573
Ni 4.588407865861493 6.860989103257599 4.3562744846741195 -0.4299378137476983 -1.0314875075398493 -1.1559746661823576
Ni 7.032831894016393 7.7050443013648655 10.069729914292385 0.8265145355364476 -0.04156008282997359 -0.28099637871756766
Ni 4.03396517556917 3.010543814114754 13.998315602053273 -0.03557609733239679 1.405652951512934 -2.931656413792183
Ni 2.684555893177212 6.196178723778313 0.40438501030766966 -0.2957198009706714 -0.04845475306727784 0.5499720788251755
Ni 1.9152863789134789 6.4651719635440354 8.548733598472799 -0.2645418327059702 1.6643128715168305 -1.002236581094532
Ni 5.568406486272459 4.877264302733935 5.340494967891181 -0.20849332645183447 0.29458388759401527 -0.6686647422730936
Ni 4.8823047756839495 0.6578423923363506 0.37231733471550027 1.3068757960420203 1.4754931122345236 0.006501548563943641
Ni 3.3132522173905676 9.34401008631677 6.85047971715682 -1.8509302238311802 0.9809324203001171 -0.7804992451485977
Ni 1.303036931251834 5.792782206221395 12.030013715335734 1.13982762410885 -1.1248249800524306 -1.47737413130732
Ni 4.789989447025368 1.4753744350964635 6.089462577217359 0.4140031447953128 1.1697686346426563 -0.7532427234254899
Ni 8.283961288092256 1.9310331897776878 7.82557321065069 -0.0029418562371433207 -0.74713275387301 -0.8607996819715626
Ni 4.026591150327484 0.7379784448742326 12.036120154972584 -0.0915065899514295 2.612488666211217 -2.311497075318645
Ni 0.552379830066484 7.11469290840828 10.275309337242353 -1.3112590127113803 0.5929786642936884 -0.07887373167876738
Ni 4.602007808617364 9.250238621028183 3.9247474609515436 0.877433690983818 -0.3439426405328012 -1.355092464956563
Ni 0.9570738026975711 5.612622635095079 4.523792736325986 -0.4793179068427229 -1.3812462405337953 -0.6434859290146208
Ni 4.219641264313003 7.894538081657875 8.221648907958171 0.6534939480699262 1.2467194382670979 3.607724133397568
Ni 3.565714572722079 4.3918947602751315 2.3262081359005826 -0.5547409609687285 0.3592250206131684 0.11970027877682611
Ni 9.573258263450718 0.7867730232931136 5.6335489986258835 -1.5034392038254882 -1.0683576410933213 2.1444666439972875
Ni 7.177857501839283 0.7510547384958509 5.304237165804083 -0.727346058164386 0.9919002321655305 0.4841091575837792
Ni 6.749221282695632 3.1680959306393444 1.1115782999292363 -0.9119607782264101 0.191472880634438 -0.9214633184002066
Ni 2.5702678361402382 9.009612042920038 2.254908779180808 -0.9364104266283421 0.5178011505195856 0.13023768797304022
Ni 2.7470950945940467 3.048067334964855 11.364394993342612 -0.3513029375526143 -0.22949486840416605 0.6851154316299491
P 7.066183023368983 8.105015164157606 5.0470302319531415 0.8049118696650074 -1.2668041248321151 -0.41702110568603024
Ni 4.069192480964265 6.341979070962037 6.884209815401578 1.288944151264264 -3.77648825958058 -1.038549042372321
P 6.144943249662342 0.4183769898485406 2.220495416825049 -0.07840939044783915 -0.5325844794763472 -0.5119619181299893
Ni 5.898202764550012 0.20758627792080767 7.814903276152245 1.179443438728259 0.09634694876286631 -0.7574667888091665
P 1.8758960162300395 8.25609867372968 13.539328268383207 -0.5458773399305115 0.4035397833701437 0.4204206182858824
P 9.37182602963351 2.9091929709828155 0.8266991695827208 -0.5570827217280276 -1.1350492288836 0.9272626986908029
P 5.242073199595749 7.005361316438819 11.171739716404845 -0.01472445069436819 -1.0117306366278964 -0.6057007398460472
Ni 4.43334798318441 2.0187934243629235 2.186737315952791 2.120824064877683 -0.91330032297344 2.6402249557842206
