# total energy = -340874.93152898346 ev
CRYSTAL
PRIMVEC
9.22170482485724 0.00000000000000 0.00000000000000
0.00000000000000 9.22170482485724 0.00000000000000
0.00000000000000 0.00000000000000 13.49689715538754
PRIMCOORD
 96 1
Ni 5.879168940455087 2.993743543891294 1.8279521925821298 0.16624135976115886 -1.301410659162391 -0.31512417363921214
Ni 5.003171514175395 8.557935927210496 5.327616918040029 -2.066296366143448 0.07260769616439754 -0.0665810303543434
Ni 8.766235800514906 9.095210905892161 3.4164692691540925 0.7347865736028314 -1.98824153082155 -0.21468865662926895
Ni 2.4374810745449493 0.7659612753043874 4.738463393349481 0.4245729498913591 -0.14109777061599568 0.3690762023756353
Ni 8.693863859409317 7.052907557162417 7.764252362233375 0.5560187992398875 0.4309539137170384 1.531193491120621
Ni 8.157169848144784 1.8418327029990678 4.5534344926979715 1.0772590573480092 -0.2740538859614635 0.22775268890207873
Ni 4.3280043801226995 6.470695209850842 7.231475731267217 0.6387725826993516 0.7827774996598131 1.6663329872706527
Ni 4.169575487641305 2.4472376384707535 6.367161283094898 -0.16345736925811852 0.7406432894939244 -1.4780593302998029
Ni 3.1109606365764515 7.7653027144367295 2.659927965541774 -0.6027619689326974 1.179537283993646 -1.115632514919885
Ni 5.278190423399646 5.55290501635778 12.095096105335994 0.9565575910001786 -0.7049124117512182 0.7151675138203233
Ni 6.314110658376215 0.06437118981822626 1.2402086665912573 -0.3707577038431163 1.956528258878669 -0.6012069657407517
Ni 6.801164231443581 5.737025579063456 7.489684394385279 -0.09252628946519549 -1.032028467644984 -0.15336758912228426
Ni 4.510704800253165 6.486519655688914 0.907242407275354 0.9891270402957674 0.06841859778371442 0.7332595954353436
Ni 5.388555789244659 7.610202857472552 11.240985473783619 0.09036450592718631 0.8728884948152967 0.029616023094219963
Ni 9.175946933463443 4.005124821772812 12.725442064242207 -0.08293093246727654 1.728940891909861 1.1641741712740143
Ni 8.406432535209516 9.341771633381978 8.111217169790649 -0.32318046828478536 0.36564995030290576 0.6012218781390871
Ni 5.369752732680657 3.2914847343189306 8.202766568684613 -0.6175108451070979 0.08310088238623753 0.23894830050758203
Ni 6.232729111452565 1.266389087182333 6.145218819363425 0.7604793503832451 -1.2329434675289284 0.6323067724693499
Ni 0.2728029335046189 8.337647837362093 11.897083043996835 -0.11678464779192789 0.8805357269479095 -0.17945940111332964
Ni 3.8413750054868907 7.962259890549514 9.493109956862853 0.3361511695128404 0.2977774548306485 -1.2356510962680782
Ni 6.3798798586775725 0.41804202127611023 3.6773918800636136 0.004631328124424282 -0.5665189274402631 -0.40520560110834086
Ni 8.515451532119588 5.311010471615088 9.53144181817702 1.622932765908147 1.3651146250792552 0.6998100575276464
Ni 8.766447899730684 6.705221612271496 5.553217632158427 -0.7595038738438532 0.2571349987189378 -0.5965830938154951
Ni 9.0348087379205 9.069712891473591 0.9511736878860708 -0.553282374145331 0.03299162443467221 0.06325865084932977
P 8.467332675253004 1.018869302368997 12.46156389686934 0.15013237001443822 -0.3933165629802387 1.4982280919381938
P 7.424892694817509 4.362899311970755 11.307201004608617 0.14270805252590907 0.09037890410488951 -0.7324599823521837
P 6.9598144448457875 7.639601653120438 13.398032653908448 -1.0405398475501049 0.22023709725132393 -2.272563117257609
P 4.910797694851406 1.512165969744273 13.826896346041769 0.13929054220392786 1.7753536748464456 -0.4347295787093868
P 9.26726025670854 4.880458285290068 1.6543960151632218 -0.7591017533094282 -0.09191153869933204 -1.7670942630511308
P 3.976675861743411 4.393386268812635 9.429553043599114 0.01760820000006645 0.7367503821974215 -0.5929879202650691
P 7.438669922138068 4.768552894704404 4.74604916791032 -0.5137449781723411 1.1355601070817476 0.29963250576151623
P 6.7845190538574975 1.6237486006537536 8.354242295570492 -0.09256562734356315 -1.15283252100895 0.16502265686270934
Ni 6.9570110465155 4.982791546050605 0.5704251639373185 0.9386992226625189 1.7352979444761407 0.5066482192265597
Ni 7.516040027371997 8.55770538458465 10.430807045012466 -0.1509378966348691 0.28136610335216056 -1.3776407825707242
Ni 5.9082910849519585 5.242244217177732 2.641558329114362 -0.05046741262193243 0.004278572770695857 1.6323946826519953
Ni 1.0588269502806316 3.9141527016139666 10.703188546597039 -0.19251803406950072 -0.29694390318575953 -1.0853639458433306
Ni 3.4062027449399164 1.7147299425176323 11.710124040481743 2.189721916290661 0.03581726680892541 -0.5823697784295906
Ni 7.037166106669649 3.4220640775981237 6.425657324636063 -2.5442569876273278 2.1513646566687012 -1.3570264487544823
Ni 9.050006107816271 4.566864983909259 6.6630673542208 -0.0713231730250191 0.06920124158600985 -0.15830564985384996
Ni 6.075711139841348 5.300174968200324 9.757649320486646 -0.47479147972727903 -0.4196130347829225 0.1365021808255133
Ni 6.0500655781422354 0.44156197996492264 12.23601759081064 1.0478137555036986 0.8742264969004299 0.15901501721604872
Ni 3.9638023615161684 8.903786752799682 13.105824486501117 -0.011169129242942053 0.42826119737622376 1.3128770079307774
Ni 3.8640050696399375 6.059278061471042 3.9180009191245886 1.1746048796890352 -1.8900428735619252 1.1268888045599947
Ni 1.8745789775742385 7.040827123568084 4.646982235072769 -1.2641957406749904 1.1038537771174022 0.13359837691515702
Ni 1.816832660652324 4.629351257218567 5.0580701685828595 0.6395516269572211 -0.1725189652397545 0.03287001125514339
Ni 7.892516135378571 6.565457450778595 11.497305531710753 -1.2360635012151486 -1.1907079558984848 -0.202256087292871
Ni 0.8254707822287723 1.8583118898945423 9.104588457741075 -0.6444374942946127 -0.6342494980180173 1.0051725237944045
Ni 1.99598272434476 1.635460166046732 7.232460609364831 0.7953296252932109 0.29264579003103797 -1.5527920432270033
Ni 8.759411738789861 6.415208210662218 3.2894098506863156 -0.5908965849536791 -1.2466996407727562 -0.4149002026882854
Ni 1.5841413775334048 8.609881791666124 8.224739125268748 0.7601049977629619 -0.3428735758383385 0.7590313050828088
Ni 2.9071978421486926 4.210298537070749 7.450409152646149 -0.6814490385219554 -0.5393770769181485 1.3259217569298778
Ni 2.4103600400404215 5.233972347762377 0.17791343304739807 -0.6197222509361199 -1.1622633274045466 0.5553953067232756
Ni 2.209612743158729 6.190862570598926 9.087150213522081 0.23317565968986295 -0.8301076522043445 1.4825050247759821
Ni 5.257395478548334 0.8672663159536516 9.792674278375678 0.24792376453331494 0.12891845494098442 0.1976460993246854
Ni 5.350156609483744 3.331082735734245 10.841814749688762 0.2708734313509528 -1.156409182616615 0.39401538881947623
Ni 6.975113253496931 7.3087729850313785 1.93027254295562 0.39878761339713903 -1.7630321771666153 1.9552740747565938
P 7.751424048360797 8.71307267099481 5.358511474244405 -0.3446136984578968 0.21459069759882396 0.3535837631669911
P 2.070383440557792 3.0572718698694272 12.683034209303079 -0.05444105255769979 1.318883619136174 0.3745372254902066
P 0.9577201762895948 7.529365391145897 2.235815295841886 -0.20855914669276338 0.6746782954570252 0.20934050494347817
P 1.0124233305503418 2.646758448582945 5.10921005601853 0.07024510946949192 -1.3093157729420806 0.9206158827982468
P 2.8941399078207737 7.812822160476114 6.389296141687628 -0.5522835005671713 1.7851050978062546 -0.011380988143432013
P 4.525773066278461 1.3931598662825502 4.444798196546804 0.19249926501642334 0.5818810117186302 1.0561749829842002
P 3.0752173078652825 0.961547183878639 9.259789753460623 -0.6279934898059765 -0.9459322500758485 0.5252750902991277
P 2.060672985157157 0.5590105374464296 1.3384142921786475 0.40089668932034184 -0.2141690366803731 0.6064288762613234
Ni 1.5546780299502816 6.262174015625622 11.573292381189603 -0.655399135512439 0.46310555874891857 -0.21595646759809903
Ni -0.21430135894043267 3.8303366245613826 3.567877677593224 0.16958096565735312 1.2184388461548499 -0.3657054861311895
Ni 4.4824587177345085 3.8318582058919666 13.443274338804471 -0.3044911194053982 -1.5685403072001953 0.5252707194237535
Ni 4.18958658756474 0.6878322237461731 2.469392784814557 -0.5179510458338886 0.35266382245588296 -1.0107690440455754
Ni 6.162985356281624 2.952291979764177 4.292877061307791 -0.3999541229014144 0.7447961353200334 -0.8625148648904565
Ni 0.5988483031926243 9.027348378548123 6.0752233116450585 -0.37270788559095164 -0.07695903115455778 -0.4796110126031095
Ni 0.5882636301547812 2.1050754948951034 0.4981583502691172 -0.21185118718047388 -0.40183951284958536 0.3418453916841403
Ni 2.779062250703467 2.695255395355917 1.6508862342273418 -0.2581546982327038 0.21051755597071486 -1.274371909877044
Ni 8.620302318354364 2.0987401835368544 6.8830806372591935 3.307546553765858 -1.650335583401132 0.1481626478825771
Ni 1.9528896967216194 7.634963135488415 0.2457261631842539 -0.9457795265480679 1.4042640415852075 0.58750350011173
Ni 3.8506981492761048 3.3730046068180877 3.7059238354383184 -0.4512771986554228 0.4617876112684434 1.4640959261411752
Ni 3.2289615741894857 4.58837922175321 11.378626798777729 0.006888756700033297 -0.29443810604477033 0.36015241752344423
Ni 1.5109302612697382 6.138317295316097 6.963697704835539 0.7941736573118967 1.1894974805301515 -0.9074631474663726
Ni 1.1598415072213297 1.5031840290413117 11.384889258666211 -1.660406851594205 -0.2378419548172807 0.2863252471296488
Ni 4.362751764690214 0.21851198945888464 7.415127831357174 -1.0860252335764136 -0.22769792440474335 0.9475065365415035
Ni 1.9098796644437834 5.477010383929265 2.7373598561994297 -0.5644432758581569 -0.5594813038671913 -0.7046858975627089
Ni 6.898121238169389 3.129376381529033 12.89374832498535 -0.6813019714211299 -2.6788871482411087 -0.19857118224211606
Ni 0.9956306056837168 1.8454937198975028 3.0584919014454046 -0.0484120727548005 -0.7339995589251617 -0.8298217455328096
Ni 6.03514485939748 6.496036455283837 5.250954117582196 0.6316226019181316 -1.303434117350323 -0.587279299916066
Ni 7.764067005962194 3.5249783057757935 8.572864945489782 0.018928204363070626 -1.1640602714039696 1.0331960055905238
Ni 6.512432646834008 8.073178558696556 7.16789207505888 -0.010886822115832863 0.524837745651393 0.1012839810531675
Ni 7.785756456201789 1.687608908013105 10.67670749842186 -0.7049226961638634 1.5395498335051163 -1.6588827016401948
Ni 8.832189434916938 6.699264390819634 0.029351764952213675 1.6396349091541762 -1.235730286245446 2.3057002661312094
Ni 2.513237381397956 8.693338222222389 11.287185293832662 0.2666092567579602 -0.4979455492462392 -0.7047185505728573
P 5.248321320795034 7.642552598731267 3.356273667375189 0.5991482834395101 -0.23781238713092592 -1.5772314072162903
P 0.3416180629786533 7.319322615590093 9.845635452555534 0.15961588402484125 0.4233974415260192 0.3102254507860141
P 6.035965591145492 7.271738617615472 9.153190531951433 -0.3514284073868851 1.6342947278881852 -0.5437119568480765
P 7.757768581424081 1.5714338679967714 2.2426845439215946 0.45823871757492046 0.24426148519037932 0.029328573760788196
P 3.8207552730312218 4.61536193068223 1.9862980897182199 0.8181808188597715 0.5595584369620299 -0.7812546352573836
P 4.01090683082903 4.983298739827466 5.835869346639188 0.20145955953350467 -1.618171854184394 -1.9121031957960748
P 3.53889385867186 6.855812055474124 12.54519092896873 -0.06264672829694372 -0.8548483494841344 -2.25941732390427
P 0.8209715123427612 3.8761408334644725 8.475511405447518 0.523614414767253 0.6103248688816199 -0.05981054439972925
