# total energy = -381173.02050859673 ev
CRYSTAL
PRIMVEC
9.24718395573315 0.00000000000000 0.00000000000000

0.00000000000000 9.24718395573315 0.00000000000000

0.00000000000000 0.00000000000000 13.53418843889040

PRIMCOORD
 96 1
Ni 0.019476418641865282 0.3213766278033359 12.076312598807757 -0.06129998446106216 0.45132219296074527 0.2747732806259913
Ni 8.877805098858596 5.0645253969388975 2.8072610003510245 -0.3416204201575278 0.7988456088662694 0.9145298245051668
Ni 0.4682986590954963 2.7083429499028724 3.3144283473571425 -0.8302158956474347 -0.007699682637102868 0.25618420476989434
Ni 2.8249499383531247 5.931680063229333 5.107301944747939 -0.43821239505166465 -0.212669312206395 -0.7374733764063751
Ni 5.944940524881805 5.934657656431631 2.7528542694036884 0.2720132013823509 -0.9795224273264678 -0.32035636857242894
Ni 3.1715898724567055 4.26523581298283 8.837039813538684 0.4700886749349711 -0.3714506161450829 0.10323801945574479
Ni 1.5445108838940032 2.5823223282851058 12.558617042574683 -1.1309269791851104 -0.2393532492554845 0.7734153417186229
Ni 9.0730871275733 6.098527001580475 10.193503665368535 -1.5909940082180212 0.3695248598772797 -1.229651684151534
Ni 9.36480803674381 8.418682420305462 0.882611334109199 -0.288405012476813 0.4514607754211386 -0.20804158362639655
Ni 5.578798280021555 4.674405204334675 13.30493228436303 -1.7719955570074901 0.12000932537681266 0.36243118625529197
Ni 4.647375685917539 8.769807238580206 8.455227290912552 -0.3060021567332859 0.9859244741980698 -0.13787129325889805
Ni 3.76356684149872 7.261443596387395 3.0090428745995657 -2.1160767800006846 -1.295896414212381 2.521807143264244
Ni 6.483191355708437 6.097750238136397 9.754265206265408 0.013418073178118826 0.4653707006340115 1.8506795412729546
Ni 7.083241116258545 5.7148613433091855 5.541627375067275 1.549124878788061 -1.3126893174000038 -0.9196979989696676
Ni 1.3742517346992333 6.023023745379341 7.770071998443089 1.4062255361869522 -0.13214647495997886 -0.3951502737548679
Ni 5.272254135126563 6.72809377300554 5.027667046799019 -2.3134685972227187 1.529680139799888 -1.4404086098265645
Ni 3.1743917691657004 7.179846446023793 12.306217933323842 -0.11038748601633248 -0.43047106054334894 -0.44191066983885824
Ni 0.7197129432654524 7.28570820683097 2.9503038380147246 0.5667055895297725 0.00401374914508341 -1.0999009631172412
Ni 3.8230262337061043 2.3507173613759056 6.180847281721778 -0.011857670669534418 -0.6076516929248309 1.04761243812617
Ni 8.832586369792638 0.5432285898974307 3.858773072346242 -0.5635079085280812 -0.9335760425033406 -0.5090737979489167
Ni 7.630628164736949 2.712920305912617 7.1688968556174535 -0.9684731114908417 -0.19482174250201287 1.2918248152461689
Ni 4.265688924991875 6.558380207658397 9.091035911441814 -0.9042315279029524 -1.7784420839637822 0.2123381541192214
Ni 7.584614177859198 0.2349829631725531 7.863241999405065 -1.3477002862575498 0.05318558288404388 -0.684779388446769
Ni 5.743888253439664 3.8058912020171025 10.774715987681372 -0.844988683081235 -0.35624048406354775 1.2881661354476588
P 1.0383940169741612 1.5368264741079476 0.9346193455637516 0.2838808993542143 -0.10962309704648217 0.9013752894010798
Ni 1.8111441832575694 1.102800652545613 5.213233984152436 2.33361344760171 1.6168168828183962 -0.16998694284652016
P 5.623637874549333 1.2859873647739632 7.667388494727932 -0.21821055373959838 1.4683698709261808 0.0014812125312168038
Ni 1.8382569263294282 -0.2187273386684533 7.159667241408715 0.29319009257028217 -0.8516164728103978 -0.6106408574601419
P 8.142912903290123 3.6814703432067817 5.2486932353745885 0.05252686625412244 -0.42743793014398 0.07377806232341487
P 3.2396306512843784 8.350234765388034 4.8188887532434626 -0.8569186017496015 -0.11870783295656974 0.208924243341666
P 7.739467518746423 7.570465986556352 8.78167137547011 -0.9250986011599488 -2.4389345748387288 -1.044857243978536
Ni 4.866071584160874 8.096695478367494 10.608489535367106 -2.085149494294209 0.7404489140949312 -0.16590865901208846
Ni 4.379900892822888 4.458696146477495 4.059160471268987 0.2335860077544042 0.9333407865640829 -0.4625563711136679
Ni 8.425331145499413 7.258456756001239 12.267875410174744 -0.2855423462170373 0.6169274617998021 -0.5490480243490092
Ni 2.3458625898504195 4.950590844623626 2.6078214377737314 -0.022014299487562086 0.6376430970805986 -0.0700083108683375
Ni 0.48925185299949525 5.217631020076948 5.402333345739636 -0.40456668197276136 -0.030954025179353143 -0.12322680387284583
Ni 3.974134465130813 0.610688645578817 1.644227891027492 -0.47600812574319956 0.5529576438160606 0.7140789087418348
Ni 7.148082369471326 3.4638378711071236 3.309568952239727 -0.927740666768486 -0.8071695553509326 0.3349568920944231
Ni 4.667562288279703 2.210002964607667 3.897480859257734 0.7073616446226592 -1.2039532509441653 -0.1844635391961404
Ni 3.882309929420186 2.2749921727621767 13.517026618050089 -0.5131096585811872 0.265959024768471 -1.1590293938482814
Ni 7.523619753131373 6.6998991094222875 0.7483579447025934 -0.5760926871716272 -0.6626627590533879 0.6268992283005332
Ni 5.826585818682378 7.130457237037846 7.273949487837048 1.4040364989554335 0.33185408479938333 0.6119719175667396
Ni 4.720992516611627 3.3998935947285753 1.8183181484946596 0.13508190343921897 1.9343470947959396 0.558208864912671
Ni 6.822692463873588 9.329576266244565 13.757096457062968 -0.03927540056085494 -3.272842831736086 -1.38342293647014
Ni 5.12705485418716 9.0448369808869 3.6862122990891995 -0.12686285796353636 0.2584400906836065 0.6731726574457761
Ni 7.578178137893981 1.6026294344419676 10.058865593113433 -0.3964147422895883 1.7280284073979206 0.016095877120598085
Ni 1.7902825364737653 9.479565588422448 3.248814029573827 1.3631587869044652 -0.9336367205379469 -2.6147718058184384
Ni 2.404656184820023 8.420051003516456 9.21898826976753 -0.4120997571250129 -2.0359036127842036 1.8154397442340542
Ni 7.454034694599402 4.819354811309909 12.015273787597412 0.05563712974832999 0.7430490707219396 -0.19446333072132962
Ni 7.067382195941956 1.2910270799766108 5.256502482142728 -1.379150277236715 1.605859612475944 -0.016314935109939643
Ni 6.8646284426699316 8.860984471420768 11.011591849389673 1.460868420342813 -2.022236399709756 0.02470598738711229
Ni 3.417897861700236 7.1283858678536385 6.920125416594134 -0.25045527270591705 1.400335910175395 0.45777000546861807
Ni 7.096547813830306 5.204980872559109 7.770708204692524 0.8049236967395493 -0.8141094770038755 -0.6409063412129027
Ni -0.3715065362163147 8.871600238489831 9.834915445001943 2.4811742002342303 -0.23681685598687605 0.48888395326460327
Ni 2.0633148870671154 5.998306022926721 10.100875549380644 1.1834695291685167 0.404184101822362 1.148825456732086
Ni 0.6202973943257367 2.8418907791811074 6.715461195137032 1.811256816500958 2.0829146914264194 -2.2489431638458237
P 2.666684386622271 4.1204341609493245 6.752409242960334 -1.096823352633182 0.6922409869311369 0.3281362696281639
Ni 7.538803629026323 4.118519993890705 0.987572419208599 -1.3460596653303334 1.2701499013758963 0.518485835291436
P 7.4824512905952485 3.9290821853742997 9.458110272434956 0.639145392657738 -0.21829848546771435 0.1402603623163649
Ni 0.3894923088202592 5.237336768878493 12.301386279758 1.8907987778913435 0.1376460646219694 1.910916374576825
P 4.168861662814033 5.775689318727564 1.2987965638541605 -0.25457315152903254 -1.0528258640063093 0.025225350225692042
P 6.708785653109892 1.19649311939557 3.093225537569884 -0.27983372586803423 0.0491558928993605 -0.048462980597393956
P 4.255646483322012 5.3958242530219405 11.309912473679683 0.11330388833217905 0.46184494686894006 -0.48179233652514447
Ni 5.023430911873637 7.8138056297814416 1.4205079977940671 1.9928774869316646 0.15333853565656172 -3.1403369165541597
Ni 7.059290910066146 8.15059731307618 2.712251734519678 1.5943220441499897 0.08999735239575468 0.031113433575352865
Ni 9.242042423844083 0.5933677454942676 6.137754480224791 -2.7327314477550746 -0.7706902294779759 0.9887951108776454
Ni 2.1887159473663917 3.6286781705610647 4.703171343880356 0.11066953603312554 -0.6534651517145198 0.10943206408159863
Ni 0.5169434697808691 3.7471253485990728 1.0478788534573826 0.7041130557783745 -1.0540849332243911 -0.28962602936810766
Ni 4.4373813876846455 -0.07158429968208506 12.937073762178724 1.9841825302608282 -0.03866347800846889 0.19686834061839642
Ni 8.140924758760638 2.476996904141698 13.072442361958611 1.1827375360984986 -0.16427240896024614 -2.3549708302315637
Ni -0.13248532785294279 3.5241202626778767 10.872595579382262 -0.2930772211415017 -1.4426236152000123 0.46986010386393273
Ni 2.2890571394103003 7.208521963167667 1.129447337551025 0.7911700945988825 0.06114237583727534 -0.8344777562475822
Ni 3.2974902806843174 3.2075799120323105 11.221682318334688 2.372959296389184 1.9370138429948254 0.3337551584768381
Ni 2.4027420177614025 4.684373668533674 13.635965746269347 1.8121919267207178 0.6542287693534217 -0.2197897253012602
Ni 8.170904128828498 1.2422111963898639 1.4818584391004268 1.9697069623524721 0.6229335587845659 2.1283818226202826
Ni 0.8082427073674493 4.073430725398759 8.922048250027528 -0.21812262201148244 -0.6228623392269982 -0.9248057525098784
Ni 3.091962372254872 0.5587407408193418 11.140301552073364 -0.5018909070472325 0.031566976173003705 -0.5542732773036906
Ni 1.1086726142954868 7.745866569976207 5.200917659971873 0.36015267463376033 0.6526573111012437 0.6011439737133002
Ni 0.2684873597271093 1.446906858272083 8.298379332467139 0.6561144164119087 -0.4317100751567726 2.5431640116734653
Ni 5.758156658132665 7.093468501605569 12.334165697098085 0.6935365658141088 -1.395155651526036 1.3690730955063712
Ni 5.773423758682338 3.530556302643093 5.665208589583282 2.5149777790472365 -1.0159302765315408 -0.8152983551056538
Ni 4.716868272610928 -0.07751451869026481 6.146971148376128 0.5530003241285378 0.4217637625773381 -0.47490949336238214
Ni 2.769577801411007 1.3035570141042947 8.553485092433238 0.45291113471441996 1.8949637079023107 0.5348655622010401
Ni 2.211205098509216 0.1456144794946294 -0.23296152878117915 -0.928284455087098 -0.43203403415509467 0.8034347708988486
Ni 8.829867697738367 6.93408404062789 6.8345889659069945 -1.4124820586196256 1.2251293708011481 0.8494590601477627
Ni 2.6849845634773897 2.5488382755350374 2.6050334118405236 -0.5088215727287947 -0.6938594963711664 -0.9696992705884591
Ni 6.21497678790514 2.1491195060861394 0.6663936811398257 -1.8850760164749534 0.6538546738434545 -0.12593906059768634
Ni 4.65876821643068 5.051764283214761 6.673424422036635 -0.927500525733222 1.0061665122765575 1.346654361491539
P 6.061667726722211 1.1736895640015712 11.946722564220774 -0.8171068690693024 2.559326480365941 0.9889637752450258
Ni 4.864000214976667 1.5802974854247307 9.916336898872242 0.841071864525332 -0.6374844600155473 0.5606362434072408
P 1.1896039674213084 7.682264439400407 11.476355310096228 0.027878471577822955 0.2425686708689887 -0.7687264208833857
Ni 7.20228011406347 8.346878037647555 5.523451110475854 0.23518703369293692 -1.5958796184450967 -0.5325983634334183
P 8.484744301787508 6.862399871360137 4.301015941484857 -1.230809451905061 0.2323351660664386 0.6977955982007789
P 9.7034399096263 6.033630265264546 1.012887509738449 -0.16903640600779277 0.004692520379662887 -0.5738396294713924
P 1.774969200004803 2.1269355120106312 10.441517760033879 -2.1731817525437926 -0.2528919071718677 -2.156024781148532
Ni 5.455819981893094 3.4008737962175304 8.527905532445047 0.23613448520787075 -0.31356351402031163 -2.0015536745494242
