# total energy = -340870.4307089482 ev
CRYSTAL
PRIMVEC
9.27666371966804 0.00000000000000 0.00000000000000

0.00000000000000 9.27666371966804 0.00000000000000

0.00000000000000 0.00000000000000 13.57733505327284

PRIMCOORD
 96 1
Ni 3.9086573517626615 3.969298902965535 1.335457387380188 -0.5244965602618903 1.3621313740812153 0.5780055879236239
Ni 7.780170941705481 0.753399611467922 8.777204501987262 0.1200049545014385 -0.42390600573132153 0.4025056856786745
Ni 1.4701935076158898 2.6337190636233037 2.689928224866757 -3.975170770589579 -0.37618658816817147 -2.2438783477284066
Ni 9.137949837499981 6.157867977905787 10.557233014229933 0.6189691748201792 0.045776177793850195 -0.4771836341085395
Ni 4.597032188386382 6.081521034904464 7.397272005393071 0.11809102530817726 -0.09599650740198307 -0.6324682377478784
Ni 3.9722117753959627 5.697847497165491 12.217212220351081 0.3175988604319498 -2.414334516901861 -1.833730572123442
Ni 8.915365566494664 7.1451740285361485 3.026306547599211 0.414383410952867 -0.12795223437297318 -0.2085267507929312
Ni 6.042364237041938 6.524444624277635 13.895044365938334 -0.8282767696431929 -1.7132607621704428 0.13032819080431748
Ni 6.418774147032424 6.836001377704057 3.617029655158808 -1.092408511394938 0.33686079398535534 -0.30354572477299335
Ni 3.2520087053047395 1.18610495567512 11.322683011962583 0.13309752601933852 -0.7248258628456936 0.16964241502290783
Ni 6.882087843418586 7.879310647641708 10.149601564583888 0.7435324381162615 -0.30844779006030104 -0.7482558117338597
Ni 1.187097558700775 2.908280481850542 11.149355042689239 0.7241812872831592 0.28456558412606475 -0.580057071136014
Ni 6.5895668040916435 1.0572149889606133 6.591307106218866 0.8751680348780927 0.9634386343907277 -0.7506518227698621
Ni 5.47150617732475 8.690100339653698 0.9529582752771776 -0.7519024073475115 0.9390018415046023 0.7139480395909252
Ni 4.76512533628237 4.971475445653142 3.7182074441299546 0.12450541347495331 -0.16030931054744002 -0.2242323344536461
Ni 2.1213781991008123 6.977442670528015 9.835543822599364 0.055204670196601704 -2.9584709628818664 -0.33606272356409217
Ni 3.2328616712397666 0.619992837153495 3.370723099506713 -0.21582868377098313 0.18234520730155693 0.20566048498872966
Ni 6.950466132223295 6.134258868557261 8.38506322553971 -0.18390329581729617 -0.014230027556452913 -0.009839097577608862
Ni 8.429620897061454 3.081095451616236 4.992453693150491 0.594225649326912 0.4483906211362471 0.5177594986483728
Ni 7.467890608503348 3.207007609253777 2.30361176561368 0.6880027804800731 0.2486210477106557 -0.5699012136489346
Ni 1.2539637513075237 6.486679325983784 7.445660939060568 0.3478188356587558 -0.3372081500224451 0.8375168001842221
Ni 8.078814579134594 6.081363331620014 12.564792114611372 -0.35403190644800314 -0.4075419625510014 0.08543390139478835
Ni 5.003813895629158 8.43569711184467 11.719765967211693 -2.0381415009757866 0.10961538373699832 -0.2449168593861911
Ni 1.2264677198304978 3.919928498268932 6.559604107712546 0.7291386312884345 -0.6844950244371308 1.0776971733266925
P 1.5870609180570412 5.449548314131053 12.084520676814954 -0.06661728290891752 0.09002563453052884 -0.5034392253709588
P 2.9697662094584127 0.2078789035635554 5.988243252817877 -1.0813481398157183 0.21749090196475446 -0.553950346746633
P 2.78497506673832 4.805590143739451 8.06463798152893 0.7555711144483503 -0.07819058956881372 -0.3835000911104492
P 1.6451699400449258 7.921760661150098 3.209939962678166 1.9553478654173229 -1.0054273201176875 0.5344616418944022
P 1.2021350307062608 3.876958991588236 4.45499533374703 -1.1542471419682896 0.6467604860008346 -1.0470578511742805
P 6.287231054473644 6.791798074739135 5.945678208678475 -0.37015169482800125 -0.40953122506688827 -0.07065957129909121
P 8.151580729912528 3.958408099674702 11.872157433974747 0.5238620120016848 -0.3228526526317214 -0.3171507171509377
P 8.692029885722262 1.0363610487580646 5.9407495172062275 -0.1944319632627619 -0.9571147490552292 -0.7170462189002748
Ni 1.4509537069130045 1.6412737412526346 5.1645061211525505 0.8179360498388171 1.0915682748818296 1.1936279577587572
Ni 8.942054528221858 8.579494677271587 11.370760249726699 -1.3012898173138105 -0.022548060503845037 -1.0798093345736888
Ni 0.3419545253373258 0.21098380293445979 3.8450064508259323 -2.1795400906616527 0.32460228833297644 -1.0772567433551639
Ni 4.010533673517283 7.6357518398045565 3.168107774978267 0.01110819409801958 -0.5119063823017055 -0.09489504680768818
Ni 2.1956100627577495 5.737950514734716 3.122896098659245 -0.43059550193635515 -0.31122046770943174 -0.01779511919989193
Ni 0.5403860744959543 5.823537014872045 5.242508020974219 -0.7115162902209811 0.8087119601373878 -0.9688207246382476
Ni 7.793148994349326 4.279260070219876 9.464312146337107 -0.6271378266739006 -0.5562985352638355 0.8407875005156938
Ni 8.717819011061712 2.8128143347756187 7.516209039526032 -0.7107349319702664 -1.5879547071710651 -0.10216098434148213
Ni 3.307891327982744 0.04686199480747101 0.11117896020440625 -0.7841535540717334 0.7219487984082148 -0.24148469377619056
Ni 4.323352053219304 2.2322621613966596 9.353847489244622 0.21983600515816334 -0.2399590011602835 1.4530262985905749
Ni 8.711510879683717 4.992116022588492 1.2936511743389043 0.01187181173692149 -0.3527468690879925 0.06602772895403466
Ni 7.477538338846163 8.344368356820608 4.986167825765595 0.5108432311445138 2.199219828478767 -0.5895081892465847
Ni 6.388884736297277 2.866025278281766 10.789337925284126 -3.294284032328997 -0.036903043673936445 0.3451389748337475
Ni 1.3557380297604424 0.2305102525484921 1.768366818190792 0.9701507563035808 0.8879564448920126 -1.05952487329304
Ni 2.446720074920912 2.2236998007174105 8.087407552804356 -1.2502133103529693 0.5027308864500245 -0.02798928612407438
Ni 6.4374666245716305 3.9992068670282652 13.216449915949644 -0.2445440494278047 0.1605221978891945 0.5077260256717707
Ni 4.4100424763477815 0.7717469971140967 7.426666969948149 0.21856665152743648 0.032884666543162716 0.8883323401741926
Ni 3.0311035104456248 2.7668391890265838 13.191466932693647 -2.592262054751697 0.2215632722619152 -0.31601454666396545
Ni 0.8220979451734266 8.333292020253952 5.770638694935659 1.3312061452572688 -0.46095534517513514 -0.9967249072476834
Ni 7.936974389767617 5.150236756908973 3.721628677736138 -0.28643194791084214 -1.2707931913868502 0.18588818745780888
Ni 7.091295165237036 1.5138958707360886 3.901759224567548 0.08401902332513271 -0.6922242747605886 0.5512157214242894
Ni 1.7237989423388769 7.739001107800271 12.293095330162847 1.4432144547064758 -1.0628747636018792 -0.028104214435383856
Ni 6.85459181194156 4.0728914075215235 6.927767063592683 -1.816961323084903 0.04085560056378125 0.8779671948897847
Ni 7.548310006908994 9.052539593974684 2.162692748961164 0.6477179648180974 -0.5999545813908894 0.2967906654373469
P 8.09464984422612 6.987062570879459 0.9698380927115894 -0.8640968646655958 0.4126304328175023 0.8779880208253912
P 8.696120894454168 5.0687690954949245 7.086105799512256 0.6162862286713774 0.9839326405790215 0.9628969029546449
P 3.8815231101734913 7.2037747137049655 -0.142688076437492 0.5451314629034225 3.2472040481220596 2.164205260076795
P 4.028864361168633 9.015386555491052 9.616107123618393 -0.9114010490681981 0.6843530995426278 -0.13641193510455216
P 8.918807208761187 1.6751892240731496 1.6186628009280384 -1.1071458176051125 -0.9489653804752173 1.2662896470895417
P 0.5545700934326523 1.8825690431247404 9.042193330848393 -0.20101912956197637 1.0017460146113586 2.531927776638014
P 5.8581575241406885 4.765468572842643 1.774231525039569 0.9745501709228571 0.043410248664834915 0.37059803833680044
P 3.105391034085309 1.9349636402172645 1.5920786655016845 1.4012136847946577 -0.9677478032890431 -0.40411648180922016
Ni 7.155610275301214 1.1938973532597024 0.3018190394448317 1.1481518277038292 0.8444343532396619 -0.046830844310609666
Ni 0.6993528405541902 4.569211473676665 8.906867214795573 1.308464480685379 -0.6022559758305562 0.0394306951917966
Ni 6.169677170911945 8.233595714490255 7.594808356495851 -0.34692383464831217 0.08106251179997008 0.7703557289566927
Ni 2.8237051380664515 5.01518708543713 5.278623928446 2.0501428963120367 -0.6227839205805791 1.0496652068901404
Ni 2.9618253852531717 8.055706409630792 7.73293045901533 0.46337295347769236 1.0296409412494139 1.9263807887610116
Ni 1.7152829649785837 -0.24218493392967871 10.182281395787417 0.393832840495025 1.9614444652333638 -2.4320321912919405
Ni 4.741757420192414 1.864581592033663 4.812472500606119 1.2702002949978577 -0.3967631267679425 1.4783871459528668
Ni 4.585742488552529 6.9156044296960815 9.730442004844553 -0.17067445583184798 -0.12644042571413708 -0.20536995033150438
Ni 5.281631422847097 2.384751960795901 2.410439042833649 -1.078114463369769 -0.947095160035698 -0.15281891570766581
Ni 5.164318732543969 4.5083936658617585 9.116053200287304 0.32993038541410924 -0.08165129442390454 0.722189196553795
Ni 0.04982588888874962 8.447710391454235 13.753433310166997 -0.21191803586266728 1.012199605844515 0.18610570278525368
Ni 4.217069316163877 3.2403572155830314 7.081937794470885 1.1450613617039633 1.1857087029116806 -1.1651720164109094
Ni 3.1124598518941795 7.088651316056554 5.765316672918665 -1.077498427052325 0.7629825764210731 -1.6612152064281132
Ni 2.1735130496071844 7.030124844198066 1.1205263640025858 -0.6559159272478575 0.8492559429980212 0.034979087178346205
Ni 3.101364961999941 3.111179672290998 3.9503800748298246 2.728906931802662 0.4978321635968265 0.29612886348363193
Ni 0.9490212591642054 0.456774576079766 7.523609034232247 -0.43687953517285405 -0.5965165022436179 0.683421331756978
Ni 8.348366598914602 1.9676546034173452 10.91968061754833 2.043466769843442 -1.8623186681737798 0.2889092058067412
Ni 8.404629564808046 7.259917082969122 6.750488163210679 -1.0541039593877848 -0.6865681049160757 1.5716803954910739
Ni 1.6664320534542858 4.740894690459836 0.6090899741997337 0.21791436265541825 -0.1898983370584665 -0.6653297643625896
Ni 5.141674396229724 1.866947141300411 13.094266977156154 0.08762191018504265 -0.5146471782716362 -0.7561241587383429
Ni 0.37428740931506743 2.486266492662667 13.40459086196473 0.03410594054477352 0.2981690338421123 -0.6410410670185541
Ni 2.8222115951960736 4.572792265900056 10.347029378720311 -0.10396049944406612 0.49017361861030423 -0.7540420793983337
Ni 7.005217001918777 8.349043795371358 12.75923284300704 1.6782557068501678 -0.46668736256290594 1.2193479882326808
Ni 4.887493808351684 8.504298040580368 5.556836641541443 1.0085015881676374 0.8199659357846523 -1.4552017089753388
P 0.025863338649780108 7.904014403317591 9.15897168531715 -0.3670306327005163 -0.10740269235639567 -0.7648633383835536
P 6.173248686471546 3.71023878993334 4.9936216251218 -0.6249662729438785 -0.967795882918159 -1.7304871533510584
P 6.212693060911597 5.874020619223588 10.822900894880577 0.08386295736324266 -0.5122807349219887 -0.32811750057508654
P 1.1370314042198342 0.7234999964026041 11.930920460759909 0.13887479482274792 1.659225172581278 2.0813823139422927
P 4.072993450823226 3.2230562376125005 11.40975470597288 2.018079697228905 -0.1916991377126311 -0.5405063054265852
P 6.199269728405776 2.332691323599859 8.36054314780689 0.2555722822175082 0.7153248653337938 0.33995563086059516
P 5.509633265506457 9.535575477580872 3.1305122396317953 -0.3972891744747416 -1.4658504469384368 0.11597757850960026
P 6.685923510890519 0.47113763462763353 11.253736991333854 0.6228844507141854 2.033705062470988 -0.24186701681627376
