# total energy = -381164.1586572147 ev
CRYSTAL
PRIMVEC
9.24811376310344 0.00000000000000 0.00000000000000

0.00000000000000 9.24811376310344 0.00000000000000

0.00000000000000 0.00000000000000 13.53554930597250

PRIMCOORD
 96 1
Ni 3.660708559505056 2.9609038016962135 9.80109070430667 0.357850508863145 -1.0653641056826362 0.2861758660359781
Ni 1.8636983534181788 4.241934004447176 8.995075985601096 -0.3939099735898635 -0.6988926879196996 -0.7450856415359942
Ni 1.6091625221881962 1.8200934976884486 9.908860821971505 -0.49728734683695003 0.4596841917721955 -0.5794700882842924
Ni 7.256014459472329 5.233378025339166 4.296413716985514 1.5814858116172696 0.2196125762934476 0.7105891504210213
Ni 7.204733669435986 2.877495064935569 4.128017590468878 -0.39864748827484897 -1.1579554440578124 0.4770915886153654
Ni 2.074102186441953 6.283418094142838 7.499046562167377 -1.0227138751122773 -0.2000559943177587 1.397037441929781
Ni 0.7059196105359896 -0.001293811095777152 11.238864410410013 -0.07618230088953332 0.17567859391465873 -0.11074152692164155
Ni 3.8421380525497755 0.6835114312288556 0.6020706930470632 0.792834369675183 -1.9466755344543054 -0.1492545953951752
Ni 4.500733216057095 7.096706454212449 0.9955409352267252 0.5705987539365915 -0.032041344706260945 -1.103397406306274
Ni 2.4431759048856594 6.140913911334903 3.2463255579910064 -1.601830950932525 1.195873302149508 0.35552237495060063
Ni 5.430427582292159 8.582082975564497 12.707106026842432 -1.0174066039667509 0.4856541334733958 -0.8774887125914694
Ni 4.026277242885865 8.151093136418659 10.300133712354478 -0.3322595477679181 0.9093230834932469 1.1087167616366584
Ni 2.9314208154679253 2.0258362814465207 7.6956503600437705 -1.3373117439343742 0.3321757298048602 0.09499120606592028
Ni 0.6804160875994302 4.133832804314658 4.261640809765199 -1.2640196201084424 -0.38246779319119295 -0.007990474404644302
Ni 4.438641381196139 3.8370515900574422 7.8353634621604575 0.1414052745540855 -0.7706028119704922 0.9423879843680157
Ni 6.182992828316934 3.996627790612372 6.209135395904801 0.3569521654185917 -0.5877963487618006 -0.9149918517432499
Ni 1.6321718288807878 2.1021054744906533 0.8092164156416571 0.7617474184623914 1.4443475398696544 0.02440439698629345
Ni 5.020763893159634 5.2148170612989615 12.942976390348278 -1.0039720757284 -2.044658476158698 0.6676609835989274
Ni 1.5407264813822568 1.8457015243089412 5.289462285590996 0.5688059237022268 -0.8720994232550981 0.34975461922888795
Ni 4.310675233002654 5.86417335929748 7.104850343068355 0.8220374736017004 1.0548374951196993 -1.5488338299102036
Ni -0.055185343607729954 5.022669004565852 6.6368856208487035 -1.84797885451234 1.1751370980434213 0.2433304887356777
Ni 6.990945026826405 3.9539107537903946 10.541295846475073 0.9669600172804249 1.548840771888739 -0.0032958971424523883
Ni 3.0808148429245668 4.2654889498434905 11.464163255234064 -0.9066373091309677 -0.15433226702839872 1.8803577850636777
Ni 2.8602473330297484 8.637210980867767 12.677734017977615 0.5823697784295906 -1.6123285080297394 -1.4732459680715595
P 5.8083332492452815 8.963031271899396 1.9684212176444242 -1.8537972609663298 0.14781452051453897 2.1851340398096624
Ni 6.047110294862653 1.9332441678588093 1.469297751008101 -0.09405223919141865 -0.29566246537017465 0.6612450527702547
P 3.706847398367331 0.5851688405907206 6.41229055747132 1.7966629778471832 -0.5056593729507292 -1.3070426606371877
Ni 1.843583706289406 8.863909990094253 6.744939655601746 0.6047499458970036 0.6475734688204331 -1.8532650426119437
P 7.061720840378817 6.287320798091502 6.513170830487447 0.2892758451175405 0.976925356023253 -1.7707300600315052
P 8.60955912113672 8.637469928049194 9.449437657493524 0.23326924784493372 -0.51077175447663 0.29320243386545636
P 1.0564767558848787 5.673236805448909 10.385542816091652 -0.09135078109985557 -0.2420891601294089 0.46369922646885947
Ni 6.681151716702438 1.1815205001736768 6.3741874045355695 -1.1614696278586578 1.5140365197253602 -4.7339578208720665
Ni 5.396977155319852 4.121338602810764 3.8488198146419763 -2.551577689658457 -0.42541575750762867 -0.4764297866616504
Ni 2.23526906253994 6.152104128818037 0.8208542418241158 0.26602767322287735 1.1256821858464032 -0.8984825412343171
Ni 6.291038539767716 9.506968322715899 10.403937314086654 -0.4375377375821432 -2.0327740660162865 1.7760830968133023
Ni 8.688325304858907 6.259742923269432 8.33596292773092 1.20509456363746 2.2092569009997955 2.1548693273878503
Ni 9.192495467098986 6.11492671205589 3.129838168425675 0.23672815292781163 -0.09359766815250331 0.01828260035927174
Ni 0.831639391930587 6.8695635355320865 12.420192549820344 2.559318767056457 -1.0945011322579086 -2.9887937822351236
Ni 6.85012400069775 5.052022517203427 8.135906809039277 -2.3134935369233833 -1.0022476368381255 1.8546380117000703
Ni 3.3779197411585677 6.520641456671642 12.166604650236659 -0.35043544734599646 0.2992684375538781 -0.3554113032940331
Ni 6.384832908126342 7.324792680482298 4.520372510145676 -3.31294715595614 1.2033438994949406 -0.2983027312064992
Ni 5.878433950503258 6.686700584875892 11.431867917653197 -0.334122826228902 -0.1002928207844918 -1.3670812618873232
Ni 0.9975292796555464 9.175737885215153 0.1719917930930349 -1.8208732565447996 -0.4498085845296963 1.0959085541283964
Ni 5.933247519943366 7.396067892170321 8.987496231676158 -0.1336631687148214 -1.131726078047638 0.6597592122533477
Ni 4.635321013604236 0.5329438181535288 8.680645671306845 -1.4401602412611842 -0.3739607841614463 -0.7293808292062277
Ni 8.875127951918254 0.6650253769089918 5.691658122973416 -0.666174371751072 -0.6849570516752138 -1.7027320947249773
Ni 9.111444999312061 8.25795508932577 7.2898810515576455 -1.6086934823803132 -0.5279834903692262 0.885167826403282
Ni 3.776975843966174 7.811631877793955 4.998678473017923 0.24677988073685886 0.23507621914668547 0.7033612652140144
Ni 1.8544039992276424 3.9079198847460788 6.416243201233544 1.349909635204043 0.07494997114432898 0.5207543196106387
Ni 3.2996159631175015 5.879506731683459 9.843999177080633 0.7817210333708409 1.1528140090661887 -1.267000042893005
Ni 4.552800095751344 2.5350374174972 13.180470722606218 -0.08605096615349697 2.1652223884874 -1.469657993609985
Ni 7.109912760465271 0.57908543144989 3.6729798814706514 0.18595555036063457 -0.6271501679690746 0.055852845303561875
Ni 1.3220455866664131 6.138315191407002 5.43614754056763 1.0729671148408748 1.2255222353641928 -1.875891521762208
Ni 5.825285041515186 8.165011547420407 6.81617787483528 -1.0630169456066982 -1.3386898552288236 -2.3424804110740367
Ni 8.180400408488122 6.129363017420495 10.822957319770989 0.4199164249559542 -1.496388467626294 -1.0962286564719765
Ni 4.1176671017026605 4.5951657042556695 1.6868679472778914 -0.4280907332366305 -1.3161294534298043 -0.5841206996824263
P 5.337567273409398 4.984770234941158 9.822721117258158 -0.7856108553435502 0.7985733290414891 -0.3127358759126937
Ni 2.6790397947119677 3.1027421203233345 3.7580098125493064 1.696207663342898 0.9339005157222948 -1.9684476360240741
P -0.12850438840630937 1.9685072251011126 3.7095117799019515 0.7427076282221209 -0.3000351405165736 0.08355056832914644
Ni 1.8491788150309727 8.884052381563892 9.029862764991844 -0.6489258690832695 -0.1079505944400657 0.8339823046684024
P 4.043793170086736 1.2871062134008944 11.174448524595743 1.9360499364196593 -1.1143616186272614 -0.21289479795363977
P 1.234059033662669 7.890324076607163 2.265715702207685 0.5721848674767888 0.2555943937046953 -0.497609248952743
P 7.323294486075465 2.4143587828381854 7.882602826543801 1.852911773037583 1.9422807478207198 0.33431900140010806
Ni 8.191544385403143 7.964725150699565 11.987312396250083 -2.3419710755377863 1.6390592391563643 0.5876006878112268
Ni 3.6261298626708123 7.9483652377014975 7.838287715687868 0.725328513513725 -0.5010840948752209 0.16024811829220142
Ni 2.265103477085881 1.5260867175179593 12.189384603711414 -0.2951395029871691 1.6177507074865751 0.019446024539753606
Ni 1.4662791667217416 8.313046102174553 4.404941255156025 -0.5745543961502299 0.3054951351898803 -0.33604781116575677
Ni 6.892646827133658 0.20257622965375413 8.151338211429653 3.059901753925543 -0.6517592247670065 4.041632244646924
Ni 8.323968124362635 1.5829811125231132 10.07437338666067 0.22729323276715696 0.5011943952008401 -0.10012981284406626
Ni 7.087486084930892 5.853759983358629 13.287496367124447 2.455383207313055 2.344100720286279 -0.5490007160508416
Ni 3.9741271301690144 2.9673312406637984 5.618633168188029 0.07546701999006357 0.9065216094887097 1.1794457527211042
Ni 9.08882411339161 6.974992030827723 0.7143807096891455 -1.06871039644705 -0.2617403587014331 1.63778705731216
Ni 8.797906203171012 1.6329949109931836 1.5347956661161963 -1.1271538852959233 -1.2088542877902084 -0.17666692596985703
Ni 8.315311890012048 8.211548055168446 2.5097613981557516 1.3650619174644492 1.7741743098263636 1.2249622490956644
Ni 4.584373155658301 6.277249602356681 3.2517532758760073 2.1809300290306437 0.6668827106720063 0.6541830037171509
Ni 8.761598109089373 3.9704556290609117 8.85442789919718 0.4420693069039096 -1.7236145946009414 0.31124335052756724
Ni 8.382157255274928 7.575841972876627 4.949625553553221 2.774591835434286 0.22440511258608448 1.1273138079125553
Ni 5.114937434176779 1.3784683278768235 4.551314848703583 -0.7758177805125285 -0.9181645930442768 -0.2893043843626308
Ni 2.0422701793535687 0.961267426142021 2.9655445051119464 -1.2661029850000325 0.22345354730609257 -0.3292405584359362
Ni 3.6485102976370785 8.673010428700172 2.486480196922661 0.42057976957156595 -1.2723391957177312 1.5574740220837047
Ni 6.523508371894594 2.234113048337137 11.72529114185411 -0.8905835981022145 -2.791835453006082 0.3964491950719495
Ni 0.3306792499288503 1.5979260641369508 7.704786571491363 0.1781309121098932 0.1482266683512931 0.9567851336299523
Ni 6.751687079300667 6.650836400248131 2.2093133068472444 -0.15144131863384888 0.5649166159501496 0.16097008405989052
Ni 5.781541464081119 2.244147251617467 9.33116353237634 1.4350121214013416 1.9680799682720107 0.11328640483068232
Ni 9.390719534482027 4.509518923998399 0.38785941164493715 -0.6742108689023033 0.37138865255889586 -2.2547214610904973
Ni 8.172779962863244 3.752320373048791 2.189496448977114 -0.3294475322404197 1.095677926174829 0.5576175111855752
Ni 0.5816508581687505 3.352117504152004 11.625371747843351 -0.15807605034154712 0.6417283228935657 -0.35316827289612723
Ni 1.4692200668536728 4.471583161919215 2.1166888248618543 0.4711770229031434 -1.9974764191562564 0.42095720751564275
P 6.336964672016674 4.808713895911067 1.4419963947833423 -1.0548601208275188 -1.9308197983689714 0.20383680151642958
Ni 8.64191827070158 3.089332355570819 5.932834129264443 -0.7710165024691431 -1.8566193037961574 0.6020975958758211
P 3.5030837109244573 5.27596558857043 4.948989283335999 0.2412558655948361 -0.6453288957606306 1.2799470899719765
Ni 7.186644359190525 8.718686861881324 0.5706021368240403 2.181660222328449 0.19502717364459962 -1.9085936399809194
P 3.6166505462078273 2.2429542449601745 1.819706001727669 0.032649153493588934 1.989519111982393 2.2807248271327945
P 8.14144735391047 0.94733976702665 12.535732007739377 0.312226797486759 -0.012153090422766168 0.07232024683096576
P 2.3395507917463956 4.0481860240573875 -0.05175891751062177 -0.26925183658712987 0.2845676410085938 -0.05531959850791118
Ni 7.136649056947699 3.5695129110743307 13.31275389023865 0.5003351325243383 -0.30195601168837033 1.3105061937057558
