# total energy = -340862.2709346717 ev
CRYSTAL
PRIMVEC
9.34670632516811 0.00000000000000 0.00000000000000
0.00000000000000 9.34670632516811 0.00000000000000
0.00000000000000 0.00000000000000 13.67984948644018
PRIMCOORD
 96 1
Ni 1.5728263351437466 1.2268112710405976 1.2178459104385515 -0.24385216556710262 -0.571737495526725 -1.147711654842617
Ni 1.6175690177980353 3.510379840234362 2.095876427006791 0.05870188471658277 -0.09435948601919233 0.4018731943009982
Ni 8.092079146905863 0.5525791408101293 5.231475780088736 -0.7365400659588283 -0.7303838165494454 0.4828588301164458
Ni 3.6767325174603975 0.9796750119927488 2.4145477020760726 0.7639143442067232 -0.4400350500827002 0.8726259851825293
Ni 8.913262061599934 7.792311585157722 1.4637166254648022 -0.5733261801700836 1.1909509251472263 0.4346951259270256
Ni 2.994469697249448 3.9587039505739523 5.106591634329649 -1.9404061565058257 -1.0132979811150162 0.14414118542800983
Ni 9.213796053257758 5.092029466045676 2.489267140905176 -1.0776352097405053 0.6574295356789065 -1.8124536650225367
Ni 6.477108513435778 8.290023691140776 3.1490464593143934 -0.999263357398821 0.9805195011324146 0.5017469252702004
Ni 1.0387835821004827 6.251450985271479 0.6921404193396425 -0.40889770524794733 -0.931811237293434 -0.5818894963590624
Ni 6.410373031056078 6.494409266640934 9.10132713736491 2.0080194847794255 -0.4000628805651368 0.8166271012194064
Ni 6.964922457536464 4.234796305477867 2.578925420278743 0.33981601995893734 -0.24993642408796957 2.058885418391357
Ni 1.0875266550150673 0.2984562188660865 6.5205277024899315 -0.039125762356868106 -2.695825061647028 -0.042212628812307945
Ni 0.7767140905318992 2.4396772564074536 6.278955537652255 0.011759197418457169 2.4156797180758462 -1.036515813992376
Ni 8.379163228319376 1.5706672460079327 13.921298286909343 -0.597664499805132 -1.6380220561411016 -1.8626963632281728
Ni 0.8978249709917308 9.204131559030781 9.933636371138082 -0.872209466470401 -2.318155461175427 -0.5036526269333454
Ni 3.5317370639371086 5.491769397476348 11.18562953806487 -0.6019482147821504 -1.5548365844608578 0.40545834054909524
Ni 5.137977873801783 4.643948370067693 4.684897224669052 -0.3710487527209739 -2.3047602708154438 0.9248576887937362
Ni 3.351560608218135 5.570356503337485 6.66776356149311 0.7463503671810309 0.15511131128626837 1.02844177873499
Ni 6.729834102800582 6.456657920235948 1.8555071832590686 0.7154559915950195 -0.8318734858555157 -1.4543876977144758
Ni 6.291099713038241 3.0505873213681753 12.576980225325668 0.13979396420290763 0.4884494368303458 -0.7582311777790167
Ni 7.420060316707261 7.710649412951638 6.429091679594149 -2.4541652757455537 0.6129867319844992 -0.6674830632601666
Ni 6.229888134031988 2.5736996768335763 1.1622956313871133 0.1868829472709104 -1.7043521468269034 -0.19254528776301033
Ni 3.338923861414584 5.36200907508456 1.6033330495609877 0.4302674291729751 0.3866653762123083 2.4354031646467025
Ni 0.7329808521489 9.202710859686004 3.9788115196556677 -0.8900444377692929 -0.6817845674845032 -0.6702698819766844
P 2.1628745518311505 3.6799010508675005 8.030002997574663 0.40700768731408615 -0.2608502427869959 -0.8019242477915931
P 5.024069565151727 7.14215470079751 11.778446249133347 1.1989617112668447 0.7165227422966369 -0.2767589435974524
P 7.01360010350754 1.0860498754329955 11.869006485656724 1.80274723636805 0.6997799756206593 1.2710235622301014
P 1.9996156343624927 8.173638505343575 0.5624361771851477 -0.22768301200640792 1.9035959296560117 0.9598352333101857
P 2.4682968708397564 4.970989620553083 13.534076399113284 0.7494801710592641 -1.958113601087918 -1.939838199817498
P 8.320269632454602 7.430210839657449 3.594531040305671 1.2614068650759438 0.3840659909162482 -0.1842730204518891
P 1.5858836837270014 2.3621837151735474 3.965008303916404 0.7568962610176772 -0.44689012533132066 0.4111967856947692
P 2.039563456728156 2.0254405836363176 12.458061147473405 -1.0917598220673455 1.5648026945346343 0.5723203646133885
Ni 8.079236772565569 0.5188422047247615 2.5262576654242093 0.16764183965311127 1.0791783858579094 -0.10473080195118736
Ni 2.9844780683049237 0.4580568355219409 10.715138779264258 2.1496795556567947 1.2714197692272555 -3.0852109221142934
Ni 8.999775174331937 8.702624690324175 12.388800185074237 -0.8256460168885651 0.5770851329918836 -0.8508592829293993
Ni 7.571860172355538 2.5483981431078275 6.876080145615523 0.5256970083278947 -1.0082696746624893 1.80474626907595
Ni 3.7597499620677493 7.629248948519593 10.04195348012994 0.03474408834940468 0.7065188370063897 -0.6779525953329227
Ni 8.687193278362146 2.5285924726368774 4.1155687863204875 0.3760006974096105 -0.1631622066152029 -0.9082589038947907
Ni 1.0591967884754496 5.243137665433997 12.068239940678774 -0.9837950865598927 0.6611481221810742 -1.407052917184254
Ni 8.594258978459996 5.772843546793201 10.240529861705031 1.7263929286770268 1.8347641555942789 1.6533098355381075
Ni 4.06733137021217 2.353790372991899 11.966078572400539 0.6621264269339436 -0.29860200761447286 -0.1558088515739252
Ni 3.8560771163261784 3.3247822949103143 3.0657364628024917 0.8276288516465488 -0.19861669076807087 -0.27240503750413086
Ni 2.1956627972356304 7.363596864458553 2.538966381865621 0.6063903097139041 1.1166774112446316 1.5436651412250704
Ni 1.40922158954511 3.5144269640257355 10.424442195898399 0.016347588120087974 -0.3406814532830262 -0.049650830257908035
Ni 8.597240577742786 9.23458312788135 7.945379788839463 -0.31416592349100086 -0.12272312476354995 0.20345473558666252
Ni 3.5240727648402803 2.6570722962771227 9.688999421332298 -0.9309380906598613 0.3696145913776086 -1.3804471416712676
Ni 0.7838325419857339 5.428258528741046 6.6052883078065 2.084913724134319 -0.2908089939326153 2.9467912125510924
Ni 0.25314619114450804 3.53842930558751 13.703378896820979 2.5960999404405483 -0.8541505520861612 0.2248365436965483
Ni 6.732301633241511 8.41912974409747 13.324213869782804 -0.6725201114634417 0.23188290902036837 0.5826888523319063
Ni 6.701896797922021 5.532418222808184 11.71164720915138 -0.5839024130240332 0.2548307760657934 -0.7375463957361557
Ni 3.0345109866772675 7.029283876537391 12.751602868211306 -0.7089616421199274 1.317990675008259 0.31544376176215994
Ni 4.16758414108117 8.111623109602776 6.666081154374294 -0.6826775116124179 -1.3406858026129296 -1.2215357399126188
Ni 1.8705282748182304 7.108656105720642 5.453171239488223 0.9267196817031395 1.3862989724663544 -1.273102556246317
Ni 3.885949189391378 0.022004950443491184 13.836757329188842 0.2977558575640937 0.7936553229145816 -0.8134816136118893
Ni 7.862112787176153 5.494302354860788 7.109513198680617 -0.3512286326712532 -0.6483345153561738 -0.7580499150061462
Ni 4.36280879380733 5.497872796635164 9.073433762005564 -1.2495839042990866 -0.2764293281721755 -1.3257294384134135
P 8.201117821617569 8.015043594276523 9.932240907900088 0.19075400019054245 -0.738133121477561 -0.2668434842559534
P 0.09727771428056034 7.566728830643148 6.6069155693586445 0.4371821540149374 0.007699939747418997 0.4852841517284868
P 3.532980175863789 -0.013596653531897644 8.26219106937183 -0.6391304802594024 1.3471246162597381 1.420284842493496
P 5.58298390343482 6.239169413304122 7.01438335748841 -0.281052942987116 -0.03500248421711391 0.12782676453870245
P 8.652348757590225 2.026113546483844 8.734953077782844 0.5819897693823526 -0.39535981866251263 1.125831566940074
P 6.413924779418022 0.6496998304262669 6.768174291697154 -0.33881071862287454 -1.0740940293564663 0.09991512573009889
P 1.4758636048626532 5.718819584866778 3.73345020011817 1.9574728821801257 -0.6107347027255288 -0.21382862262181884
P 7.379532998556227 3.7761908183010675 5.309574053214796 -2.0330915972567047 2.3677301867797613 -1.8337346858885002
Ni 4.72073156162921 7.673215854557983 1.5987363394441338 -0.6909706048591454 0.7131854503932878 -1.6894641739714773
Ni 2.6286676560877797 0.7244033798548033 5.000067223589952 2.0764676502494948 0.6448465568075732 -0.8880456621717092
Ni 6.904972683869323 3.058831116250374 9.978943594847797 -0.7043244004582321 -1.814468124349404 1.9915909069097568
Ni 9.266044141003208 4.8165633404582096 4.772187983358196 -1.8395422937092125 -0.9901423689341593 0.02713722253642423
Ni 7.10224426525671 0.46296105227328943 9.720887578928211 0.9573075817923254 0.8429755093059483 0.9976546181508044
Ni 8.545113997178138 3.495238176165018 11.531566089835808 -0.5954836901037294 2.6027567836354337 1.1771155619260307
Ni 5.24143656490275 -0.005614566423737482 4.79492384622775 1.0895404458185236 1.7516910411221833 0.8551846497776304
Ni 6.686904681152127 6.067891021902442 4.3711768998821965 3.4299973987046286 1.186411899626292 0.7512529466889707
Ni 1.746254468975025 7.570766607728307 8.042835090538121 0.807936515423944 1.3938431033621996 -0.4899131658600659
Ni 1.8634247780943407 5.564776519726745 9.159042113575893 0.06829081395659851 -3.0415692741649423 -1.2331640681801663
Ni 5.375767426633987 2.346892503804754 5.828231193156487 0.6524588219371925 0.47025836774361596 -0.7515108283360477
Ni 1.4041930616010936 1.615269728068987 8.41041207121014 0.6042519232146626 0.35316878711675953 1.3666480310046463
Ni 4.858745025609412 5.6109399017258115 13.35238110363427 0.07225211259719169 0.24360996764930945 -1.09220847956899
Ni 3.4813209306099235 1.9284030797054994 6.9179683441915545 -1.2883039465771038 0.3466872931574739 1.4042740688875364
Ni 6.1696392657659445 1.972603653399281 3.4929575798484005 -0.17317305388398563 -0.23396833079448737 0.39928435052789946
Ni 7.938363216483379 4.929639792255074 -0.062211676571327916 -1.575017430284107 -0.633722936090586 1.0350996503711398
Ni 5.644943218938326 8.474714605961907 8.411958016418206 0.08107819552925391 1.6050430301119196 -0.26971977736248387
Ni 5.352148300027055 9.34339748164388 11.34297572918151 -1.4130001359066244 -0.9113722527127917 -0.1908216202036843
Ni 5.404910456614367 1.7192892215428914 8.792504486635053 -0.6551309694527169 -0.689721820053709 -1.8455591893272538
Ni 0.12912100768663862 1.6179802728715238 11.10497307144759 -0.003128261216336548 -1.1176207489945076 0.5525123287485258
Ni 3.846973424472141 2.8019555893258237 0.6366153763949864 -0.9420797090989774 0.38992142125576074 -0.1500506089339093
Ni 1.9310949310956051 9.320628905302572 12.39966199236744 -1.97137740807636 -1.4881845916592629 1.8195062009939438
Ni 6.071741864863288 4.23817981312793 8.155488136543417 -0.8107750133140037 -0.767163190161324 -1.2931162803640828
Ni 4.7015801605933545 6.58763331443577 3.4790870678243846 -1.4197546810216388 -0.45059251388357235 0.536982865654359
P 8.102566151279817 4.360444077134772 8.95621111133144 0.5453988576321962 -0.07303758461296454 -2.178041394628939
P 5.736438126083267 0.337288044509602 1.4546465817531409 0.020877100559325335 0.3331820595821875 0.351064339179247
P 8.503362260512857 2.7697374930004983 1.919282563780274 0.34086914381380007 0.5858924468708684 0.1845080192808306
P 3.620493386160866 8.153748714516684 4.456867502467222 -1.6690408731201192 -0.5332313690317269 -0.879937174131962
P 5.308901090367269 4.5331899014123085 1.294197284172906 0.6876469398025511 -1.2438410882780386 1.7888751063716484
P 8.372882241742463 6.84384522521901 13.201779495722835 0.13133889145701896 0.7126612024587017 -0.18376959845290933
P 4.979831604633083 3.965293378455981 10.529913232847592 0.6197376775550876 -0.12267247403127259 0.42072555112081084
P 1.571704730397869 7.151557487250448 10.272923676107212 -0.45627053810495616 1.6778705555966071 2.4889093640949587
