# total energy = -381164.19814106874 ev
CRYSTAL
PRIMVEC
9.28021834001913 0.00000000000000 0.00000000000000
0.00000000000000 9.28021834001913 0.00000000000000
0.00000000000000 0.00000000000000 13.58253759946233
PRIMCOORD
 96 1
Ni 6.122716808769505 2.1900572710305766 6.319900102600128 0.23381123639133283 0.029114657977769215 -0.8914917117387807
Ni 6.077707750138288 9.06638348499733 11.012585388451278 -0.08367475261183653 1.2834023955104286 0.2530600573186158
Ni 7.470223062660237 1.22491457048488 8.78426206538772 0.6399462912924786 -0.6242260523437443 -0.7190812470524325
Ni 1.339534546392956 1.4132751608019571 6.1329371131551875 2.360932190021321 0.10228234041069481 -0.27991522983824696
Ni 8.616292898685154 1.1150646267698858 6.762704789545011 -2.3351519957334235 -0.2435441474083806 -0.42954932006002794
Ni 1.4900782472415357 4.682593976499484 13.05438096430697 -0.9502532460487054 -0.025645468482246154 0.6891217245758648
Ni 2.5525425968316813 8.7843019703263 3.612764845686713 0.40546194009352104 -1.9484894477345927 -1.0469578352613067
Ni 3.1784097974807417 1.0947131080939558 0.8048891073165303 -0.38187283991967136 -0.9959132099796655 -1.3192425451374894
Ni 8.938399994774006 7.727637757157704 1.542460439291826 1.1803960324495157 1.249404441298429 -0.5622185002926963
Ni 4.210193745455464 5.0216374709392575 9.32974958347422 0.890160394521867 -0.6590308187277554 -1.4426115310151542
Ni 8.364260730786885 5.8533955942258835 5.423969269945488 -0.21079035001612728 -1.0858838229025427 -0.7433522037846554
Ni 0.6177711382264062 3.2035870296594 8.473737609727245 -0.7784284786624981 2.932819323752033 -1.4180536391701322
Ni 8.14581367282395 3.399501717651902 11.975967631590308 0.8475255905704758 0.4805564072355143 -0.7641488288150323
Ni 8.439384097718783 2.4833307289406252 0.466399641907743 0.8744131589899392 -1.0266381498673478 -0.06886751239567494
Ni 3.2777266934542033 6.010314805029029 13.717411727058003 0.18130133941807486 -0.15113715712986875 -1.103447799928235
Ni 6.572482587442074 6.517330250236852 12.39357652591998 -1.6758977481409525 0.684539247411505 0.980788181412769
Ni 8.403701658453414 3.634263399341368 6.217542079098119 -0.9764797838454023 0.12331576404222634 1.6490598020125018
Ni 1.58881976968198 1.5472072709392213 12.570733108714283 -0.9808473167854784 2.444582260042809 -0.21123772196619106
Ni 2.5855894541070965 7.932684179932292 1.1318488295411064 1.092818345238847 2.7969403783328155 -0.5562594544957838
Ni 0.7822305263775653 1.3017269371427334 9.46826426539542 -0.38350857575088143 -1.7502666499708308 1.4618788638851983
Ni 4.265095516767274 7.5153249234742 5.078877857256237 0.2793264472143125 -0.5854985538665594 0.10869390036399346
Ni 0.029854462188995234 7.865838767701228 5.654899149509422 0.0012102182580172706 1.7005538561267357 1.2747282647751983
Ni 4.013035508214181 3.1266354597274297 6.965329075349961 -0.9128799476065699 0.1947536082682388 0.12642936997054355
Ni 6.308794465391061 4.666065907752639 10.816711533419184 -0.17649440494773472 -0.3925282627509885 -0.32836689758173127
P 0.5447506687555046 7.152997361383761 12.929665966959917 1.1321950472642566 0.12299489036769784 -0.010040672065453676
Ni 4.367057274948962 2.9857339056660326 1.1753999658814036 0.48255929659815594 0.05679746860501831 -0.17132005983564688
P 5.222498515272056 0.8517644178427454 0.9846580715550957 2.909554439686821 -0.3110518033420514 -2.5172534624552907
Ni 5.006798401918368 1.6475449909228759 8.857417098023602 0.22441848232252318 2.249789828116835 0.10046148515187213
P 3.562935641683731 6.641044840053917 3.2534524265136517 0.16254694162870714 -0.2502644968513496 -1.1510890559552822
P 3.4697715304262484 3.8318763672780993 13.073613288658997 -0.06193401850063527 0.36693113100817454 -0.8611092427921815
P 8.205671080694332 0.7610456441005873 11.181144777036103 -0.11680290262437303 0.2277909983391819 -0.5325132599187797
Ni 6.871379857626456 7.483874263741994 6.338101394701862 -0.656013114947354 -1.399476647498893 -1.0501251772456948
Ni 2.2635751602009897 2.1459947946633555 3.4689390948470273 0.17963757856240675 -0.9286192127186974 0.1764445255464058
Ni 5.0062230283853495 8.733186528070476 8.360173722658804 3.2512990441270393 -3.965148353356571 1.7398331133423328
Ni 9.36763793062343 5.440425881011619 11.04451769151193 -0.7565872144176906 0.9629236424275224 -1.0521301234908655
Ni 1.4519736710065294 3.672794865617 11.030215947129133 0.9049529794500091 -1.789192894722383 -1.0252638952276407
Ni 8.064082790480624 7.800821558470237 11.392774586654605 1.3571889424742756 -0.23390919542177782 -1.3402536001715175
Ni 1.6427656785115199 6.2459581074545705 1.9176643042381025 -1.1301839303714987 -1.563938803872442 0.8804588509633869
Ni 7.58000804484731 3.8474485735426733 3.657967860879867 -1.353423304784256 1.6658781591214211 0.2147688750479011
Ni 9.057817843529987 4.437419889906053 1.8595311609231184 -0.1263812903414275 -1.3708792954771747 -2.2495010932318222
Ni 7.568129365455979 8.043063096088932 3.5486413214755532 1.5839499568870463 -0.10333315027271235 1.5767961194510842
Ni 6.346138063727559 1.9682693344888302 12.948151233740848 0.33378241217034776 -0.205763072004865 0.8231790434053113
Ni 0.496844325978995 0.3017119603870317 3.805487138592794 -1.5602641832343322 0.6525308128257086 0.68196608736769
Ni 3.098943288396388 5.868605871977753 7.1901609234857355 1.591053657811363 -0.2973105424965589 0.2306120127277448
Ni 4.367252159532726 1.3601923122719437 11.831707566535375 0.3605522240650242 1.7662272870651452 2.050539103309191
Ni 5.895267939080328 7.019789108271906 10.00171905246723 0.2281373259350071 -0.95262586004594 -0.07412438991924007
Ni 3.469094074492211 0.4915722339772642 10.114481128676756 -2.512441642888944 0.80450923490995 -2.4534229982628903
Ni 6.809434400644317 8.783643074828813 -0.007933658602851112 1.8641096986359316 -0.23526956610441419 -0.9580321186631757
Ni 4.654335711853698 8.424108858438993 -0.2592428974975387 -1.2153028716290295 -1.1322109881038565 -0.20459707672122185
Ni 6.578756014995621 2.312036460030313 10.537183006795464 -2.0901166084914973 -1.018580312559878 2.0067439605011113
Ni 7.544789616495667 1.574704557686499 4.347498286913672 -0.012191656970185455 -0.7289429703378608 -0.0521208890649554
Ni 6.145369821577506 4.958207179033201 6.113187880645271 -0.4620244098695978 0.5641745955778026 -0.10728802115540233
Ni 1.5106153702829552 2.7782839063583546 1.0520027595293264 -0.10471691799411643 0.6439140176909749 0.0750085922964063
Ni 2.239632197052837 6.5864493159451625 11.389528366302192 -1.295840364163465 0.831136093468859 0.7818722142367245
Ni 3.664303465895853 0.648022793757549 5.153772002796755 0.43959076345642994 1.7062637620273193 0.6629100991775035
Ni 8.516298546777655 5.564159031265232 13.177098858681354 -0.6833349426907587 -1.1273498033568132 1.1508435156033794
P 4.256863963157812 2.8065514512224143 4.105593621218341 -1.3253502006971238 -1.2060967796497293 1.7071453933013243
Ni 1.830745779879343 6.167475301507312 5.300517310305591 -0.8981089599449822 0.811981374917279 -0.19482945581149672
P 7.941528227947869 3.4973430589197214 9.563736366937768 1.7150250531597173 0.3140108859703753 -0.48319615885120654
Ni 2.734871045270347 4.159607275641284 2.396435405127552 0.4718668498813164 1.6323571445458402 0.7273226611256184
P 4.0424816407990996 7.919292824962221 10.693979718717388 -0.2911501793221179 -1.3870193955721468 0.912466514218235
P 0.36300130593716573 7.299699051866708 3.684018361598153 0.4338772580114205 -0.6496190384955521 -1.2561019079232625
P 4.3458890970648785 3.303739145277565 10.7309112753625 0.7339494224135167 -0.004175471533928293 0.05223118939057456
Ni 3.8068290581552833 5.106839154917239 4.847743812890264 0.5870059916500213 -1.4031957482216932 -0.053290998113656604
Ni 0.46573981838842765 8.634138758426975 7.941383456542787 0.8978595629383377 0.5205563446672197 -0.09434560206212138
Ni 7.561141361095297 7.994147065564159 8.462695078002444 -0.11952415821027804 0.2976653547328164 0.9717875205760554
Ni 3.4839145830765523 0.43647929016899895 7.498837687687763 -3.39944086607401 2.7940815687277816 -1.6669922181212067
Ni 7.377430160133733 0.6224836330661859 1.9935087441299275 0.7833094609038832 1.4770244612773853 0.21153005639562927
Ni 1.1728525459650594 0.5066674370225298 1.4345064441703073 -1.7280793152405143 -0.5685375005321887 0.6085520932519132
Ni 7.620534758051955 5.559788048457953 9.138697729857544 0.8006767485377372 1.1008990653644524 -1.1642577321267562
Ni 5.873106777840874 -0.09871553782927577 4.7674708528378575 0.4385985747464898 0.3894164565948842 -0.835287139522755
Ni 4.5759457080891845 0.8781703509209446 2.8507976759114695 -0.6356579483297699 0.7091501039816497 2.8041325252058806
Ni 0.6993860178413015 5.051185685925195 3.669526372740729 0.3080305000172243 0.15797037800161826 1.7971738560453308
Ni 6.226358286458874 6.150928672323917 3.770444106366538 -0.6074051241316636 0.10209079322517901 0.5785524615660294
Ni 2.6668377651001505 9.036900231539313 12.212059168558504 1.3624820725524147 -2.3912190139303204 1.5695600067139615
Ni 9.200269194043221 9.216240449693599 12.990298273056217 -0.09188942721214496 0.6468329911099828 0.6195366172878749
Ni 6.299866895411013 3.65484692347416 8.085440284817507 -0.044561588660458736 0.4286962280311133 0.9477631326370001
Ni 0.15680877620567965 2.941309500786107 4.456158506645879 2.4164482208107545 -1.4481687133879575 -0.33839959922738494
Ni 2.5787684936753554 7.786520742109267 8.836554239320748 0.22016253525964663 -0.69337510053558 0.34612036491041037
Ni 1.9465814643813755 5.35616149907936 9.342218484747809 0.12874619102917828 -0.789509161956692 1.0225894337192711
Ni 1.7522165728407115 3.8904902258997014 6.081133078703397 -0.19774328702418204 0.07430231025800108 0.24516548506188746
Ni 5.865691883439566 4.457947732729198 13.093634431564356 -0.5993192617997356 -1.0117774307054315 0.2327524561095153
Ni 2.383271415505205 8.139391761778011 6.363106014820615 -0.9579390447287371 0.28729301035955684 0.09968115534242188
Ni 5.912900353801835 8.189050209764742 2.1048722914454894 -2.1032256350696295 -1.3971287160920067 -0.1947572078126646
Ni 1.0906112516166366 8.648690140681357 10.77285414987583 -1.6313335883773323 0.060127304309199665 -1.035680205464958
Ni 5.179995115574948 5.979467359484665 1.2291268615596658 0.3963715477564787 0.230648522392635 1.0597827549401166
Ni 4.340358086973289 5.8332203996971685 11.455688898424599 0.7142457733370022 -0.14063574337791265 1.7210802582148617
Ni 5.205692039976976 4.182223167576187 3.001578022326049 0.32775471791902905 1.5078823271985062 0.24913372568101608
P 9.06439751828659 1.985604782225555 2.5195746214115986 0.03357552196260024 0.428021827671908 -0.14165492867104634
Ni 7.502648145311262 6.079925722305887 1.6251638885103177 -1.7981884133527741 -0.6346734729293134 0.4918530631952562
P 5.475560787398792 6.402793796293246 7.941669287265641 0.2351510382486789 -0.8319606462526832 -0.8496308098389368
Ni 0.7566625970095513 6.059769088213722 7.688436259122654 -1.4427364866287928 0.39119334598964883 -2.354777483273835
P 6.301323889680106 0.16440277881968487 6.836933543435249 0.8811831307239212 0.8880358919796966 0.915293699254385
P 2.488063640260609 2.1211516503425782 8.462844489516662 1.0503110680042556 0.020102684287146025 -1.0553527441932211
P 9.516863840477034 7.110948692382102 9.49744034362855 -0.6166176438688671 -0.43436499628111647 0.08103680076835722
Ni 6.618558871174856 3.4362606622371086 1.4733655021510284 1.5426472414835173 0.1796578902773809 -0.25490019585114815
