# total energy = -381165.7724843903 ev
CRYSTAL
PRIMVEC
9.28294192297457 0.00000000000000 0.00000000000000

0.00000000000000 9.28294192297457 0.00000000000000

0.00000000000000 0.00000000000000 13.58652383841928

PRIMCOORD
 96 1
Ni 9.313204340324837 2.6647891648691955 13.151918057313338 -0.8941885418446536 -0.31614258760139746 -0.4074779420822853
Ni 1.6024028734507434 1.306936114137904 3.8781912842174346 1.8284150734477993 0.8160540023247559 -1.2460602074165443
Ni 2.5491144252356133 8.355594614691173 4.201292433419947 -0.07962423669154674 -0.6621997033740401 2.0899111773489105
Ni 7.540970043906725 2.568849959820397 11.169386137381295 3.1779611546648363 -3.02298919716991 2.0262619759293816
Ni 6.001375555686767 0.7910069098763548 12.290532523046325 -3.540562547949406 0.24893652206854552 -0.10245563276376549
Ni 7.396508901287528 4.724497607581568 12.408681166709467 3.41545626766566 -0.18102880248297856 1.3424909741424687
Ni 1.5245839710875044 8.001728867573595 0.527764026953055 0.7087922064215986 -0.25229721101066227 -1.1451395232400667
Ni 3.98550116486026 8.678167564496755 13.42881150637348 -1.756573308915149 0.012184972101966111 -1.7930906871148924
Ni 2.086025583139402 7.733618938186135 11.403101838551404 1.36152073708041 0.28097915232638704 0.2765874510165946
Ni 4.8646236163103165 4.35659605223624 9.8382057637537 -2.703390275588796 -1.0216211562687307 1.5194972857296154
Ni 0.5053030206118774 9.195348109333107 7.893430353613139 -1.30787132718607 -0.06731867985131633 -2.1611641592576265
Ni 6.114376808038874 6.155658050888608 8.953396582065338 1.156513569404963 0.44115090885469826 0.7339715339007037
Ni 3.6687207708312095 6.4968897140128234 12.922034354580012 -1.1848671808469917 -0.2559389215283076 -0.09721315341790354
Ni 7.161232737575697 6.94435536480791 4.401816047355177 -0.9526369157895336 1.1219957381337518 -0.52650356338959
Ni 3.805969067555591 2.2175184558550503 8.42225913400781 1.2715832913883134 -0.342358583875133 -0.19024980686061427
Ni 3.895967189756665 6.632791984154517 10.284563959574204 0.37243252044237796 -0.5380107926982411 0.6872844142568099
Ni 3.532038733565752 2.457463939367516 2.0932894852149397 0.8644406211582597 -2.4908852568744067 -0.15928678282019665
Ni 7.730611264994475 1.355810803502386 7.126294528960102 0.6129723338067959 -0.7065846572473186 -1.2245498441485942
Ni 6.095810924139736 2.5860512512529494 8.148816154470325 0.5757484164583311 1.799691994481494 -0.5470667322529223
Ni 5.918655259974156 8.123548914777793 10.51073912699868 -0.6392955450823571 1.0922115648927835 -0.5776764867189793
Ni 7.711869005198294 3.7581155018055616 2.897991519349494 -0.1784327596210282 -4.4703914647054885 0.22769355352936915
Ni 2.8254304753064914 3.3548737864582234 6.650969841080164 0.22102411192899354 0.6761834192476419 -0.7678558453529744
Ni 5.780803572023053 1.4787169549146828 3.523936581832168 -0.40935818982413374 1.3653725067263325 -2.1983387114253947
Ni 0.025439902412794507 4.199380147378336 10.310813334525001 1.143876597367243 0.3433988522141892 0.09596128328867344
P 4.4524702766913915 2.5409454363199924 -0.09626039484025321 -0.04379539991839554 -0.6744638654533739 1.6112149632505866
Ni 1.216817313691486 3.139333157331175 2.325238642532047 -0.7804323964664043 1.3246490608650414 -0.7843661843031717
P 8.16326134043805 7.877365294275216 6.0336124281950365 1.1319232816601086 0.0036831052785420444 0.43731713693090485
Ni 4.4676943014886845 7.747292711677851 8.388577835732189 -0.6831968744509975 0.5218249269669981 -1.500226096204829
P 3.7971038579937524 9.305963645604175 11.231598557738918 0.24719717077993558 -0.4861521561557369 0.06941927113408689
P 3.1132666563367843 7.239144469358431 6.124152674205964 2.140071600253385 1.4671043739501959 1.016410815712385
P 4.011094235815222 1.1572579581430495 4.681426613523957 -2.2812804425259485 1.0994479347402226 -1.7647810415369218
Ni 7.64733399276489 0.733421107786397 9.404713725475302 -0.8170744731694702 0.33948691875429277 0.7983270173586381
Ni 5.750151297705575 6.299887119959066 6.604233013246667 1.1282538032283214 0.5118901843517895 -0.5476894534385859
Ni 0.906661227037648 4.890792229666152 7.827997680693211 1.0237361457292045 -0.5686274891428336 0.3082770688103917
Ni 4.774811152948234 4.19389392868614 5.293567941327622 -0.24293839550358162 -0.007428431253587208 0.29867528405456945
Ni 7.158605665003968 8.355037638174199 7.8626982459948955 -1.234884907526015 -0.46854781281041247 -0.11710423591487573
Ni 1.5397058835233528 2.3554165585159015 8.195295844811817 -2.378321589142362 0.09446695813133409 1.2489113037120942
Ni 1.8825620614887433 6.773855570020172 8.870777470419977 1.1098675874116497 0.8962983890988049 0.42289967595399425
Ni 8.102003206512842 0.5306213164851324 11.957635085204432 1.6556508249664583 -0.05507225838379548 0.6783359468142705
Ni 4.543108921886986 9.067651959874832 6.113133822111826 0.2733236926636583 -2.1505048797715673 0.7455085880060257
Ni 6.9492753240411815 4.144666487527574 10.07500525823946 0.735653806699133 3.1313192864365815 -2.7256632280543833
Ni 8.598584903163099 5.613014396284588 5.623421502504251 0.007909741765379926 0.10235690240237211 1.1749964587004988
Ni 3.80427028917882 4.259951343599274 12.182641530237458 -2.7643976685101035 1.64853195453349 -0.42180695711044774
Ni 2.382058601911165 9.516407939600908 8.95574702296697 1.4690586694630894 -0.9689089134766796 1.3728024806418164
Ni 0.24793716823684994 9.464701952941807 5.1178121448080365 -1.4675941691024208 -1.2731429225659494 1.3466664456763968
Ni 7.043599297190754 3.8114738521316855 5.820385108201821 0.6409587917173929 -0.5924934971271537 -0.9938151898000561
Ni 9.262166725486106 3.168425897401125 6.578133093661259 0.33505202291139075 -0.3437420944862209 -0.33683456873311024
Ni 2.8948947299151175 2.009821912675388 10.614540055584566 -0.2329925971447794 -0.07604603242198515 0.9457651283703646
Ni 5.335788617902652 0.3480239917487156 1.1966055641846889 1.118002043593326 0.983161566740952 1.2794835200719965
Ni 2.7738080351249366 5.313667367236829 5.383687670068236 -1.9731668958766146 0.3994956952077572 0.020137394179823385
Ni 0.6977486184625923 6.0453117199340785 1.542111093782486 0.31951098985299814 -1.0780653552993884 0.9845036825911433
Ni 2.2867506369149377 2.754508798811782 13.043430171337114 0.9044457007962875 0.37331672281954414 0.15619220305527293
Ni 5.676946017491272 5.993670713868625 11.876076085529713 -1.3623182932810407 -0.06539138092161642 -1.0008001057583218
Ni 1.1237094059373063 6.842911375183018 6.3784245220292 -1.2783234383256241 1.32502238504406 0.5325644248716893
Ni 5.285122320741904 4.000920131438495 2.538982094097658 0.10480536394286466 -0.680434481214512 1.4959395530143333
Ni 7.996400458894541 6.565964085059568 0.21542830552945844 1.4370898298659767 -0.459401370424454 -0.47099781701280174
P 2.5791354595005203 3.857080945929919 9.45733501021063 0.17414441665831945 1.0280527708266876 -0.5951746435037427
Ni 0.03253485494485028 8.471362183744251 9.942278682538712 0.2723929533192728 -0.09645724908848549 1.656551739514173
P 8.473163074482468 2.7565881778084855 8.776364381027689 -0.05202935779241361 0.26771817355142274 -0.3150683807006122
Ni 0.45567084318431045 8.725510568439558 2.4409820759360557 0.6461781311348033 -0.07618949997838491 0.13136460248863183
P 8.167707869631892 1.9473384304128372 5.02013888620306 0.0785960525373485 0.801384059017407 -1.025496322953421
P 2.3192966313901273 5.295621328086866 3.1391939132019315 -0.4727322832054052 0.040522128483762465 -0.7382264525223157
P 8.850282591183719 0.3792239596412178 0.7425295304273143 -0.43869164868092836 0.5996709887121995 -1.6591200144619815
Ni 0.14149152948952934 4.034013819488709 4.249919268234375 1.6970422434290513 -0.31687072401667365 0.6237154312559129
Ni 7.457980542877576 5.663569298141942 2.151276310397119 -0.6130548662182732 2.9326763704162655 0.7589644564006154
Ni 2.752958547506204 3.3791950943660947 4.202895597494638 0.2656147540551748 -0.9305639951498941 -0.3301877528405539
Ni 7.005511386371673 1.9677052050501922 0.39734890379775173 0.6902200998463661 0.7457798393895413 0.8665954627177332
Ni 8.888454048480348 6.875253144935316 8.510014497433868 -1.2718923379882998 -1.8182504742099719 -1.313063670020287
Ni 3.1382377701811257 4.397199640323656 1.1240426635532959 -1.598943087861769 1.2282825717181491 -0.3754319693903341
Ni 1.6085017663116106 1.211832373864567 1.1440047019216495 -1.1003118254024147 0.09555016389318383 -0.45932526577087995
Ni 0.41985446826028744 1.386936507859292 10.208071589615558 0.9119294107678424 1.66600774272075 0.5445977018871394
Ni 5.726702586340962 3.473602613993214 12.067333466810883 0.07856005709309051 -2.113219255947232 0.0902043262002382
Ni 7.690815292856672 4.808239026908632 7.701861065482464 0.2234193516340475 -0.04361799380026681 1.7285403140373328
Ni 0.3135100135802172 7.151541346180346 3.9134896709806717 0.01312805274152578 -1.53889343086804 0.9282831695355174
Ni 7.748666587086388 6.549579692518579 10.87963952689778 -0.17057418280855785 0.012009365756050284 -0.5728245579433168
Ni 2.462179673877897 0.9603760423346356 6.514453040181409 -0.18043436343208927 -0.3383453489506818 -0.8284477480034184
Ni 4.314228705178406 5.138674628545499 7.893227057184444 -2.1456490943411626 -0.27745776943668987 -1.2445429994410695
Ni 3.6075183345577 6.820353826245564 1.7530965832948808 -0.25847840012070966 -0.18677264694529122 0.7186937818060267
Ni 1.5879029181255164 0.5859030923832071 12.466491615994606 0.1418253928106396 -0.17604497611514197 -1.0328499351050147
Ni 6.766661290009256 9.4950571731169 5.016905637522024 1.5117832049148092 -1.7718266355297936 1.0046089379814505
Ni 4.584612955343509 6.500974208470634 4.553727679183098 0.01415212313066595 0.31949144946897234 -0.6820807585686833
Ni 5.54640000485448 2.1336099435728935 5.901442829011264 -0.9193609273452232 -1.5458436369336281 0.5132433559455741
Ni 6.653548642353754 7.905214120123923 12.746646162561628 -0.9462639223836542 0.8492687985138277 0.6184883785290187
Ni 7.1084406467084955 8.527821036681532 2.6993569841010014 1.6350845707793324 0.906282239784394 -0.8289622257459917
Ni 5.644567115971174 1.8410301792063704 10.172039850438304 -2.02755909747425 -1.032588711023828 0.8007590238388984
Ni 9.222779202794085 7.948713986099604 12.245860221502413 0.11429659126275155 -1.0538231949225723 1.5909929797767568
Ni 5.147864741075573 5.281761895756159 0.7424422707729883 1.988944984646478 0.9878929107783502 -1.8042878413822927
Ni 1.2494747034700704 5.369197925979152 12.634760719831862 -0.11921614005155598 0.05943413489691699 -0.0439568651969243
P 8.38779714031423 4.19215801854157 0.7462315676768024 0.4928737911502867 0.36517866709344204 0.40733396030525326
Ni 4.895786452435019 8.439549541683078 3.3363338947965437 0.08089770408733164 0.5159435284855566 0.24532463634757104
P 6.057630183901157 7.17602974704331 1.4728473507199702 -1.3656720402446223 0.6975323172370633 -1.129346522071868
Ni 8.592820196212415 1.3996262895043527 2.7587576013421 -0.71455739104015 0.8811728463112759 0.8589546583430238
P 5.314818452038576 0.4415106435344375 8.068451869424514 0.7428904336568883 0.8886845813072888 0.6226250264052116
P 6.367763991494316 5.041714299882249 4.1610629478930985 -0.21017302814710254 -0.31259600790071973 -0.46068666489478083
P 0.5565922031774424 6.415905328444782 10.693232482785259 0.7795703055764251 -1.0611472393878112 -0.448732320746382
Ni 2.9705321409202075 9.088018734512188 2.1723355925039116 0.7463202852740437 0.6579473558555895 -0.9578230879761633
