# total energy = -340867.440540317 ev
CRYSTAL
PRIMVEC
9.33348700072326 0.00000000000000 0.00000000000000

0.00000000000000 9.33348700072326 0.00000000000000

0.00000000000000 0.00000000000000 13.66050166888003

PRIMCOORD
 96 1
Ni 9.212188844832268 8.049236384592895 1.3643383057357343 0.5199071411189949 0.3110520604523675 -0.2615956055934527
Ni 0.8186979983374698 4.803964343419943 9.583783889734 0.9236896366275641 1.3205548361910096 0.5863842989056223
Ni 4.938945230097165 8.87722866912544 10.509338178854318 -0.39987210471056944 1.4931889868523895 -0.6410999452809475
Ni 9.198057945756807 0.9926629928471777 2.719218055908013 0.44617407310090257 -1.339258840358416 -2.555916683353443
Ni 7.479352345128245 1.3422860763793334 0.9578780207439184 -0.821786791043475 -0.7992245894722428 0.1824007431298407
Ni 3.501840260912279 1.4869644558831097 8.857168205860654 0.523240576367602 -0.11477687333327975 0.5623074604620767
Ni 6.6207368902743085 6.682935246574751 4.944677857714171 -1.3704470930357624 0.9359427429633042 0.4957308009831075
Ni 5.73578233555845 4.875272182876033 8.873711811284204 -1.4716179455498333 0.7677820546922455 -1.576607914699678
Ni 4.690235806276951 3.4360391786916726 6.801304393374492 0.18980192068991827 -1.6492606051693985 0.7760368385018699
Ni 2.78926587464073 3.52966338518173 -0.052970337861930214 -2.352303053591413 0.09130861500801049 0.5980614781332345
Ni 0.8779021720597041 9.134935574259224 9.398807247450694 0.20745100123024918 -0.6242818452823442 0.5600731718149193
Ni 2.946544461378239 1.007288566725148 0.24046328819724758 -0.4495224207478452 0.8485787144253385 0.10337660191613811
Ni 4.972153776273181 8.54632856019393 4.49915413025173 -1.114512542382829 -0.6874168260696162 0.5565235067904479
Ni 4.137273378452862 4.720541638045789 1.8527606054112749 1.3448664163531807 -0.25976909390767516 0.4617642142296757
Ni 1.6768262451783689 5.87977937052292 12.680455620233094 -1.2963368441839096 -0.8168003935724772 -1.5070058381308238
Ni 4.606150423337173 4.174233986338479 12.720713749019215 3.183495711329821 1.4183122921481575 0.03548328050827437
Ni 0.08255002435463178 5.320124832634692 7.215941746186659 0.4224875281172401 0.428799586378197 0.17041888817761616
Ni 3.4149361649468792 3.847197940958645 4.056717920235896 0.5564165488989384 0.5894218001803655 1.5779356323721663
Ni 4.731433817187839 5.684093485439624 6.356709347852612 -0.8127141393182454 1.3606437337920954 0.027938892502113174
Ni 8.72242345640048 7.326376495823884 10.533106836440558 0.4203020904301471 -0.1500241265713481 -0.3887847365481562
Ni 1.6074597709849576 2.6787387234837907 5.52437512524219 -0.16306141937128046 1.7586718433153905 0.4554920080677188
Ni 8.93668298029498 2.1880773203153816 6.578870601705691 -0.08437383556139016 -0.851366818693437 0.030150812551767426
Ni 1.8513997830300317 1.1576510397143638 3.921329160183775 -0.5462959155251689 -0.8727488839136389 -3.717182422731411
Ni 3.7285413227642383 7.521913045117744 12.642561663663496 0.1104183392542679 -1.1759570228415555 -0.2481561922590952
P 7.864004004770179 5.069278040328165 5.721591702167214 0.7731127228765394 0.05892094270592434 -0.00888418986350728
P 7.123494492387101 0.5160512874187232 10.667171174710111 0.2641556530111451 -0.37594798979480415 0.7511030513746678
P 0.7953306806853407 0.8330221005905145 0.48810496112298707 -1.248754723529572 0.500706142710512 0.6716623914488368
P 0.6754140417675604 7.312618936222016 8.358354935286362 -0.1334597944547637 -1.1768671933606505 0.8668718563075716
P 1.5669057706660166 8.7800670711231 5.494363298308807 0.21048978805657295 0.22008488794417583 0.3362015631348016
P 6.9246072213177525 8.862873766365825 5.562118812673667 0.7106356873882407 0.03295871431420775 -0.13546885446499252
P 4.905540680697512 5.9119799001202376 3.6608371425769963 -0.32561401742694246 -0.15066587392040504 0.7775208792465642
P 2.9881811461705974 5.914882614527417 0.5424967890306192 0.9611922615587124 0.8050622791999426 1.276149570602757
Ni 8.705268507588922 9.014860266065167 7.078380150398233 0.1510227430391915 -0.7485427468466592 -0.12425704490957311
Ni 8.8716379105084 7.3466768297004545 5.425651101542865 -0.07408170960676273 -1.0217638524941821 0.2858891880334947
Ni 2.2615971961525045 3.3692300798923673 7.955247238767402 -0.6133929662839823 -0.5262364257711324 0.6330019987641615
Ni 7.038177089184468 5.17903984556424 13.166291610705326 0.8714859580408153 0.5986690298102464 -1.9761128658788163
Ni 8.813191615917557 4.702724011668608 11.556688871141949 0.40797827875747156 0.7827078227641423 0.9979333257334879
Ni 6.587668346400889 0.1990506070890446 3.2261187928289945 1.1495332814323882 0.48848363250239096 -1.2480026758548959
Ni 8.397954119901591 3.043668725433222 4.386455076707169 0.3380884957448693 -0.0837328595432816 1.2703980128309604
Ni 1.4911271910136612 8.416173086212885 13.072075661149624 -0.27734566933885785 -0.5609496608826017 -1.562591031595296
Ni 2.7763389953676034 6.530127400033507 4.484169217130428 2.6337362627360834 -0.7706699177630018 -0.0722492843837143
Ni 6.481191928532423 4.352176912939311 1.5127500799754314 -0.6748842408202441 0.5372034663055973 0.578587685679339
Ni 5.832243922047807 1.3374886641436752 12.602987679462734 -0.1614719633969735 -1.3633948141746712 -2.1163827412768774
Ni 6.410005424405251 7.848099743195156 12.562811685360805 0.2896070032047141 0.5000672235749324 -0.2569699338959832
Ni 2.0890676919187583 7.013312680243235 10.508012823723064 -0.6841101302938863 0.09681540375885261 0.010293925726840335
Ni 8.766636183560623 4.9292570707574495 1.252305663151535 1.3302355538138833 2.0123258254642633 -1.6904566197917337
Ni 4.898857904120214 9.176133585170112 0.5360930837098308 0.787983726451101 -1.075891487576521 1.330738975812863
Ni 1.6952972156343376 1.0036298398839454 7.305676688710571 -0.4223828842185758 -0.8811018838640245 0.17149052397524014
Ni 6.5550384764089396 6.8577141211368895 2.3913531968968047 -0.6262101726533086 1.8030395707974882 -0.5881048811411549
Ni 1.5783952929658134 1.131003934786728 11.246199231231715 0.20272299962696053 0.3014988695462936 1.1364026575877009
Ni 6.619663539287731 8.646943548326998 8.462106908346287 -0.282718503614997 0.5569019731757893 -0.9524230000065145
Ni 2.4831648402425723 8.018109205982155 1.4836128007589366 1.0070419729029751 -0.14291399788912806 0.6501628268141642
Ni 8.713164637455396 3.5125364368306924 8.516011528240883 -1.5505415566299297 -0.722617285230149 -0.0005545869518893674
Ni 6.325929374952311 7.205442506840566 10.123360230732448 0.3761467360691716 -3.2869684725041908 0.15415511802058612
Ni 5.077435507826151 2.4205744774948577 1.0567681805089921 -1.362394655044931 -0.8612943622197939 1.1378687006102661
Ni 5.0464763319785275 1.9580255366879336 4.112999779228588 -1.0380733882874833 -0.8249335642025728 -0.2796342082627184
P 8.990303862189647 6.840017830088625 12.644856768077405 -0.28626328354346187 -0.002525594635331134 0.2911738334712018
P 3.9793601146102464 -0.12196907267385299 2.693277495934151 -0.1157340950402265 0.7146769473371498 -0.35354853905368144
P 6.614296784354845 3.051564855299695 13.408464793691625 1.5483224374914237 1.1142482329778487 -1.2552958670821992
P 1.0884432347972293 3.3338654982563565 3.4527741205954383 -0.06757167640238686 -0.8411209725957126 0.21993602107113736
P 5.360520163677356 6.0314765321302275 11.845280284228638 -0.1806819606665211 0.41440937909479597 -0.29632143911041225
P 3.5403128936659445 0.15332772175822088 11.939565301586953 -0.8304120708186409 1.4450489368120532 0.3291690817680525
P 4.713634857784337 7.092973990420947 8.407847615951782 1.2017696130292852 -0.2712475268609199 -0.7594501377877825
P 7.542409382217949 4.986620680874875 9.795467371260719 2.6233070969829595 1.0648488566091145 0.21501750072359743
Ni 7.012706003598647 6.461843610313513 7.43188689780443 0.08634201503135452 -0.1431975905678179 0.0604206671799024
Ni 2.9962172783396674 4.627757445371315 10.806385731017865 -0.13594836520457232 1.0953138579671913 -0.025626185208536514
Ni 1.8619932905932073 6.962267840716355 6.614059713789113 -1.675331334114521 -1.8666468632354882 0.26794263085740305
Ni 3.2363025603199027 0.9890042660059752 5.466741777355095 1.7879731633826692 -0.42163700719148683 1.7772449783318875
Ni 3.6218315677247777 8.16946102857639 6.54198652841216 2.4386910913693547 1.197646591999847 -0.5652724566276717
Ni 8.655633024574854 2.983673072026973 2.1395487888405134 0.09479271690186901 0.6226448238995534 -0.840613693941991
Ni 6.147585108417369 3.966778574350193 4.85218300313173 -0.996878144996096 0.3342210423696631 0.8838930734559164
Ni 0.7127311888504579 5.227443308315455 4.716041964040321 -0.29683514552203716 -0.5009935920439437 -0.030276539496354306
Ni 2.985651771237011 8.32999700222099 8.72667019291259 0.11302980873518596 0.008466128489482194 0.41816447526185396
Ni 8.986187794493294 2.722531443736143 13.331610996355325 0.5197065950724147 0.24933144351411896 0.1539802830056187
Ni 1.9544974786624885 5.025681323299447 2.473343212041048 -1.1972786671374671 1.8296245203748684 -0.5231806696639442
Ni 9.072065206906315 0.26919176069015915 4.694554410637728 -1.3939690874171025 0.37287346463453847 2.231532167458228
Ni 8.42157717509313 1.0731176494062737 8.816774741515356 -1.1473419302080239 0.6807957212086727 0.6669536731192579
Ni 2.737222352021992 2.732471607220533 2.113634362629802 -0.09731496910309047 -1.5861888735198941 0.12231200536806032
Ni 5.266830622779421 6.371719461388381 0.4379925369314044 -0.984649464140388 0.11033734950468738 0.6944441652300426
Ni 6.112911204807503 1.5134715585081482 9.040164282236555 -1.3617392808491193 1.717679717173745 -0.5803000403847555
Ni 2.925338779278208 5.595453360922021 8.48072628124301 0.7426448933049855 0.7560105159786141 -0.2926226501025863
Ni 7.559349660832191 5.222627229106117 3.436121313375863 0.605028396369371 -2.910237581796775 1.0035406446179362
Ni 6.540627572728285 3.457002190133869 10.938441502919492 -1.1969801620604417 -0.4934456044933566 0.6277649187349382
Ni 3.6584188361368035 2.461399148932153 11.560021859292442 0.10160665449990887 -1.6123040825497073 -0.7206236518388879
Ni 8.683624151607422 2.3486879618547003 11.005268335343793 0.34849966377586433 -0.8311528056394073 -0.7205550033844816
Ni 5.308383306190221 0.9830215009416619 6.466034345904585 1.6127589106989388 -0.3564253463808442 0.8285639618663085
Ni 8.455429731861093 -0.21985681595233195 12.832552255077145 0.18316744609253616 0.3750157077885219 -0.8235485109295881
Ni 1.127783881826996 7.69630924671945 3.554312190576964 -0.1946232533379616 1.1105293893653647 -0.7013064395675147
P 2.7511665813606565 4.427143479236603 6.188602983032247 0.2111708732839976 1.692928221260678 -0.388750283765795
P 4.397192319967678 3.4425072850716556 9.595245411573279 -0.8669073375311972 -1.6319977043238925 0.24866089980965567
P 8.959410020749901 6.445183336304466 2.7501324310188062 1.6927659846512009 0.6824175730828119 -0.03543005867283575
P 6.599820546266311 2.8150262983185845 2.93997181994565 -0.0023970394772668394 -1.3420806260779274 0.8834747549715752
P 7.152418968103649 8.458761786662903 0.9868892978880759 -1.942369450879784 0.7472091156369003 -0.34613964818411996
P 1.0041058477127753 2.034560128774313 9.376445146331212 0.3398774693244921 0.4237278282822444 -1.2169208668484268
P 6.967018585517814 2.6736333061824187 7.114020069896018 -1.5603683129123644 -0.48193966073628614 0.3786340212673995
P 1.4431624021439173 3.5039496289380745 11.890537428566153 -0.674999940462502 -0.17118841935378903 -0.13510967135336086
