# total energy = -381175.7660630777 ev
CRYSTAL
PRIMVEC
9.18720126012996 0.00000000000000 0.00000000000000

0.00000000000000 9.18720126012996 0.00000000000000

0.00000000000000 0.00000000000000 13.44639770074523

PRIMCOORD
 96 1
Ni 5.958460327639452 3.9692475471292235 5.637173799519641 -1.3494740903285212 -0.6633433300601801 0.10002979693109224
Ni 1.5588107837369822 0.8740023266357256 1.3059863594370698 -0.022991318688850727 -1.3039313687017156 -0.11658178775250244
Ni 0.6190574963237044 2.1796175231486656 8.446596925549922 -1.59406699071639 -0.11349646395895938 -0.2871531423475829
Ni 1.75996455165344 8.914855703144204 6.291568946124865 -0.3834065029553784 0.3267931253367081 -0.3484101893858516
Ni 2.492441720342335 5.127551486447386 2.956580038246708 0.5398301052951671 0.2784054780619399 0.1480448913577902
Ni 8.9256322900255 8.524555839138955 2.3148641478690015 -0.5924042798474571 0.1372591135961959 -1.081631732494408
Ni 4.03680103676109 0.26238738191691374 4.990254278443242 -0.7768055983470944 -0.8967997542152555 -0.26327633572998527
Ni 3.314411414871568 7.010302980699751 6.430040278428607 0.3559468640825289 0.702210439439023 0.2752029119642421
Ni 4.038151555321662 8.996061373599264 2.7232857660288596 0.4612697910917605 -0.795621702612333 -0.1131845891454954
Ni 4.029102162245722 6.580103102350536 1.9170124045658636 0.49035488138317485 -0.7418216260727418 -0.5366074845928114
Ni 6.831124997796135 8.932384882828359 3.748021582266254 -0.9698010862736459 2.995339296663125 -0.03888587843192012
Ni 7.448909148048442 2.256275529063026 9.670796983422896 1.9264293826107595 -0.23084469756384116 1.0871601185118052
Ni 8.265871817982358 1.6067955350421963 0.9551354182021577 0.20076253346648004 -1.191919973928715 0.6646530500105393
Ni 5.335301664748133 2.7922292791859946 13.501393129106969 2.6926600336554856 0.11410170164312607 -2.2498587336815574
Ni 6.899707453950342 0.49053222792251344 8.083032735443451 1.4680397412802717 1.7803421291999726 -0.633557099936683
Ni 8.497361723905675 1.5475932112032533 3.361316670048434 -0.01374203217644085 0.6608465317802554 -0.015705840771031016
Ni 5.198568550891059 2.176769490810045 4.139244759981279 -0.32352499610839763 -0.35301734914055977 -0.8723619328878653
Ni 1.574713828827797 4.014292394084893 6.890848235937012 0.11701810395897268 -0.6438505114428912 0.014634462083723184
Ni 0.5022477467554464 5.584109444730481 12.079880472094237 -0.4054074327065018 -0.0722701103193207 -0.5619950714279804
Ni 8.088264846465531 7.544005866555099 7.172429518376012 -0.048758914571257965 -0.28917145832919233 -0.006167305152976475
Ni 3.8101895346177987 -0.018139209836686654 7.328125015287645 0.2587483659526447 0.47343856524381045 1.7595411332942212
Ni 0.16674494366537265 8.290861004953483 4.552560400163019 -0.9803084135628729 -1.2094705812179687 1.6498115925768617
Ni 5.553552813897408 7.578007697797795 0.5375578354336886 2.4050201814794705 -1.6274550792585327 0.7864693466891036
Ni 0.4982917379650912 0.6363514836598971 12.453219844162943 0.8783574883496679 0.8094043582187221 0.2950816531660402
P 8.634820626649041 8.297080740092987 11.628336888167333 -2.357380211004005 -1.9793943648435652 -0.4459748126059029
Ni 8.747483273644225 3.682478252233388 1.7901454259618372 0.20262709747904456 2.2279984432733566 -0.19035805030370442
P -0.2045594633613827 2.9900756547092153 11.21308550471544 1.223111311929855 -0.7248538878701517 0.5251267376467215
Ni 3.484889118340752 7.5599272860481 9.183754973195358 0.04623743370098488 0.07811088537081387 0.8414019941712412
P -0.08186990509403656 0.3118797529213782 7.353485365182899 0.4987459336603474 0.6942963267982688 0.08691768502916644
P 7.907791468207896 3.021321325624213 4.995188724149931 0.5669763266926559 0.05895848081207911 -0.08084139692809948
P 5.9888424016517705 5.097490964473298 1.4379035424815472 0.01358133822886048 -0.13934402114968258 0.5577532654324912
Ni 1.4329736903754056 8.016090194684224 11.091462580494914 1.418265498070622 -1.5456117234284799 -0.6987823875940804
Ni 1.3613410834585469 5.042285073109517 0.8846493739816212 -0.14595946958367123 0.5668876236335914 -0.22012679692570475
Ni 7.048650358059116 6.700905609513518 11.774472183622292 0.9732468787304014 0.16962698840394014 0.8241036121021098
Ni 4.98910955318714 4.539138818087241 3.3877124175067928 -0.7911721514814116 0.022641391548599715 -0.7523508077388398
Ni 3.341201293256788 4.980877821008416 5.303339392147934 0.11223199542423898 -1.0078323300147547 0.3524691899465736
Ni 7.626460996358718 3.020549600732458 7.206744633175955 1.4611581836690901 -1.821107484042793 -0.3149961327017801
Ni 7.907672034593697 6.0095779145171475 0.8715833365881165 0.28748789997918234 0.6930033190184581 0.8073976122013387
Ni 1.9190317513659567 7.670697369618263 1.9435018614753645 0.771052497913401 -0.34810139989618116 1.6189817516801988
Ni 7.801523113172972 4.569870005741068 10.418874019566559 -0.14793947612817746 0.6531283372003913 -1.2874981628463569
Ni 8.860577719090745 -0.04378344424569367 9.655293581579597 -0.473681791602868 0.8990273579941936 -0.4879331593155597
Ni 3.7055105653718474 4.035009532548086 0.7614949433390035 -2.535653305118717 1.5112008500487781 1.7345466681324127
Ni 6.777747359449726 2.829768182849235 2.1747933238550856 -2.8152121800588095 0.3516631491055105 0.5599374175680034
Ni 2.005400628834905 0.3891376830670676 9.265146225112483 0.6675967060198954 -0.33160597334431924 -0.2686653679560405
Ni 7.704083658387772 4.317038231680282 12.786891638075316 -0.22859678206992887 -1.4786799946029372 0.15267467682031768
Ni 5.463904105638499 2.3243159403527858 8.855622142821547 -1.946279327457151 -0.1935827278885892 -1.5453528133401386
Ni 0.6525889428704725 7.397855871578392 13.57682739983583 -0.18894805733005524 0.3628297072452913 -0.28266091090418416
Ni 7.842626650860034 8.58825989151314 0.16295522321478856 -1.6313996657285776 -0.05793389620230668 0.07863693307761296
Ni 2.895364798648436 2.361303611950486 8.520444566650141 1.2562178646758366 0.4902702920891685 -0.9202983515578279
Ni 3.9580667233998637 1.8357497734640298 1.5118053880682103 -0.7501756544643918 -0.6681610631637976 0.5806476535321613
Ni 4.661346967017349 1.7565009768416335 11.038134553034403 2.477547145004604 3.386159832694388 0.2472565632629613
Ni 2.378244810764734 4.113018057023019 12.156242650133425 1.3466841862882097 0.7061866504779516 0.1213154457827459
Ni 0.8885070797202885 2.7112808503615184 13.355606947293516 -0.28403233733041405 1.6855632962551745 -0.427911784456605
Ni 1.159847389101673 7.5769144208678085 8.337559548105771 -0.05606136176994216 0.017854511682917636 -0.40390539423967864
Ni 7.385710391734339 1.6902796313681543 12.33459562237895 0.33409840074886976 0.6817053775071357 -1.5047818338963115
Ni 4.731629055373636 7.480604991816964 11.71408471084244 -0.685900903645722 0.35855833356344696 -0.5169290323272774
P 2.198726901420702 6.997771638409819 4.236516088986489 0.17156791418039483 0.06078653515975338 0.5673231685091132
Ni 0.7594875399003305 4.394789514524629 4.346508016624133 -0.495739799844172 -2.3125828521836556 1.7547131157779585
P 7.351258387638119 7.144463678250974 4.877250786287535 0.09483128344928829 -0.9602710352960238 1.1406398355975
Ni 5.31877388998304 1.489594410707405 6.473808104432444 0.7252297831523317 1.9343784622545073 0.11688826324932772
P 5.9846071019482086 0.7400014863835088 1.7488112895273573 -0.024617798548680184 -0.23361917498518475 -0.17969671393511633
P 4.626665282893822 0.18555573790190824 9.55320815920201 0.09728720118894858 0.7244700221681716 -0.47599964110276727
P 6.00290800652412 3.9158055983751683 11.351812241209549 -1.69623543125704 -1.1330121438489134 0.5531160237707957
Ni 6.483435372457091 9.041032722946197 10.915677430954693 0.933102959521664 -0.040607746219033285 -1.535649984230078
Ni 2.466386818044501 5.542473049380064 8.558228768582547 0.045771292697843746 0.40873315464562504 -2.3304728450901995
Ni 5.542675167804094 0.3072824774947787 12.873311963870382 -0.7501967375103145 1.551190245957522 1.3845297963810737
Ni 5.049304094744054 5.3406761773871425 12.913166960928997 0.9807460153209238 0.11287965631056687 -0.7226257698705812
Ni 4.643799412931008 6.903354772783994 4.222048084706296 -0.5103634632946179 0.49530656896149533 0.7314022305116307
Ni 8.013536152780558 5.232450948519554 5.977609210876184 0.7279690364603657 0.2171216915507938 -0.019844802640069048
Ni 9.087262718842775 5.107844940104348 8.08238779392677 -0.6513524762468911 -0.01618098063523665 0.9473044478330266
Ni 0.9931731868847113 6.326260736169593 6.29413768755028 0.41354574554292006 0.12028263364285736 -1.258874071351761
Ni 1.576973880296509 2.9347319553290494 2.3353166949407353 1.1760477827831488 -0.2602902565184679 0.8195180496139564
Ni 5.398050248208714 5.78767944653422 10.254048282209373 0.48112590658573917 0.08852462450497013 -0.35948213092929704
Ni 3.874830681503398 4.084951157685966 9.869319536946511 0.6516034159154326 -0.6476506019152717 0.6087459544302742
Ni 3.5832656676373693 8.51030649024476 0.35167411445278435 -2.0463764872910692 0.9921804824101106 -0.04409339077478858
Ni 3.2557419486959804 9.43396931366494 11.417322497318482 -0.8351678403360714 -3.633134860161188 0.2297722904352688
Ni 0.7333655710345225 1.864836452122331 5.438139518895183 -0.8221850549231581 0.9818325635168832 1.316754745718629
Ni 5.856243528286242 6.202049777401359 6.545732864344038 -0.594959185058827 1.2365047025176252 -0.9025124883293166
Ni 6.688695819261819 7.03254519454427 2.8375662791364005 -0.35094966797825367 -2.9230185356115275 -2.1253456068971204
Ni 7.299277203857744 4.760982162863614 3.8171231152821767 0.7483036342526596 -0.11681678658144398 -1.3966972849815429
Ni -0.24925703411576272 6.614490796039109 10.005612583871264 -0.147018764086121 0.5072693977503263 -0.010694503599368677
Ni 5.927113597512438 8.497894581569028 6.172030597832187 -0.1331162950724159 -0.6424554308675774 -0.8867364564419826
Ni 2.7289478380620595 6.510519241277266 12.72915283537038 0.32711734144534627 -0.34858451018018677 0.4443118230811832
Ni 5.943273884233839 7.831895999984199 8.6555938070389 -2.080255913647333 -0.09444793196794057 -0.031144029702972167
Ni 6.226055933855604 4.528683783244174 7.951069616393512 -0.3854482159757555 -0.6562051763535022 1.932758153042265
Ni 1.5017582649536434 3.9995469363317113 9.884998414330674 -2.4751382784527953 0.8483360022869132 0.05072503715869329
Ni 0.2045879436847689 6.187230822039439 3.274735568234253 -0.5491696375285381 1.4354378960848504 -1.3900378706834964
Ni 7.763184923014699 0.8480925821151505 5.559278277618144 -0.2523355204477654 0.32700524134751424 1.6651675062076419
P 4.136234114183324 4.13550832529703 7.554172423283867 -1.032090688341487 -0.45429798775961755 -0.7134029657207326
Ni 1.4494463419339445 0.6759005469221383 3.6909957063660825 2.609738100049273 0.07706393216353824 -0.9204199647373568
P 7.103948121433821 6.226028372252327 8.871651052567326 1.9020622666203049 -1.1382376539139107 0.1748455564904021
Ni 2.0930649016578706 2.150071484435748 10.927026380464042 -1.021437579503015 -0.792534579046577 0.5841019306293489
P 2.7664224313176535 5.985939246106596 10.625303078350228 0.1967906933029256 -0.0307935883420889 1.01487766689731
P 3.089848658571866 3.1190639580454596 3.9287145346299943 0.39853358840480396 0.24173691899631275 -0.6122056308441005
P 2.7260906185223464 1.4638794348499873 12.997046106901925 0.3633416138847033 1.0484071661133234 1.2470338841837232
Ni 2.976827710734083 2.335156837641729 5.904097821335945 0.8572209634813689 -0.4392953437031982 0.23635431452816066
