# total energy = -381173.8453166627 ev
CRYSTAL
PRIMVEC
9.12754682010068 0.00000000000000 0.00000000000000

0.00000000000000 9.12754682010068 0.00000000000000

0.00000000000000 0.00000000000000 13.35908739778929

PRIMCOORD
 96 1
Ni 2.3411518987248066 4.76687051990085 5.450574900391238 2.1519899489575263 -0.045609827419315 -0.9702073205731292
Ni 4.242209993919242 1.5284077360453063 1.2478479362946955 1.8819780942759203 -0.6499180577932098 -0.5635289915740036
Ni 0.10809297470359237 2.130853217097551 10.16662597716292 0.5797961041651435 -0.7946729655458186 1.1543543569701151
Ni 1.2718232638567748 4.056738239984094 1.9085591132743527 1.744066948918022 -0.5717189835839638 2.2383113951635902
Ni 6.436517917382795 0.8556545863802832 0.3105410532029133 -0.14959963743941976 -0.6847120255439434 1.4281963840310887
Ni 2.6583980479139777 8.950436024694437 1.5533414560366767 -1.3724252998080557 -0.7725825614046824 -1.4976683627799818
Ni 4.706400521386069 8.022474836920281 0.999041046858533 0.5128787735173038 0.9647470687895062 0.10373707057935039
Ni 2.0791274085566807 0.6309352933336314 6.975407376297942 -0.5488785886506805 1.4031029313975707 -0.473123862216869
Ni 2.3293408529771646 1.5369602475333595 11.661494541956516 0.15522495404599718 3.3990708843291007 -1.4077861958058528
Ni 3.9658917652342645 5.867707446825188 7.3514258002700075 -2.0935999390544073 0.542157210766447 -0.11317636161537926
Ni 1.798683528652279 3.7515860904978786 10.441823343082971 0.5863138506790031 -0.20572579100902635 0.40849275650004485
Ni 5.076732483611009 2.228919581481372 12.425420932552022 -0.4267553022546586 1.2885893390280065 -0.5259839434406942
Ni 5.768764837934587 6.953045799035849 3.6437441233352907 0.8513477925300436 3.088548471127958 2.4753452522572785
Ni 8.53571680167291 5.654259761501691 7.456267542751568 -1.6992251100129832 1.475572045101575 1.1170381370181601
Ni 4.734193901835504 3.6684158827293216 6.571736136099403 -0.46520255048726333 -0.07947974069388249 -0.4086004857225028
Ni 0.6470061652407976 8.633573232476982 9.808696525727695 1.3729130380777514 0.6069096725524837 0.4210114577923459
Ni 2.012532826041383 8.989867027499546 3.7639091916291703 -1.4048790494613868 1.6704776055666457 1.1670288671139901
Ni 1.5412319395039131 6.352991735283359 3.4711851100641216 0.04918906013014109 -0.3896596829539418 0.06940872961112562
Ni 4.095192595266021 0.15205306630312299 5.272591385970281 1.7100527967561066 1.9801803510799705 -0.4880951388147207
Ni 1.8567255996795236 6.114808397737212 11.490485386156713 -0.1740557135992551 -0.6246256017750081 0.31393375287553676
Ni 8.476332981244658 5.058541282548373 1.7764250926706722 -2.0224809116203946 1.3035055940182065 0.806870793163591
Ni 6.133638527086042 1.9342549834356828 8.67303983271518 0.770588670903105 0.21041188363078603 1.602136655098402
Ni 7.847654930270681 7.945420085605297 8.756294013915635 -0.30359894660843195 -1.8200890700806072 -0.5918566348741033
Ni 8.838121559528492 8.23543876225566 3.4784789328283727 0.46369948357917556 1.0469071845290292 0.31964005923169464
P 2.0017805757394345 1.2654339809948358 9.137202064786475 -0.3982852198394238 -0.11368595426194614 0.6252686346756458
Ni 3.637373095567243 7.606678563359172 3.1894551587950812 0.72935743216746 -1.0739047961637957 -0.19677423824269336
P 7.723255592948725 2.383229890144148 6.813201739527198 0.5837088089559882 -0.35641917573325715 0.37003342408258205
Ni 7.578638739142205 4.433870224683526 5.781359027210163 0.8008526119939691 -0.1409013383344735 -0.6986065241378484
P 3.9207195354003543 5.461385566993639 3.9546374998503055 -0.376051605252204 0.436667419162048 -0.4257160623568669
P 4.912582679340846 4.637615327603821 -0.15741458737898453 0.029427304122181582 -0.5184182152782942 0.658884265847562
P 5.266932306863993 7.768263526937614 6.576278003459548 -0.4644566734601743 1.1368279180505778 -0.228183091571278
Ni 6.266508227973539 3.387077503224249 1.4242259152079155 -1.8727702025244068 -0.19179246875738581 1.1906593620487365
Ni 0.4027840426354237 5.979309963329373 5.58288325714158 0.6939235168398823 1.4838779938641091 -0.3266745974809729
Ni 4.953620130408387 2.2297958259881523 3.327200795260933 -0.5064013933230763 -0.5090007786191363 0.7372144663180336
Ni 3.029916591241849 7.911337825310324 10.807768606245844 -0.6125882109944998 0.4395642810938688 -2.180808930071747
Ni 4.475181502159436 1.2676063371678952 7.3949094339189765 -0.9964027480215742 -0.061646826277519634 -1.0208282280537904
Ni 8.182590265440478 1.4019638282075304 12.299190609312774 0.44035618086754486 0.3376184980869863 -0.43792366016665224
Ni 5.279820403151218 5.953570280942704 1.8647286328414499 -0.9501028365137701 -2.271192205052011 -3.3750105009457876
Ni 1.116344629184958 7.680091423442853 7.803029440498814 -0.5961133532679281 -0.6264657403075405 -1.538957451336756
Ni 6.824420407478068 3.9391936904183043 8.07319022601427 0.8283387332293799 0.9262566260237919 -1.5835619774200083
Ni 7.670105887084337 1.2699521167329213 2.416471503365429 -2.511879599737887 -0.0024710872483118735 1.5666176362561859
Ni 2.841049389842927 2.388998499813785 5.521537926874712 1.268857150706402 -0.235015284001763 -0.3616338871649772
Ni 1.6526701601630778 5.102873778063286 7.5710090226503555 -0.020468552266997005 -0.2823531498557782 -0.9732805601818141
Ni 4.568309863645672 6.46182860506302 9.719324149809585 -0.6161748999044937 -0.5067322942999337 0.3931175595955552
Ni 6.725760752542781 3.6975053748450364 10.362630920273322 0.3141294138261106 -1.2101457529081223 -0.14969116871196156
Ni 6.121553654930031 4.6997647947565975 3.604081280837762 -1.3378802148433344 -1.4859819275809891 0.6446151575230575
Ni 3.6800991428197247 3.9531223270573315 1.95940411353497 0.9662966726648133 -0.9475186207263617 0.7824345144980978
Ni 8.433597806445231 2.8494649881267953 0.8629913086151785 1.0772235761243836 0.09350279444585188 0.21934003935835128
Ni 4.713054503109431 4.1694086794809175 8.81904133539335 0.7422684838021733 0.19952506151495317 0.5368759077628497
Ni 8.868415887841028 0.9237168784444375 8.130113259785983 0.6115816241068565 0.9949881270622348 -1.0196894864636568
Ni 6.245259298684118 2.6469521040441606 5.215374445186922 0.23336463577221744 -0.8173413536776117 -0.17117350695545358
Ni 4.345652483454037 6.5721441374478715 12.351491453311219 -1.1018506306444442 -0.25186398012798555 0.5770481091063611
Ni 5.591042371356275 5.75230787079162 5.646405507354978 -0.5407199640992881 0.11974938684720667 -0.8428348699630259
Ni 6.211861604410068 8.0118960100103 12.217046337820905 0.047403428984628036 0.9457931533948227 -0.045696473595850336
Ni 8.239673944038431 7.3369321684750455 11.211173322073572 1.0827385924053419 0.19940370544574046 -0.4787172971442465
Ni 0.5657536550855171 1.8813517213388264 3.106909275237605 0.14478139011517 -0.4598675114275951 0.31662801187824824
P 7.7585700720813575 3.584250772343692 3.1249443952474705 1.465118968089051 -2.007186447355169 0.3388652260098938
Ni 2.7575049526495996 5.941156817096651 1.3200084969374364 0.011450922149418988 1.336922993136388 -0.39610980945465973
P 5.759965882679001 9.38037999602127 2.556034434428155 -0.8349837493497233 -0.6638472662797922 0.23820833701776395
Ni 2.1425364771879543 2.0538441035172927 1.1338047137372487 -1.022033304105485 0.3596384540015032 -0.10398235382093704
P 7.543634596605724 5.911820881213404 9.639717336368603 0.11037900137590022 -0.8316937657445419 -1.0731324367741453
P 0.7355479343868561 8.507165834826987 5.7939431761841 -0.5854569019953466 -0.7216086414599766 -1.1772078645295212
P 2.5610253770980242 2.318013567217641 3.4223974588850488 1.5010205670816665 0.41520744951605915 -0.650024501464087
Ni 6.954287145420455 3.8740960256020895 12.71372363037661 -0.007293448337619698 0.10302667477588709 -0.8689922450846841
Ni 7.984522496720364 6.183374530392765 3.9152411817235886 0.2448752075149783 -1.1463132318331934 -1.1231218813183947
Ni 8.842429761686828 4.615745725122097 11.361556960040339 -0.3740299468364849 -0.033315326322678106 -0.795655641174062
Ni 7.837432077691578 6.078416868064996 13.125610575580907 -0.580517041491568 0.6144633165300256 0.636574032386136
Ni 4.0798035511156945 1.9492606706142943 9.90759349688357 -0.4854756989140026 -0.5107355019220559 0.40473894588456744
Ni 6.7526870160323815 0.24277084264101906 7.324494060252239 -0.6831002009721333 -0.46531310792319863 -1.0806526564105905
Ni 6.128618376265946 6.191333751329353 7.810537760616287 1.9804662577515055 0.5735526943585928 1.539725182740716
Ni 6.46940446902789 0.20209484243252518 4.941873890244058 -2.1892853429738746 0.574946489382326 -2.32705122100316
Ni 0.8439430308943487 5.006605540427754 13.347572436695284 -0.0034774170256391727 0.0490317086166704 -1.1469742624559602
Ni 6.230673478665006 5.729279069847802 11.264021818888754 -0.024647109124718843 0.4271890473579675 0.7003769857747099
Ni 0.8587762074356877 2.8559181638173543 6.525740601530997 -1.3255360914556849 0.5320484044672192 1.0753276446532514
Ni 0.44506466559695895 7.13149846936981 1.2763395740854715 0.6838478777714352 0.6232642026511073 -0.02271338243711572
Ni 3.3915773838684435 8.238313939543533 7.996696818836441 -0.5948617402490142 -1.2667830417861923 -0.5990654939177167
Ni -0.1576555546183491 3.944241223879236 8.896270422855 0.31663906762184174 -0.9815844520618191 -0.11419657534977752
Ni 5.141109072218518 8.61019758474923 9.11696264218924 2.6867238706767083 1.2581976141100268 1.316187046140617
Ni 8.490654102402349 1.0823536443594417 5.1048015159782025 1.6048630528906296 0.11886647002162111 0.739300659423101
Ni 0.6773643863819543 6.050824293648365 9.397837342309478 -0.47106080904025327 1.295390678220556 2.093569600037104
Ni 7.104243614190167 7.640523507433559 1.8215653760902724 0.4259636595912987 0.5163165955542591 -0.6309230047479457
Ni 4.274302448980068 4.134879169385609 11.025722561496396 -0.012246678577836973 0.747502478507603 0.6142229183844453
Ni 3.8092356770064613 0.13971262283263478 12.294595802180346 1.7393404899766303 -0.959592264061444 2.6379523576999597
Ni 2.8646532262443194 7.61269361679634 5.532719171883106 -2.1709412932490486 -3.0706962734378855 0.9230262920119523
Ni 7.485665545954045 7.549950859092098 5.713227365789223 0.9739019958158969 -1.1532212718069363 1.3366337440307434
Ni 0.9956419483759813 9.082575521826284 12.000334641709653 -1.4073123414932278 -2.8442821008415726 1.8231743938741507
Ni 2.944984766912786 3.0267493324517165 8.129926145073597 -2.0580271841561197 -0.6108925684596318 -0.8557155825804359
Ni 2.8633479870310947 3.6488920598126247 12.833554630452278 0.4094453502213013 0.7197515336465797 0.5494102927844344
P 0.8413115591099243 2.729182174477318 12.74641302700768 -0.2300170594562232 0.48504786734796473 -1.1235584546351811
Ni 7.491689726938159 0.5881791251762291 10.205488333793316 -1.0324197895461316 -0.3916949682164157 0.13773116813660793
P 8.209206192333927 8.377755474231883 13.358246190093501 -0.5950800269074075 -0.27233356083624716 -1.0551041185175247
Ni 0.48065114562857103 3.764729758099582 4.385093526560788 -0.47993985669743794 1.0895625573057104 -0.4630842185926799
P 2.2664794371626287 7.47782498312775 13.192405964129009 0.3285188497785632 0.49939822253236577 -0.37860368225009633
P 2.7439870556231254 5.306545860608016 9.346912932390431 1.5435612686573548 0.2937914735997069 0.6525107582210504
P 5.4526322494727815 0.6719407979868625 10.986166511298132 0.8424898279187812 -0.6256368166483419 -0.06145682175390062
Ni 0.2852166742022701 0.6383632910379831 1.1381129158955847 0.43733436332208553 -1.6688279857783648 -0.8586633523548501
